data_mof_unit_61606.cif
_audit_creation_date              2012-12-10T17:56:57-0500
_audit_creation_method            fapswitch 2.2
_symmetry_space_group_name_H-M    P1
_symmetry_Int_Tables_number       1
_space_group_crystal_system       triclinic
_cell_length_a                    18.343064
_cell_length_b                    18.348999
_cell_length_c                    25.900862
_cell_angle_alpha                 89.999943
_cell_angle_beta                  90.000022
_cell_angle_gamma                 90.0
_cell_volume                      8717.63088077

loop_
_atom_site_label
_atom_site_type_symbol
_atom_type_description
_atom_site_fract_x
_atom_site_fract_y
_atom_site_fract_z
_atom_type_partial_charge
C1    C     C_R   0.859825 0.140150 0.249950 0.508123
C2    C     C_R   0.743572 0.809827 0.783107 -0.135852
C3    C     C_R   0.493089 0.500151 0.053950 0.025556
C4    C     C_R   0.958140 0.956162 0.473301 -0.148938
C5    C     C_R   0.958140 0.956162 0.526700 -0.148937
C6    C     C_R   0.541880 0.456181 0.973300 -0.148934
C7    C     C_R   0.541880 0.456181 0.026700 -0.148934
C8    C     C_R   0.743572 0.809827 0.216893 -0.135852
C9    C     C_R   0.255746 0.809135 0.783800 -0.137600
C10   C     C_R   0.756428 0.309827 0.716893 -0.135852
C11   C     C_R   0.244254 0.309135 0.283801 -0.137601
C12   C     C_R   0.244254 0.309135 0.716199 -0.137601
C13   C     C_R   0.756428 0.309827 0.283106 -0.135852
C14   C     C_R   0.809855 0.256377 0.716914 -0.135116
C15   C     C_R   0.190850 0.255657 0.283807 -0.139443
C16   C     C_R   0.190850 0.255657 0.716193 -0.139443
C17   C     C_R   0.140208 0.140113 0.750011 0.503717
C18   C     C_R   0.809855 0.256377 0.283086 -0.135116
C19   C     C_R   0.309150 0.755658 0.216193 -0.139441
C20   C     C_R   0.690145 0.756377 0.783086 -0.135116
C21   C     C_R   0.690145 0.756377 0.216914 -0.135116
C22   C     C_R   0.309150 0.755658 0.783807 -0.139441
C23   C     C_R   0.803706 0.196278 0.750047 0.039886
C24   C     C_R   0.196391 0.196173 0.250068 0.039418
C25   C     C_R   0.196391 0.196173 0.749931 0.039418
C26   C     C_R   0.803706 0.196278 0.249953 0.039886
C27   C     C_R   0.303609 0.696173 0.249932 0.039418
C28   C     C_R   0.140208 0.140113 0.249989 0.503717
C29   C     C_R   0.696294 0.696278 0.749953 0.039886
C30   C     C_R   0.696294 0.696278 0.250047 0.039886
C31   C     C_R   0.303609 0.696173 0.750068 0.039418
C32   C     C_R   0.743575 0.190192 0.783164 -0.136387
C33   C     C_R   0.255962 0.190647 0.216401 -0.135849
C34   C     C_R   0.255962 0.190647 0.783599 -0.135849
C35   C     C_R   0.743575 0.190192 0.216836 -0.136387
C36   C     C_R   0.244038 0.690647 0.283599 -0.135850
C37   C     C_R   0.756425 0.690192 0.716836 -0.136387
C38   C     C_R   0.756424 0.690192 0.283164 -0.136387
C39   C     C_R   0.859825 0.140150 0.750050 0.508123
C40   C     C_R   0.244038 0.690647 0.716401 -0.135850
C41   C     C_R   0.190623 0.744110 0.283592 -0.135654
C42   C     C_R   0.809852 0.743645 0.716856 -0.136520
C43   C     C_R   0.809852 0.743645 0.283144 -0.136520
C44   C     C_R   0.190623 0.744110 0.716408 -0.135653
C45   C     C_R   0.690148 0.243644 0.783144 -0.136520
C46   C     C_R   0.309377 0.244111 0.216408 -0.135653
C47   C     C_R   0.309377 0.244111 0.783592 -0.135653
C48   C     C_R   0.690148 0.243645 0.216856 -0.136520
C49   C     C_R   0.196224 0.803663 0.249920 0.040052
C50   C     C_R   0.359791 0.640113 0.749989 0.503717
C51   C     C_R   0.803707 0.803739 0.749994 0.039750
C52   C     C_R   0.803707 0.803739 0.250006 0.039750
C53   C     C_R   0.196224 0.803663 0.750079 0.040052
C54   C     C_R   0.696293 0.303739 0.750006 0.039750
C55   C     C_R   0.303775 0.303663 0.250079 0.040052
C56   C     C_R   0.303775 0.303662 0.749920 0.040052
C57   C     C_R   0.696293 0.303739 0.249994 0.039750
C58   C     C_R   0.066219 0.999834 0.026741 -0.136758
C59   C     C_R   0.933783 0.000027 0.973259 -0.136229
C60   C     C_R   0.933783 0.000027 0.026740 -0.136229
C61   C     C_R   0.640175 0.640150 0.250050 0.508123
C62   C     C_R   0.066219 0.999834 0.973259 -0.136758
C63   C     C_R   0.566217 0.500027 0.526740 -0.136229
C64   C     C_R   0.433781 0.499834 0.473259 -0.136758
C65   C     C_R   0.433781 0.499834 0.526740 -0.136758
C66   C     C_R   0.566217 0.500027 0.473259 -0.136229
C67   C     C_R   0.000001 0.999938 0.946272 0.040500
C68   C     C_R   0.000001 0.999938 0.053728 0.040500
C69   C     C_R   0.499999 0.499938 0.446271 0.040500
C70   C     C_R   0.499999 0.499938 0.553728 0.040500
C71   C     C_R   0.140156 0.859847 0.249967 0.506147
C72   C     C_R   0.640175 0.640150 0.749950 0.508122
C73   C     C_R   0.859831 0.859863 0.750015 0.506829
C74   C     C_R   0.859831 0.859863 0.249985 0.506829
C75   C     C_R   0.140156 0.859847 0.750032 0.506147
C76   C     C_R   0.640169 0.359863 0.749985 0.506828
C77   C     C_R   0.359844 0.359847 0.250032 0.506147
C78   C     C_R   0.359844 0.359847 0.749967 0.506147
C79   C     C_R   0.640169 0.359863 0.250015 0.506828
C80   C     C_R   0.000000 0.999959 0.109845 0.507529
C81   C     C_R   0.000000 0.999959 0.890155 0.507529
C82   C     C_R   0.500000 0.499959 0.609845 0.507529
C83   C     C_R   0.359791 0.640113 0.250011 0.503717
C84   C     C_R   0.500000 0.499959 0.390155 0.507529
C85   C     C_R   0.001698 0.000080 0.389973 0.492721
C86   C     C_R   0.001698 0.000081 0.610027 0.492721
C87   C     C_R   0.498304 0.500080 0.889973 0.492718
C88   C     C_R   0.498304 0.500080 0.110026 0.492718
C89   C     C_R   0.113909 0.082528 0.446142 -0.099306
C90   C     C_R   0.113904 0.082535 0.553857 -0.099312
C91   C     C_R   0.386073 0.582496 0.946142 -0.099310
C92   C     C_R   0.386074 0.582497 0.053857 -0.099310
C93   C     C_R   0.165877 0.122705 0.473167 -0.122945
C94   C     C_R   0.255746 0.809135 0.216200 -0.137600
C95   C     C_R   0.165874 0.122709 0.526830 -0.122947
C96   C     C_R   0.334091 0.622655 0.973168 -0.122944
C97   C     C_R   0.334091 0.622656 0.026831 -0.122945
C98   C     C_R   0.059580 0.042487 0.527381 0.028036
C99   C     C_R   0.059581 0.042485 0.472619 0.028038
C100  C     C_R   0.440411 0.542469 0.027381 0.028038
C101  C     C_R   0.440410 0.542468 0.972619 0.028038
C102  C     C_R   0.006916 0.000150 0.446049 0.025550
C103  C     C_R   0.006915 0.000152 0.553950 0.025550
C104  C     C_R   0.493089 0.500151 0.946050 0.025556
H1    H     H_    0.918567 0.922875 0.453052 0.129540
H2    H     H_    0.737732 0.855790 0.809019 0.137574
H3    H     H_    0.737732 0.855790 0.190981 0.137574
H4    H     H_    0.261115 0.854628 0.810175 0.136919
H5    H     H_    0.762268 0.355790 0.690981 0.137574
H6    H     H_    0.238886 0.354627 0.310176 0.136918
H7    H     H_    0.238886 0.354628 0.689824 0.136918
H8    H     H_    0.762268 0.355790 0.309019 0.137574
H9    H     H_    0.855851 0.262175 0.691014 0.139392
H10   H     H_    0.145350 0.260951 0.310198 0.137016
H11   H     H_    0.145350 0.260951 0.689802 0.137015
H12   H     H_    0.918568 0.922874 0.546948 0.129541
H13   H     H_    0.855851 0.262175 0.308986 0.139392
H14   H     H_    0.354651 0.760952 0.189803 0.137019
H15   H     H_    0.644149 0.762175 0.808986 0.139392
H16   H     H_    0.644149 0.762175 0.191014 0.139392
H17   H     H_    0.354651 0.760952 0.810197 0.137019
H18   H     H_    0.737738 0.144228 0.809075 0.137170
H19   H     H_    0.261332 0.145152 0.190028 0.137546
H20   H     H_    0.261332 0.145152 0.809972 0.137546
H21   H     H_    0.737738 0.144228 0.190925 0.137170
H22   H     H_    0.238667 0.645151 0.309971 0.137546
H23   H     H_    0.581465 0.422909 0.953052 0.129529
H24   H     H_    0.762262 0.644228 0.690925 0.137169
H25   H     H_    0.762262 0.644228 0.309075 0.137169
H26   H     H_    0.238667 0.645151 0.690029 0.137546
H27   H     H_    0.145099 0.738787 0.309957 0.138789
H28   H     H_    0.855848 0.737850 0.690955 0.137712
H29   H     H_    0.855848 0.737850 0.309044 0.137712
H30   H     H_    0.145099 0.738787 0.690043 0.138789
H31   H     H_    0.644152 0.237850 0.809045 0.137713
H32   H     H_    0.354900 0.238788 0.190042 0.138789
H33   H     H_    0.354900 0.238788 0.809958 0.138789
H34   H     H_    0.581465 0.422909 0.046948 0.129529
H35   H     H_    0.644151 0.237850 0.190956 0.137713
H36   H     H_    0.117991 0.999755 0.046854 0.137079
H37   H     H_    0.882012 0.000107 0.953146 0.137454
H38   H     H_    0.882012 0.000107 0.046854 0.137454
H39   H     H_    0.117991 0.999755 0.953146 0.137079
H40   H     H_    0.617988 0.500107 0.546854 0.137454
H41   H     H_    0.382009 0.499755 0.453146 0.137079
H42   H     H_    0.382009 0.499755 0.546854 0.137079
H43   H     H_    0.617988 0.500107 0.453146 0.137454
H44   H     H_    0.118097 0.082145 0.404538 0.132471
H45   H     H_    0.207044 0.153099 0.452348 0.114440
H46   H     H_    0.118089 0.082159 0.595460 0.132480
H47   H     H_    0.381888 0.582117 0.904539 0.132459
H48   H     H_    0.381889 0.582119 0.095461 0.132460
H49   H     H_    0.207038 0.153107 0.547650 0.114440
H50   H     H_    0.292916 0.653038 0.952349 0.114442
H51   H     H_    0.292916 0.653039 0.047651 0.114442
H52   H     H_    0.261115 0.854628 0.189825 0.136919
O1    O     O_3   0.000000 0.000000 0.249960 -0.434585
O2    O     O_R   0.585480 0.646190 0.219690 -0.545847
O3    O     O_R   0.585480 0.646190 0.780310 -0.545847
O4    O     O_R   0.414520 0.646190 0.219690 -0.553735
O5    O     O_R   0.085470 0.853840 0.280350 -0.548156
O6    O     O_R   0.914530 0.853840 0.719650 -0.548838
O7    O     O_R   0.914530 0.853840 0.280350 -0.548838
O8    O     O_R   0.085470 0.853840 0.719650 -0.548155
O9    O     O_R   0.585470 0.353840 0.780350 -0.548837
O10   O     O_R   0.414530 0.353840 0.219650 -0.548155
O11   O     O_R   0.414530 0.353840 0.780350 -0.548155
O12   O     O_3   0.000000 0.000000 0.750040 -0.434585
O13   O     O_R   0.585470 0.353840 0.219650 -0.548837
O14   O     O_R   0.853820 0.914550 0.219610 -0.548993
O15   O     O_R   0.146180 0.914550 0.780390 -0.549956
O16   O     O_R   0.146180 0.914550 0.219610 -0.549956
O17   O     O_R   0.853820 0.914550 0.780390 -0.548993
O18   O     O_R   0.353820 0.414550 0.719610 -0.549956
O19   O     O_R   0.646180 0.414550 0.280390 -0.548993
O20   O     O_R   0.646180 0.414550 0.719610 -0.548993
O21   O     O_R   0.353820 0.414550 0.280390 -0.549956
O22   O     O_R   0.146180 0.085440 0.219600 -0.548753
O23   O     O_3   0.500000 0.500000 0.749960 -0.434586
O24   O     O_R   0.853820 0.085440 0.780400 -0.549186
O25   O     O_R   0.853820 0.085440 0.219600 -0.549186
O26   O     O_R   0.146180 0.085440 0.780400 -0.548753
O27   O     O_R   0.646180 0.585440 0.719600 -0.549186
O28   O     O_R   0.353820 0.585440 0.280400 -0.548754
O29   O     O_R   0.353820 0.585440 0.719600 -0.548754
O30   O     O_R   0.646180 0.585440 0.280400 -0.549186
O31   O     O_R   0.939280 0.999970 0.134160 -0.549090
O32   O     O_R   0.060720 0.999970 0.865840 -0.549097
O33   O     O_R   0.060720 0.999970 0.134160 -0.549097
O34   O     O_3   0.500000 0.500000 0.250040 -0.434586
O35   O     O_R   0.939280 0.999970 0.865840 -0.549090
O36   O     O_R   0.439280 0.499970 0.634160 -0.549097
O37   O     O_R   0.560720 0.499970 0.365840 -0.549089
O38   O     O_R   0.560720 0.499970 0.634160 -0.549089
O39   O     O_R   0.439280 0.499970 0.365840 -0.549097
O40   O     O_R   0.000000 0.060760 0.365770 -0.548706
O41   O     O_R   0.000000 0.060760 0.634230 -0.548711
O42   O     O_R   0.500000 0.560760 0.865770 -0.548702
O43   O     O_R   0.500000 0.560760 0.134230 -0.548703
O44   O     O_R   0.000000 0.939310 0.365780 -0.542172
O45   O     O_R   0.914520 0.146190 0.280310 -0.545846
O46   O     O_R   0.000000 0.939310 0.634220 -0.542170
O47   O     O_R   0.500000 0.439310 0.865780 -0.542168
O48   O     O_R   0.500000 0.439310 0.134220 -0.542168
O49   O     O_R   0.085480 0.146190 0.719690 -0.553739
O50   O     O_R   0.085480 0.146190 0.280310 -0.553738
O51   O     O_R   0.914520 0.146190 0.719690 -0.545846
O52   O     O_R   0.414520 0.646190 0.780310 -0.553735
Zn1   Zn    Zn3+2 0.000000 0.913250 0.293350 0.932158
Zn2   Zn    Zn3+2 0.586770 0.499990 0.293420 0.932322
Zn3   Zn    Zn3+2 0.586770 0.499990 0.706580 0.932322
Zn4   Zn    Zn3+2 0.413230 0.499990 0.293420 0.928979
Zn5   Zn    Zn3+2 0.000000 0.086780 0.293330 0.928893
Zn6   Zn    Zn3+2 0.000000 0.086780 0.706670 0.928892
Zn7   Zn    Zn3+2 0.500000 0.586780 0.793330 0.928895
Zn8   Zn    Zn3+2 0.500000 0.586780 0.206670 0.928895
Zn9   Zn    Zn3+2 1.000000 0.913250 0.706650 0.932159
Zn10  Zn    Zn3+2 0.500000 0.413250 0.793350 0.932159
Zn11  Zn    Zn3+2 0.500000 0.413250 0.206650 0.932159
Zn12  Zn    Zn3+2 0.913230 0.999990 0.206580 0.932323
Zn13  Zn    Zn3+2 0.086770 0.999990 0.793420 0.928980
Zn14  Zn    Zn3+2 0.086770 0.999990 0.206580 0.928980
Zn15  Zn    Zn3+2 0.913230 0.999990 0.793420 0.932323
Zn16  Zn    Zn3+2 0.413230 0.499990 0.706580 0.928979

loop_
_geom_bond_atom_site_label_1
_geom_bond_atom_site_label_2
_ccdc_geom_bond_type
O8    Zn9   S    
C58   C62   A    
C89   H44   S    
C5    C103  A    
O1    Zn1   S    
C64   H41   S    
C28   O50   A    
C80   O33   A    
C57   C79   S    
C93   H45   S    
C18   C26   A    
C62   H39   S    
C90   H46   S    
C1    O45   A    
O34   Zn11  S    
C39   O24   A    
O7    Zn1   S    
C48   C57   A    
C9    H4    S    
O34   Zn8   S    
C78   O11   A    
C72   O3    A    
C13   C18   A    
C89   C99   A    
O21   Zn4   S    
C6    H23   S    
C13   H8    S    
C3    C7    A    
C74   O7    A    
C55   C77   S    
C9    C22   A    
C66   C69   A    
C13   C57   A    
C86   C103  S    
C84   O39   A    
O2    Zn8   S    
C98   C103  A    
O4    Zn8   S    
O23   Zn3   S    
O52   Zn7   S    
C56   C78   S    
C31   C40   A    
C30   C38   A    
O24   Zn15  S    
C35   H21   S    
C32   C45   A    
O19   Zn2   S    
C87   O47   A    
C37   C42   A    
C43   H29   S    
O34   Zn4   S    
C81   O35   A    
C60   H38   S    
C91   C96   A    
O1    Zn12  S    
C11   C15   A    
C3    C100  A    
C96   H50   S    
C83   O4    A    
C12   C16   A    
C19   H14   S    
C35   C48   A    
O29   Zn16  S    
C4    C102  A    
C46   C55   A    
C92   H48   S    
C63   H40   S    
C6    C104  A    
O12   Zn9   S    
C19   C27   A    
O12   Zn13  S    
O11   Zn10  S    
C48   H35   S    
C25   C34   A    
O31   Zn12  S    
C37   H24   S    
C59   C67   A    
O32   Zn13  S    
O12   Zn6   S    
O38   Zn3   S    
O6    Zn9   S    
C88   O43   A    
C59   C60   A    
C93   C95   A    
C11   H6    S    
C73   O17   A    
C33   C46   A    
C36   C41   A    
C53   C75   S    
C91   C101  A    
C70   C82   S    
O42   Zn7   S    
C17   O26   A    
C82   O38   A    
C41   C49   A    
O15   Zn13  S    
C92   C97   A    
O28   Zn4   S    
O14   Zn12  S    
C20   C29   A    
C44   H30   S    
C45   H31   S    
O3    Zn7   S    
C22   C31   A    
O48   Zn11  S    
C2    C20   A    
O43   Zn8   S    
C38   H25   S    
C32   H18   S    
C8    C52   A    
C90   C95   A    
O18   Zn16  S    
O36   Zn16  S    
C10   C14   A    
C41   H27   S    
C1    O25   A    
O33   Zn14  S    
C77   O10   A    
O5    Zn1   S    
C2    H2    S    
O51   Zn6   S    
C77   O21   A    
C38   C43   A    
C39   O51   A    
C75   O8    A    
C95   H49   S    
C14   C23   A    
C73   O6    A    
C20   H15   S    
C74   O14   A    
C79   O19   A    
C51   C73   S    
C85   O44   A    
O46   Zn9   S    
C63   C70   A    
C76   O20   A    
C84   O37   A    
C96   C97   A    
C47   H33   S    
O25   Zn12  S    
C8    C21   A    
C44   C53   A    
C15   H10   S    
C76   O9    A    
C64   C69   A    
C88   O48   A    
C18   H13   S    
O45   Zn5   S    
C66   H43   S    
C12   C56   A    
C19   C94   A    
O9    Zn10  S    
C54   C76   S    
C62   C67   A    
O50   Zn5   S    
C58   C68   A    
C15   C24   A    
O13   Zn11  S    
O49   Zn6   S    
C67   C81   S    
C101  C104  A    
O30   Zn2   S    
O23   Zn10  S    
C75   O15   A    
C1    C26   S    
C49   C94   A    
C86   O46   A    
C9    C53   A    
C31   C50   S    
O23   Zn7   S    
C68   C80   S    
O17   Zn15  S    
C8    H3    S    
O35   Zn15  S    
C11   C55   A    
C92   C100  A    
C22   H17   S    
C78   O18   A    
C21   C30   A    
C58   H36   S    
C16   C25   A    
C40   H26   S    
O26   Zn13  S    
C34   H20   S    
C81   O32   A    
O47   Zn10  S    
C82   O36   A    
C3    C88   S    
O1    Zn5   S    
C36   H22   S    
C24   C28   S    
C72   O27   A    
C43   C52   A    
C4    C5    A    
C45   C54   A    
C7    H34   S    
C42   H28   S    
C85   O40   A    
C6    C7    A    
C10   H5    S    
C27   C36   A    
C21   H16   S    
C14   H9    S    
C4    H1    S    
C42   C51   A    
C52   C74   S    
O44   Zn1   S    
O20   Zn3   S    
C71   O5    A    
O23   Zn16  S    
C60   C68   A    
C17   C25   S    
C16   H11   S    
C29   C72   S    
C17   O49   A    
O34   Zn2   S    
O39   Zn4   S    
C5    H12   S    
C69   C84   S    
C61   O2    A    
C23   C32   A    
C91   H47   S    
O40   Zn5   S    
C79   O13   A    
O37   Zn2   S    
O1    Zn14  S    
C28   O22   A    
C23   C39   S    
C64   C65   A    
C27   C83   S    
C61   O30   A    
C80   O31   A    
C83   O28   A    
C97   H51   S    
C89   C93   A    
C10   C54   A    
C63   C66   A    
O16   Zn14  S    
C2    C51   A    
C85   C102  S    
C86   O41   A    
C46   H32   S    
C87   C104  S    
C26   C35   A    
C40   C44   A    
C99   C102  A    
C59   H37   S    
C94   H52   S    
C98   C99   A    
C49   C71   S    
C30   C61   S    
C29   C37   A    
C33   H19   S    
C71   O16   A    
O22   Zn14  S    
C100  C101  A    
C34   C47   A    
O12   Zn15  S    
C87   O42   A    
C65   H42   S    
C50   O29   A    
O27   Zn3   S    
O10   Zn11  S    
C90   C98   A    
C12   H7    S    
O41   Zn6   S    
C65   C70   A    
C24   C33   A    
C47   C56   A    
C50   O52   A    
