data_mof_unit_47272.cif
_audit_creation_date              2013-03-05T15:58:18-0500
_audit_creation_method            fapswitch 2.2
_symmetry_space_group_name_H-M    P1
_symmetry_Int_Tables_number       1
_space_group_crystal_system       triclinic
_cell_length_a                    12.583034
_cell_length_b                    13.209559
_cell_length_c                    15.294758
_cell_angle_alpha                 82.994204
_cell_angle_beta                  99.512639
_cell_angle_gamma                 96.532468
_cell_volume                      2477.15611711

loop_
_atom_site_label
_atom_site_type_symbol
_atom_site_description
_atom_site_fract_x
_atom_site_fract_y
_atom_site_fract_z
_atom_type_partial_charge
O1    O     O_R   0.374950 0.371210 0.521360 -0.619924
O2    O     O_R   0.542050 0.338030 0.492790 -0.601032
C1    C     C_R   0.443557 0.308700 0.509367 0.890717
O3    O     O_R   0.368720 0.526070 0.390200 -0.620840
O4    O     O_R   0.535820 0.492890 0.361630 -0.590152
C2    C     C_R   0.435125 0.515425 0.335348 0.952263
Zn1   Zn    Zn3+2 0.388420 0.522150 0.519080 1.010225
Zn2   Zn    Zn3+2 0.611580 0.477850 0.480920 0.947288
O5    O     O_R   0.457950 0.661970 0.507210 -0.562405
O6    O     O_R   0.625050 0.628790 0.478640 -0.647318
O7    O     O_R   0.464180 0.507110 0.638370 -0.551855
O8    O     O_R   0.631280 0.473930 0.609800 -0.650950
C3    C     C_R   0.555871 0.691357 0.488920 0.879970
C4    C     C_R   0.566220 0.489196 0.664458 0.924057
C5    C     C_R   0.402355 0.544929 0.240001 -0.272204
C6    C     C_R   0.610963 0.485840 0.759616 -0.206565
C7    C     C_R   0.374090 0.693417 0.132058 -0.098743
C8    C     C_R   0.354080 0.637629 0.211747 0.340257
C9    C     C_R   0.450974 0.500260 0.179955 0.226158
C10   C     C_R   0.484480 0.563187 0.105859 -0.094210
C11   C     C_R   0.441809 0.659289 0.080080 -0.031955
C12   C     C_R   0.558241 0.532905 0.055972 0.115506
C13   C     C_R   0.563008 0.581421 0.969465 0.060808
C14   C     C_R   0.526805 0.679620 0.947559 -0.232984
C15   C     C_R   0.467158 0.719605 0.002707 0.469190
C16   C     C_R   0.631337 0.459644 0.091030 -0.151599
C17   C     C_R   0.692980 0.423199 0.036321 -0.126820
C18   C     C_R   0.675807 0.452413 0.944187 0.072917
C19   C     C_R   0.605854 0.529921 0.909043 -0.081504
C20   C     C_R   0.723556 0.402231 0.886830 0.472884
C21   C     C_R   0.690802 0.419924 0.794642 -0.368619
C22   C     C_R   0.571714 0.544757 0.815706 0.273019
H1    H     H_    0.722975 0.377195 0.750453 0.174072
H2    H     H_    0.747720 0.366281 0.065504 0.204839
H3    H     H_    0.338552 0.765303 0.112493 0.233149
H4    H     H_    0.547629 0.727185 0.889081 0.182557
H5    H     H_    0.642449 0.431264 0.161047 0.163266
C23   C     C_R   0.722936 0.928439 0.548433 -0.189222
H6    H     H_    0.757324 0.775875 0.541511 0.168537
H7    H     H_    0.734636 0.099260 0.624586 0.147827
H8    H     H_    0.802074 0.947922 0.585892 0.153310
C24   C     C_R   0.591373 0.799845 0.485319 -0.139882
C25   C     C_R   0.306176 0.184249 0.441906 -0.260907
C26   C     C_R   0.292791 0.105955 0.387122 -0.103125
C27   C     C_R   0.376472 0.044623 0.389083 0.554837
C28   C     C_R   0.465587 0.047013 0.460603 -0.042323
C29   C     C_R   0.481127 0.130077 0.512821 0.035622
C30   C     C_R   0.541462 0.972587 0.480818 0.024959
C31   C     C_R   0.643004 0.996386 0.534289 0.117267
C32   C     C_R   0.659877 0.082999 0.579903 -0.197298
C33   C     C_R   0.576631 0.144285 0.574795 -0.146140
C34   C     C_R   0.514506 0.871476 0.459272 0.350025
C35   C     C_R   0.697521 0.830567 0.522760 -0.221542
C36   C     C_R   0.405023 0.202744 0.497299 -0.106702
H9    H     H_    0.246644 0.239524 0.430317 0.193670
H10   H     H_    0.222738 0.101127 0.335547 0.186306
H11   H     H_    0.588987 0.205471 0.617641 0.144484
C37   C     C_R   0.139076 0.654527 0.610857 -0.275213
H12   H     H_    0.311923 0.668074 0.625013 0.205807
H13   H     H_    0.940917 0.678540 0.635589 0.157147
H14   H     H_    0.137371 0.712778 0.654624 0.164336
N1    N     N_R   0.239390 0.551900 0.544730 -0.121682
C38   C     C_R   0.756446 0.381181 0.394911 -0.085095
C39   C     C_R   0.849156 0.368606 0.361124 -0.237061
C40   C     C_R   0.946178 0.424691 0.390876 0.440918
C41   C     C_R   0.951542 0.485047 0.463277 -0.115380
C42   C     C_R   0.853316 0.500228 0.490813 0.192908
C43   C     C_R   0.048426 0.530710 0.509455 -0.005443
C44   C     C_R   0.044097 0.604278 0.569147 0.187975
C45   C     C_R   0.945331 0.624131 0.588940 -0.267578
C46   C     C_R   0.851610 0.569461 0.552921 -0.176721
C47   C     C_R   0.149904 0.501572 0.503558 -0.074611
C48   C     C_R   0.237196 0.628300 0.595787 0.128686
N2    N     N_R   0.759950 0.448600 0.455730 -0.130084
H15   H     H_    0.160557 0.438562 0.468243 0.180962
H16   H     H_    0.679785 0.342003 0.368505 0.196213
H17   H     H_    0.844034 0.320793 0.307589 0.184358
H18   H     H_    0.778841 0.582838 0.574943 0.211144
O9    O     O_3   0.430672 0.815719 0.981004 -0.753227
H19   H     H_    0.454636 0.847055 0.924354 0.349655
O10   O     O_3   0.797367 0.332444 0.922162 -0.757469
H20   H     H_    0.822484 0.304104 0.872844 0.342269
O11   O     O_3   0.408899 0.839852 0.425577 -0.707086
H21   H     H_    0.410720 0.789630 0.382802 0.371542
O12   O     O_3   0.374535 0.994859 0.314515 -0.695742
H22   H     H_    0.450193 0.986322 0.308561 0.338426
N3    N     N_R   0.488723 0.610465 0.778210 0.190962
O13   O     O_R   0.390652 0.587615 0.795989 -0.389003
O14   O     O_R   0.509621 0.689420 0.721789 -0.439904
O15   O     O_3   0.028592 0.426577 0.341465 -0.769388
H23   H     H_    0.064279 0.497524 0.337076 0.331261
O16   O     O_3   0.290876 0.678425 0.261409 -0.736616
H24   H     H_    0.247218 0.620916 0.290540 0.359635
N4    N     N_R   0.450596 0.389909 0.186947 0.205258
O17   O     O_R   0.428917 0.343377 0.114880 -0.343761
O18   O     O_R   0.450465 0.334379 0.263303 -0.411567

loop_
_geom_bond_atom_site_label_1
_geom_bond_atom_site_label_2
_geom_bond_distance
_ccdc_geom_bond_type
C5    C8    1.417258 A    
C41   C43   1.414516 A    
N3    O13   1.301542 A    
C39   H17   1.083030 S    
C9    C10   1.414717 A    
O10   H20   0.991781 S    
C23   C31   1.396458 A    
H6    C35   1.082721 S    
O12   H22   0.991419 S    
C6    C21   1.400621 A    
Zn1   O7    1.912293 S    
C16   C17   1.389739 A    
C14   H4    1.079954 S    
C13   C19   1.417385 A    
C18   C19   1.423518 A    
C19   C22   1.417440 A    
O3    Zn1   1.940677 S    
C24   C35   1.398990 A    
O4    C2    1.320560 A    
O7    C4    1.319303 A    
C38   H16   1.081704 S    
O5    C3    1.313668 A    
C2    C5    1.465523 S    
C5    C9    1.402107 A    
C43   C44   1.423310 A    
C13   C14   1.407259 A    
C21   H1    1.083847 S    
N1    C48   1.354543 A    
C45   C46   1.379960 A    
C33   H11   1.083433 S    
H12   C48   1.079801 S    
C43   C47   1.394683 A    
C37   H14   1.083890 S    
C41   C42   1.412195 A    
O1    Zn1   1.978253 S    
N4    O17   1.301888 A    
C47   H15   1.077719 S    
C3    C24   1.448966 S    
C32   C33   1.381742 A    
C17   H2    1.083190 S    
C40   O15   1.376855 S    
C28   C30   1.419697 A    
C14   C15   1.400668 A    
C23   H8    1.084057 S    
O3    C2    1.307297 A    
C29   C33   1.411884 A    
C27   C28   1.431743 A    
C22   N3    1.435144 S    
C7    C11   1.400019 A    
C38   C39   1.385571 A    
O1    C1    1.308522 A    
C34   O11   1.380519 S    
C27   O12   1.379676 S    
C25   C26   1.387524 A    
Zn1   N1    2.067211 S    
C26   H10   1.083045 S    
C25   C36   1.399119 A    
O11   H21   0.991443 S    
H13   C45   1.084426 S    
Zn2   O8    1.940677 S    
Zn2   N2    2.054605 S    
C7    C8    1.390010 A    
N1    C47   1.343064 A    
C16   H5    1.082312 S    
C42   N2    1.353458 A    
N4    O18   1.301274 A    
C9    N4    1.448053 S    
C29   C36   1.404718 A    
C25   H9    1.083827 S    
C30   C31   1.423428 A    
C10   C12   1.413019 A    
C31   C32   1.389712 A    
N3    O14   1.301786 A    
C4    C6    1.468427 S    
C26   C27   1.394176 A    
Zn1   O5    1.952614 S    
C11   C15   1.404960 A    
C28   C29   1.411863 A    
C15   O9    1.382885 S    
O2    Zn2   1.952614 S    
O8    C4    1.309433 A    
O6    C3    1.306208 A    
O4    Zn2   1.912293 S    
C37   C44   1.395225 A    
C38   N2    1.356453 A    
C6    C22   1.405683 A    
C8    O16   1.377265 S    
C39   C40   1.392552 A    
C20   O10   1.382691 S    
C18   C20   1.405947 A    
O2    C1    1.311866 A    
O15   H23   0.991624 S    
C20   C21   1.400727 A    
C23   C35   1.384254 A    
H7    C32   1.084177 S    
O16   H24   0.990339 S    
C1    C36   1.451604 S    
C42   C46   1.400839 A    
C44   C45   1.386649 A    
O9    H19   0.991715 S    
C30   C34   1.405309 A    
C10   C11   1.420674 A    
Zn2   O6    1.978251 S    
C40   C41   1.429979 A    
C12   C16   1.408174 A    
C17   C18   1.402516 A    
C12   C13   1.405541 A    
C7    H3    1.083649 S    
C46   H18   1.066005 S    
C37   C48   1.381446 A    
C24   C34   1.406576 A    
