data_mof_unit_16782.cif
_audit_creation_date              2013-03-05T16:47:25-0500
_audit_creation_method            fapswitch 2.2
_symmetry_space_group_name_H-M    P1
_symmetry_Int_Tables_number       1
_space_group_crystal_system       triclinic
_cell_length_a                    10.840361
_cell_length_b                    8.92624
_cell_length_c                    8.1913
_cell_angle_alpha                 90.733996
_cell_angle_beta                  88.292217
_cell_angle_gamma                 90.482376
_cell_volume                      792.177511745

loop_
_atom_site_label
_atom_site_type_symbol
_atom_site_description
_atom_site_fract_x
_atom_site_fract_y
_atom_site_fract_z
_atom_type_partial_charge
O1    O     O_R   0.500000 0.285340 0.636850 -0.620287
O2    O     O_R   0.500000 0.285340 0.363150 -0.586283
C1    C     C_R   0.498568 0.218264 0.499381 0.924525
O3    O     O_R   0.314790 0.499970 0.636880 -0.593101
O4    O     O_R   0.314790 0.499970 0.363120 -0.589362
O5    O     O_R   0.685210 0.499970 0.636880 -0.594399
O6    O     O_R   0.685210 0.499970 0.363120 -0.547114
N1    N     N_1   0.500000 0.500030 0.073640 0.013879
N2    N     N_1   0.500000 0.500030 0.926360 0.034542
C2    C     C_R   0.257818 0.504776 0.502134 0.966329
C3    C     C_R   0.743103 0.502890 0.499606 0.919688
Zn1   Zn    Zn3+2 0.500000 0.499990 0.682780 1.079202
Zn2   Zn    Zn3+2 0.500000 0.499990 0.317220 1.082239
O7    O     O_R   0.500000 0.714650 0.636900 -0.616907
O8    O     O_R   0.500000 0.714650 0.363100 -0.655549
C4    C     C_R   0.490997 0.781084 0.501046 0.873880
C5    C     C_1   0.493642 0.065079 0.499239 -0.155844
C6    C     C_3   0.068904 0.500860 0.686500 0.006915
C7    C     C_3   0.073268 0.366677 0.414015 -0.002663
C8    C     C_3   0.927441 0.477864 0.682109 0.025843
C9    C     C_3   0.932593 0.378178 0.393490 -0.038404
H1    H     H_    0.105248 0.394414 0.736279 0.140281
H2    H     H_    0.084250 0.273738 0.502142 0.063138
H3    H     H_    0.914332 0.354351 0.695907 0.101232
H4    H     H_    0.891325 0.272690 0.444047 0.081290
C10   C     C_1   0.490550 0.934468 0.501271 -0.191083
C11   C     C_3   0.078821 0.666129 0.426166 0.798486
C12   C     C_3   0.930328 0.671923 0.442356 0.810102
C13   C     C_3   0.122321 0.512510 0.504285 -0.351174
C14   C     C_3   0.880152 0.512041 0.503027 -0.346705
N3    N     N_R   0.111533 0.618962 0.800057 0.318483
O9    O     O_R   0.198380 0.587064 0.898849 -0.346472
O10   O     O_R   0.067366 0.753817 0.806376 -0.273877
N4    N     N_R   0.143428 0.314519 0.266373 0.274557
O11   O     O_R   0.201703 0.187983 0.269601 -0.469730
O12   O     O_R   0.162905 0.398453 0.140078 -0.237662
N5    N     N_R   0.856810 0.539548 0.824646 0.317057
O13   O     O_R   0.783298 0.449759 0.906460 -0.304624
O14   O     O_R   0.849990 0.681664 0.858170 -0.306847
N6    N     N_R   0.897808 0.380040 0.222512 0.304008
O15   O     O_R   0.833363 0.268987 0.164170 -0.378999
O16   O     O_R   0.944813 0.478209 0.122881 -0.195235
O17   O     O_3   0.137992 0.782150 0.520074 -0.633421
C15   C     C_3   0.113660 0.933051 0.482166 -0.172497
H5    H     H_    0.091885 0.950793 0.353932 0.151340
H6    H     H_    0.198517 0.998968 0.505975 0.190484
H7    H     H_    0.041432 0.981075 0.565253 0.218690
O18   O     O_3   0.115997 0.667954 0.256322 -0.582779
C16   C     C_3   0.225580 0.749334 0.212714 -0.012801
H8    H     H_    0.288117 0.677362 0.138325 0.219654
H9    H     H_    0.282096 0.788340 0.314633 0.134555
H10   H     H_    0.202153 0.846146 0.136311 0.162413
O19   O     O_3   0.897454 0.782602 0.563490 -0.609097
C17   C     C_3   0.776324 0.840084 0.559475 -0.209345
H11   H     H_    0.723927 0.804743 0.452264 0.157366
H12   H     H_    0.781773 0.964272 0.560624 0.148404
H13   H     H_    0.723057 0.807729 0.670658 0.228556
O20   O     O_3   0.875753 0.699272 0.287699 -0.592932
C18   C     C_3   0.894149 0.843250 0.219851 -0.065809
H14   H     H_    0.976828 0.845531 0.137471 0.225134
H15   H     H_    0.896525 0.936131 0.310057 0.106032
H16   H     H_    0.814637 0.866357 0.142132 0.202695

loop_
_geom_bond_atom_site_label_1
_geom_bond_atom_site_label_2
_geom_bond_distance
_ccdc_geom_bond_type
C11   O18   1.437113 S    
N1    N2    1.206414 T    
C7    H2    1.116080 S    
O17   C15   1.414896 S    
N3    O10   1.299058 A    
C17   H12   1.109548 S    
N1    Zn2   1.995241 S    
C12   O20   1.438580 S    
O3    Zn1   2.053627 S    
C9    C14   1.584163 S    
O4    Zn2   2.031601 S    
N3    O9    1.295406 A    
C15   H7    1.107440 S    
C12   O19   1.430848 S    
C16   H10   1.109050 S    
N6    O16   1.295977 A    
O2    C1    1.272760 A    
C18   H14   1.105924 S    
N5    O14   1.296750 A    
C6    C13   1.589141 S    
C8    C14   1.602061 S    
O19   C17   1.415241 S    
C17   H13   1.104019 S    
O6    C3    1.298176 A    
C8    N5    1.479853 S    
O1    Zn1   1.947871 S    
C2    C13   1.470611 S    
N5    O13   1.302965 A    
C9    N6    1.461555 S    
C5    C10   1.166382 T    
O1    C1    1.268984 A    
O4    C2    1.279525 A    
N6    O15   1.301991 A    
C7    C9    1.543595 S    
C15   H6    1.108627 S    
C1    C5    1.367945 S    
N4    O12   1.296265 A    
Zn2   O8    1.947885 S    
O5    Zn1   2.031602 S    
N2    Zn1   1.995232 S    
O7    C4    1.274330 A    
C18   H15   1.104130 S    
C11   C13   1.601084 S    
O3    C2    1.282114 A    
O8    C4    1.270912 A    
C7    C13   1.584664 S    
C11   O17   1.439969 S    
O6    Zn2   2.053630 S    
C15   H5    1.097184 S    
C6    C8    1.546893 S    
N4    O11   1.299734 A    
O5    C3    1.271747 A    
C16   H8    1.102860 S    
O2    Zn2   1.957329 S    
C9    H4    1.118091 S    
C17   H11   1.101363 S    
O18   C16   1.425918 S    
C18   H16   1.108966 S    
C6    N3    1.477308 S    
C16   H9    1.101359 S    
O20   C18   1.416938 S    
C6    H1    1.118077 S    
C7    N4    1.481391 S    
C8    H3    1.117184 S    
C3    C14   1.488293 S    
Zn1   O7    1.957333 S    
C12   C14   1.602678 S    
C11   C12   1.612434 S    
C4    C10   1.369163 S    
