data_mof_unit_26012.cif
_audit_creation_date              2012-12-10T17:15:54-0500
_audit_creation_method            fapswitch 2.2
_symmetry_space_group_name_H-M    P1
_symmetry_Int_Tables_number       1
_space_group_crystal_system       triclinic
_cell_length_a                    18.57887
_cell_length_b                    18.445626
_cell_length_c                    42.861864
_cell_angle_alpha                 90.094596
_cell_angle_beta                  89.968434
_cell_angle_gamma                 89.94237
_cell_volume                      14688.6834175

loop_
_atom_site_label
_atom_site_type_symbol
_atom_type_description
_atom_site_fract_x
_atom_site_fract_y
_atom_site_fract_z
_atom_type_partial_charge
C1    C     C_R   0.999943 0.500277 0.915820 0.869733
C2    C     C_R   0.947624 0.461122 0.667518 -0.268879
C3    C     C_R   0.141619 0.175553 0.434400 0.147619
C4    C     C_R   0.166595 0.111543 0.448058 0.121692
C5    C     C_R   0.123488 0.833406 0.443295 0.109780
C6    C     C_R   0.830952 0.882501 0.444899 0.127758
C7    C     C_R   0.867293 0.171944 0.438049 0.098886
C8    C     C_R   0.308782 0.740658 0.979714 0.003590
C9    C     C_R   0.265495 0.318299 0.986102 -0.001759
C10   C     C_R   0.691774 0.258829 0.979554 0.004189
C11   C     C_R   0.734207 0.681099 0.986817 -0.000199
C12   C     C_R   0.691632 0.741642 0.979359 -0.009988
C13   C     C_R   0.530346 0.943024 0.667646 -0.298801
C14   C     C_R   0.755235 0.298382 0.974045 -0.024075
C15   C     C_R   0.308144 0.257512 0.978764 -0.010220
C16   C     C_R   0.245351 0.701005 0.974249 -0.023557
C17   C     C_R   0.808998 0.240568 0.479847 0.005691
C18   C     C_R   0.762960 0.814793 0.483709 0.001343
C19   C     C_R   0.187853 0.761880 0.482221 0.001713
C20   C     C_R   0.235445 0.183120 0.485242 0.001301
C21   C     C_R   0.193787 0.244411 0.477833 0.006524
C22   C     C_R   0.250330 0.802060 0.475829 -0.011405
C23   C     C_R   0.803843 0.752702 0.476751 0.004236
C24   C     C_R   0.047803 0.544911 0.667453 -0.274380
C25   C     C_R   0.745669 0.200807 0.474316 -0.023356
C26   C     C_R   0.191784 0.700360 0.997713 -0.246040
C27   C     C_R   0.301289 0.194347 0.997591 -0.246338
C28   C     C_R   0.808899 0.298962 0.997403 -0.240377
C29   C     C_R   0.698508 0.805213 0.998045 -0.248092
C30   C     C_R   0.800188 0.692496 0.002531 -0.239431
C31   C     C_R   0.694747 0.198799 0.000412 -0.259246
C32   C     C_R   0.199923 0.307498 0.002325 -0.243148
C33   C     C_R   0.305692 0.800759 0.000614 -0.259047
C34   C     C_R   0.691796 0.200405 0.497660 -0.241722
C35   C     C_R   0.008756 0.501910 0.184027 -0.027716
C36   C     C_R   0.800487 0.693211 0.497665 -0.242743
C37   C     C_R   0.307542 0.799885 0.497702 -0.242957
C38   C     C_R   0.199434 0.306543 0.497334 -0.245594
C39   C     C_R   0.300294 0.192994 0.502130 -0.244784
C40   C     C_R   0.193811 0.699383 0.501352 -0.252918
C41   C     C_R   0.699813 0.806998 0.502040 -0.250469
C42   C     C_R   0.805781 0.300743 0.500690 -0.258020
C43   C     C_R   0.193891 0.753087 0.021549 0.352255
C44   C     C_R   0.240769 0.187479 0.017299 0.318308
C45   C     C_R   0.807347 0.245617 0.020922 0.344946
C46   C     C_R   0.501313 0.996641 0.183841 -0.033066
C47   C     C_R   0.758657 0.812105 0.018086 0.354272
C48   C     C_R   0.813809 0.760417 0.016242 0.335087
C49   C     C_R   0.757179 0.189231 0.018792 0.358665
C50   C     C_R   0.186330 0.239795 0.016168 0.355882
C51   C     C_R   0.243497 0.809876 0.019244 0.360324
C52   C     C_R   0.693861 0.253141 0.521478 0.344821
C53   C     C_R   0.743781 0.690130 0.519609 0.314831
C54   C     C_R   0.308522 0.744541 0.520409 0.345599
C55   C     C_R   0.259133 0.312779 0.517545 0.317263
C56   C     C_R   0.313608 0.260411 0.516389 0.355507
C57   C     C_R   0.501229 0.001929 0.683867 -0.019365
C58   C     C_R   0.257977 0.688320 0.518398 0.355527
C59   C     C_R   0.688352 0.741540 0.518225 0.365027
C60   C     C_R   0.743759 0.309744 0.519421 0.359753
C61   C     C_R   0.973379 0.559326 0.135410 0.401352
C62   C     C_R   0.450004 0.955982 0.134559 0.409770
C63   C     C_R   0.035239 0.442163 0.134628 0.420964
C64   C     C_R   0.552580 0.038789 0.134907 0.407226
C65   C     C_R   0.471940 0.060759 0.634761 0.418024
C66   C     C_R   0.947998 0.459665 0.634832 0.406287
C67   C     C_R   0.528664 0.940549 0.634939 0.418018
C68   C     C_R   0.997329 0.503597 0.683899 -0.035636
C69   C     C_R   0.049625 0.543484 0.634761 0.406073
C70   C     C_3   0.174119 0.740808 0.074296 0.114587
C71   C     C_3   0.180433 0.659161 0.080342 -0.380166
C72   C     C_3   0.205638 0.643955 0.113565 -0.971464
C73   C     C_3   0.238136 0.138250 0.066018 0.151092
C74   C     C_3   0.208695 0.074152 0.084472 -0.323119
C75   C     C_3   0.219750 0.084674 0.119447 -1.005672
C76   C     C_3   0.828797 0.253498 0.073827 0.128580
C77   C     C_3   0.846804 0.329239 0.086026 -0.344317
C78   C     C_3   0.821399 0.339411 0.119604 -0.991498
C79   C     C_R   0.002781 0.500450 0.118531 -0.200884
C80   C     C_3   0.773589 0.859337 0.067709 0.114221
C81   C     C_3   0.699261 0.865263 0.082904 -0.342902
C82   C     C_3   0.703242 0.852364 0.118010 -0.999128
C83   C     C_3   0.915716 0.828026 0.008353 0.122058
C84   C     C_3   0.984403 0.795222 0.994744 -0.308059
C85   C     C_3   0.018597 0.846450 0.971189 -1.041500
C86   C     C_3   0.822893 0.084283 0.022245 0.112269
C87   C     C_3   0.793695 0.038673 0.994974 -0.317502
C88   C     C_3   0.853528 0.000637 0.976909 -0.993958
C89   C     C_3   0.083781 0.172332 0.009615 0.125539
C90   C     C_R   0.500653 0.998467 0.118314 -0.201699
C91   C     C_3   0.016204 0.205777 0.995374 -0.320046
C92   C     C_3   0.981386 0.153841 0.972217 -1.035822
C93   C     C_3   0.176572 0.914065 0.022059 0.102599
C94   C     C_3   0.206217 0.960579 0.995253 -0.314605
C95   C     C_3   0.146748 0.999541 0.977423 -0.985482
C96   C     C_3   0.674887 0.241523 0.574356 0.127597
C97   C     C_3   0.658768 0.164251 0.585118 -0.349205
C98   C     C_3   0.686430 0.150884 0.618120 -0.990676
C99   C     C_3   0.750313 0.653923 0.570599 0.148676
C100  C     C_3   0.712919 0.601388 0.592791 -0.330915
C101  C     C_R   0.500152 0.000372 0.618449 -0.195892
C102  C     C_3   0.726877 0.621351 0.626807 -0.993892
C103  C     C_3   0.337162 0.747819 0.572746 0.116127
C104  C     C_3   0.341967 0.826953 0.583335 -0.353228
C105  C     C_3   0.315360 0.836317 0.616777 -0.984571
C106  C     C_3   0.262050 0.360425 0.566746 0.154831
C107  C     C_3   0.298786 0.420077 0.585595 -0.328061
C108  C     C_3   0.289640 0.407778 0.620560 -1.000954
C109  C     C_3   0.416297 0.327844 0.510448 0.123534
C110  C     C_3   0.484376 0.294546 0.496484 -0.320597
C111  C     C_3   0.519264 0.346172 0.473291 -1.035833
C112  C     C_R   0.500054 0.999982 0.915679 0.861367
C113  C     C_R   0.999411 0.500789 0.618341 -0.205046
C114  C     C_3   0.325724 0.584278 0.520220 0.107883
C115  C     C_3   0.296877 0.538519 0.493016 -0.322796
C116  C     C_3   0.357682 0.502198 0.474878 -0.988927
C117  C     C_3   0.585040 0.673147 0.520383 0.115736
C118  C     C_3   0.534595 0.702792 0.495145 -0.330229
C119  C     C_3   0.502686 0.641710 0.475573 -1.021633
C120  C     C_3   0.677084 0.413763 0.524600 0.106164
C121  C     C_3   0.704844 0.463414 0.498464 -0.314646
C122  C     C_3   0.643765 0.497914 0.479957 -1.017442
C123  C     C_3   0.971885 0.678298 0.120710 0.095308
C124  C     C_R   0.500177 0.001282 0.781111 0.342721
C125  C     C_3   0.928057 0.734881 0.102949 -0.281199
C126  C     C_3   0.970231 0.804912 0.098137 -0.952629
C127  C     C_3   0.332636 0.921653 0.124084 0.119574
C128  C     C_3   0.296995 0.852265 0.135871 -0.336691
C129  C     C_3   0.216068 0.862608 0.140138 -0.991802
C130  C     C_3   0.043243 0.318770 0.126333 0.043505
C131  C     C_3   0.056472 0.266266 0.099300 -0.232806
C132  C     C_3   0.029828 0.190110 0.106902 -0.982263
C133  C     C_3   0.670988 0.060187 0.121736 0.120892
C134  C     C_3   0.718830 0.122804 0.132418 -0.328130
C135  C     C_R   0.997541 0.504376 0.781338 0.337455
C136  C     C_3   0.797921 0.100397 0.133202 -0.989186
C137  C     C_3   0.464857 0.184574 0.626654 0.043507
C138  C     C_3   0.452386 0.236871 0.599534 -0.231759
C139  C     C_3   0.479279 0.312967 0.607206 -0.983760
C140  C     C_3   0.831064 0.435901 0.620267 0.123163
C141  C     C_3   0.783348 0.374597 0.632326 -0.332832
C142  C     C_3   0.704116 0.396560 0.632339 -0.986667
C143  C     C_3   0.537280 0.815594 0.629834 0.054919
C144  C     C_3   0.546425 0.758699 0.604181 -0.242407
C145  C     C_3   0.523598 0.683737 0.615520 -1.013065
C146  C     C_R   0.009256 0.502293 0.281361 0.340720
C147  C     C_3   0.167602 0.570958 0.623001 0.121637
C148  C     C_3   0.210094 0.637761 0.633212 -0.328568
C149  C     C_3   0.290250 0.620860 0.636060 -0.991613
C150  C     C_3   0.512407 0.188856 0.869836 0.106355
C151  C     C_3   0.570517 0.238328 0.856143 -0.353338
C152  C     C_3   0.538505 0.307980 0.842881 -0.950782
C153  C     C_3   0.816648 0.536899 0.874480 0.126047
C154  C     C_3   0.768368 0.597546 0.862018 -0.350275
C155  C     C_3   0.695057 0.568689 0.851916 -0.979722
C156  C     C_3   0.489551 0.811898 0.869081 0.100054
C157  C     C_R   0.500024 0.997171 0.281251 0.338171
C158  C     C_3   0.432436 0.761663 0.855059 -0.348450
C159  C     C_3   0.465612 0.691933 0.842295 -0.956442
C160  C     C_3   0.181951 0.468901 0.872403 0.126923
C161  C     C_3   0.229708 0.410659 0.857554 -0.353548
C162  C     C_3   0.302879 0.441118 0.848107 -0.981015
C163  C     C_3   0.040850 0.682940 0.374480 0.114435
C164  C     C_3   0.100717 0.731221 0.361507 -0.343032
C165  C     C_3   0.070630 0.801690 0.348181 -0.975670
C166  C     C_3   0.317150 0.030178 0.373297 0.105960
C167  C     C_3   0.266599 0.089252 0.361154 -0.332354
C168  C     C_R   0.010341 0.502108 0.218226 0.340287
C169  C     C_3   0.194180 0.058084 0.351062 -0.928964
C170  C     C_3   0.968046 0.319116 0.371364 0.109409
C171  C     C_3   0.909808 0.270847 0.357109 -0.345578
C172  C     C_3   0.941304 0.200808 0.343821 -0.961898
C173  C     C_3   0.682876 0.964195 0.372325 0.108464
C174  C     C_3   0.730103 0.902329 0.360115 -0.337635
C175  C     C_3   0.802493 0.929967 0.348247 -0.928400
C176  C     C_R   0.500910 0.996541 0.218078 0.338192
C177  C     C_R   0.500884 0.001872 0.718031 0.342954
C178  C     C_R   0.997190 0.504276 0.718150 0.337489
C179  C     C_R   0.522763 0.061790 0.831755 -0.293263
C180  C     C_R   0.499995 0.999896 0.415800 0.868833
C181  C     C_R   0.940200 0.532363 0.832380 -0.285255
C182  C     C_R   0.477643 0.939551 0.831460 -0.291358
C183  C     C_R   0.056585 0.473896 0.831560 -0.283058
C184  C     C_R   0.037845 0.558804 0.332536 -0.282919
C185  C     C_R   0.441587 0.027266 0.331807 -0.284747
C186  C     C_R   0.973835 0.445134 0.331312 -0.282745
C187  C     C_R   0.557684 0.968347 0.331940 -0.287497
C188  C     C_R   0.520479 0.063491 0.864497 0.425936
C189  C     C_R   0.939696 0.530839 0.865152 0.418519
C190  C     C_R   0.480074 0.937131 0.864194 0.425259
C191  C     C_R   0.000519 0.500081 0.415754 0.876712
C192  C     C_R   0.058574 0.473502 0.864312 0.417405
C193  C     C_R   0.034785 0.559563 0.365278 0.417121
C194  C     C_R   0.440286 0.027074 0.364576 0.418570
C195  C     C_R   0.973016 0.442822 0.364024 0.416848
C196  C     C_R   0.559302 0.970156 0.364703 0.421122
C197  C     C_R   0.500233 0.000141 0.881019 -0.210801
C198  C     C_R   0.999472 0.501527 0.881287 -0.204319
C199  C     C_R   0.002755 0.500760 0.381240 -0.211349
C200  C     C_R   0.499916 0.999157 0.381228 -0.206298
C201  C     C_R   0.500101 0.000896 0.815286 -0.029895
C202  C     C_R   0.975918 0.559001 0.168014 -0.275032
C203  C     C_R   0.998035 0.503545 0.815593 -0.027410
C204  C     C_R   0.006998 0.502177 0.315557 -0.032503
C205  C     C_R   0.499674 0.997543 0.315496 -0.028207
C206  C     C_R   0.000229 0.500093 0.084151 0.869957
C207  C     C_R   0.500100 0.999750 0.084023 0.887141
C208  C     C_R   0.499967 0.000062 0.584115 0.872656
C209  C     C_R   0.999911 0.499988 0.584032 0.881957
C210  C     C_R   0.858502 0.638556 0.000988 0.852190
C211  C     C_R   0.361030 0.858406 0.000504 0.852865
C212  C     C_R   0.141589 0.361525 0.000978 0.853776
C213  C     C_R   0.451137 0.955116 0.167298 -0.279104
C214  C     C_R   0.639025 0.141511 0.000479 0.852384
C215  C     C_R   0.138409 0.641644 0.999117 0.840555
C216  C     C_R   0.641287 0.860845 0.999068 0.844564
C217  C     C_R   0.861739 0.358238 0.999049 0.840995
C218  C     C_R   0.358614 0.138940 0.998948 0.841887
C219  C     C_R   0.358428 0.138612 0.500950 0.855327
C220  C     C_R   0.861103 0.358364 0.500549 0.853606
C221  C     C_R   0.641692 0.861501 0.500973 0.849991
C222  C     C_R   0.138788 0.641598 0.500701 0.853452
C223  C     C_R   0.638416 0.141658 0.499105 0.842170
C224  C     C_R   0.038638 0.443989 0.167333 -0.288107
C225  C     C_R   0.141570 0.361295 0.498847 0.842769
C226  C     C_R   0.361500 0.858333 0.499049 0.837496
C227  C     C_R   0.858466 0.638669 0.498957 0.841856
C228  C     C_R   0.238492 0.663261 0.945647 -0.138689
C229  C     C_R   0.353182 0.262221 0.952132 -0.150129
C230  C     C_R   0.761967 0.336330 0.945549 -0.139903
C231  C     C_R   0.646026 0.735892 0.953003 -0.167768
C232  C     C_R   0.711070 0.612215 0.976656 -0.174872
C233  C     C_R   0.629231 0.281085 0.963469 -0.168871
C234  C     C_R   0.287852 0.386719 0.975117 -0.170803
C235  C     C_R   0.551924 0.038160 0.167584 -0.271413
C236  C     C_R   0.371256 0.718771 0.963397 -0.167531
C237  C     C_R   0.739456 0.162308 0.445869 -0.139800
C238  C     C_R   0.844439 0.752666 0.448750 -0.191431
C239  C     C_R   0.252473 0.842631 0.447868 -0.163933
C240  C     C_R   0.151408 0.241473 0.450370 -0.192065
C241  C     C_R   0.212789 0.115341 0.473663 -0.185990
C242  C     C_R   0.122889 0.785443 0.468544 -0.178258
C243  C     C_R   0.785547 0.881281 0.470860 -0.184612
C244  C     C_R   0.871799 0.218276 0.463890 -0.174983
C245  C     C_R   0.298285 0.651605 0.926652 0.135585
C246  C     C_R   0.471744 0.060230 0.667455 -0.291598
C247  C     C_R   0.364013 0.328468 0.937009 0.127774
C248  C     C_R   0.702019 0.348494 0.926770 0.134281
C249  C     C_R   0.633060 0.668746 0.938789 0.142574
C250  C     C_R   0.660857 0.605688 0.952604 0.111990
C251  C     C_R   0.634259 0.326920 0.937539 0.089199
C252  C     C_R   0.335742 0.391954 0.950158 0.106748
C253  C     C_R   0.366100 0.673312 0.937287 0.081661
C254  C     C_R   0.799705 0.149841 0.427236 0.132875
C255  C     C_R   0.854477 0.817097 0.431824 0.146305
C256  C     C_R   0.189694 0.856134 0.430876 0.135162
H1    H     H_    0.186785 0.644535 0.937344 0.169908
H2    H     H_    0.864134 0.702603 0.438774 0.163708
H3    H     H_    0.785478 0.619609 0.631880 0.263845
H4    H     H_    0.699013 0.582170 0.642275 0.267361
H5    H     H_    0.705974 0.676581 0.631872 0.272091
H6    H     H_    0.371431 0.714397 0.588270 0.166541
H7    H     H_    0.281048 0.727859 0.575834 0.153551
H8    H     H_    0.398724 0.845239 0.581985 0.260556
H9    H     H_    0.308910 0.861504 0.567678 0.209578
H10   H     H_    0.257851 0.820453 0.618578 0.270059
H11   H     H_    0.320792 0.893995 0.623853 0.275314
H12   H     H_    0.347716 0.802516 0.632955 0.258451
H13   H     H_    0.302719 0.862043 0.438305 0.169546
H14   H     H_    0.286130 0.307523 0.573803 0.136733
H15   H     H_    0.203620 0.359601 0.572468 0.143854
H16   H     H_    0.357106 0.421017 0.579851 0.220059
H17   H     H_    0.275501 0.473429 0.579170 0.227815
H18   H     H_    0.231676 0.408063 0.626886 0.260868
H19   H     H_    0.317326 0.451579 0.633634 0.271693
H20   H     H_    0.313540 0.354953 0.627424 0.272433
H21   H     H_    0.431711 0.374253 0.525590 0.145982
H22   H     H_    0.383151 0.350180 0.490945 0.143165
H23   H     H_    0.522747 0.282195 0.515565 0.271863
H24   H     H_    0.130916 0.290365 0.439746 0.164763
H25   H     H_    0.471154 0.243523 0.484004 0.227360
H26   H     H_    0.485287 0.351205 0.452087 0.280385
H27   H     H_    0.573028 0.325167 0.466393 0.274279
H28   H     H_    0.525249 0.400533 0.484028 0.269674
H29   H     H_    0.348876 0.547103 0.537942 0.146585
H30   H     H_    0.370956 0.618984 0.512209 0.163288
H31   H     H_    0.260201 0.496393 0.502323 0.278743
H32   H     H_    0.265982 0.572975 0.476556 0.201598
H33   H     H_    0.385151 0.542559 0.459868 0.276505
H34   H     H_    0.335347 0.458970 0.459654 0.267775
H35   H     H_    0.231906 0.065040 0.483590 0.166202
H36   H     H_    0.397649 0.478050 0.491025 0.256667
H37   H     H_    0.551828 0.646809 0.538673 0.144676
H38   H     H_    0.619539 0.629760 0.510455 0.171670
H39   H     H_    0.490482 0.733780 0.506462 0.270730
H40   H     H_    0.564240 0.739653 0.479248 0.212139
H41   H     H_    0.544147 0.619514 0.459514 0.282045
H42   H     H_    0.457179 0.662843 0.461463 0.272352
H43   H     H_    0.483153 0.597299 0.490782 0.262810
H44   H     H_    0.654973 0.448499 0.543524 0.143848
H45   H     H_    0.631183 0.380337 0.516223 0.163549
H46   H     H_    0.071177 0.768657 0.477495 0.170271
H47   H     H_    0.738368 0.506637 0.509011 0.278683
H48   H     H_    0.738682 0.432476 0.481775 0.207359
H49   H     H_    0.624361 0.459593 0.461861 0.281689
H50   H     H_    0.663745 0.547244 0.467931 0.270511
H51   H     H_    0.598230 0.512753 0.495472 0.259607
H52   H     H_    0.325822 0.574405 0.895158 0.204920
H53   H     H_    0.302732 0.654704 0.879709 0.194939
H54   H     H_    0.434005 0.375336 0.906820 0.207512
H55   H     H_    0.362394 0.335563 0.890296 0.200580
H56   H     H_    0.674560 0.426846 0.895868 0.202159
H57   H     H_    0.768011 0.932615 0.480407 0.168347
H58   H     H_    0.696906 0.346829 0.879809 0.195406
H59   H     H_    0.582751 0.613494 0.903145 0.218034
H60   H     H_    0.622717 0.691554 0.893101 0.175897
H61   H     H_    0.689337 0.508553 0.935515 0.192163
H62   H     H_    0.617862 0.506849 0.959681 0.185267
H63   H     H_    0.539599 0.306203 0.917411 0.201894
H64   H     H_    0.542030 0.383301 0.938344 0.186377
H65   H     H_    0.303882 0.486693 0.931925 0.192497
H66   H     H_    0.377528 0.492118 0.954662 0.185680
H67   H     H_    0.459299 0.695878 0.916340 0.212598
H68   H     H_    0.924875 0.233701 0.471643 0.174169
H69   H     H_    0.459645 0.618751 0.937211 0.197134
H70   H     H_    0.830087 0.073445 0.395711 0.205125
H71   H     H_    0.801569 0.151777 0.380246 0.195576
H72   H     H_    0.904026 0.764510 0.395484 0.153482
H73   H     H_    0.928428 0.851744 0.400280 0.201993
H74   H     H_    0.144145 0.903171 0.392065 0.225462
H75   H     H_    0.223246 0.861662 0.386208 0.173520
H76   H     H_    0.091981 0.224673 0.397313 0.152022
H77   H     H_    0.067127 0.138079 0.403841 0.200614
H78   H     H_    0.196912 0.016350 0.429926 0.210842
H79   H     H_    0.950215 0.602560 0.180847 0.169102
H80   H     H_    0.121817 0.012653 0.451868 0.183935
H81   H     H_    0.026851 0.811159 0.425162 0.172889
H82   H     H_    0.029250 0.886447 0.447275 0.184301
H83   H     H_    0.803274 0.979091 0.427420 0.189296
H84   H     H_    0.880806 0.979024 0.447547 0.178782
H85   H     H_    0.962296 0.192679 0.418162 0.174241
H86   H     H_    0.959864 0.115821 0.439053 0.181195
H87   H     H_    0.025251 0.671841 0.109188 0.159668
H88   H     H_    0.979979 0.698036 0.145022 0.120462
H89   H     H_    0.912764 0.712476 0.079833 0.283928
H90   H     H_    0.413924 0.920569 0.179797 0.164653
H91   H     H_    0.877932 0.747000 0.116148 0.200333
H92   H     H_    0.990267 0.826120 0.120790 0.252812
H93   H     H_    0.934828 0.846374 0.087363 0.262438
H94   H     H_    0.016285 0.795174 0.082189 0.288071
H95   H     H_    0.307322 0.936925 0.101602 0.194919
H96   H     H_    0.321763 0.966708 0.140872 0.121157
H97   H     H_    0.306702 0.807760 0.118887 0.227430
H98   H     H_    0.321223 0.836372 0.158543 0.219206
H99   H     H_    0.205336 0.904587 0.158160 0.270230
H100  H     H_    0.191405 0.810787 0.147788 0.266562
H101  H     H_    0.065989 0.400927 0.179722 0.160833
H102  H     H_    0.190763 0.879426 0.117807 0.269157
H103  H     H_    0.984338 0.319782 0.131420 0.140655
H104  H     H_    0.072590 0.298737 0.147221 0.144516
H105  H     H_    0.028244 0.286100 0.078108 0.268386
H106  H     H_    0.115023 0.264119 0.094173 0.229056
H107  H     H_    0.059208 0.168042 0.127345 0.262748
H108  H     H_    0.039221 0.153932 0.086572 0.276916
H109  H     H_    0.971323 0.190987 0.112139 0.259171
H110  H     H_    0.689086 0.042422 0.098230 0.194225
H111  H     H_    0.678750 0.013393 0.137921 0.118239
H112  H     H_    0.375390 0.214551 0.941091 0.178197
H113  H     H_    0.590165 0.071413 0.180204 0.167797
H114  H     H_    0.712312 0.169314 0.116220 0.231735
H115  H     H_    0.702045 0.140513 0.156127 0.217912
H116  H     H_    0.805810 0.054363 0.149527 0.268581
H117  H     H_    0.831175 0.146745 0.141286 0.261025
H118  H     H_    0.816272 0.084125 0.109523 0.271675
H119  H     H_    0.523728 0.182959 0.631757 0.138247
H120  H     H_    0.435622 0.205285 0.647490 0.145114
H121  H     H_    0.480982 0.216652 0.578456 0.265694
H122  H     H_    0.393936 0.239417 0.594174 0.234706
H123  H     H_    0.448426 0.336029 0.627075 0.265702
H124  H     H_    0.446885 0.104541 0.680077 0.161083
H125  H     H_    0.472144 0.348564 0.586576 0.273090
H126  H     H_    0.537233 0.311693 0.613402 0.258646
H127  H     H_    0.814234 0.449316 0.596100 0.200268
H128  H     H_    0.821953 0.485290 0.634895 0.121295
H129  H     H_    0.790466 0.325938 0.617318 0.230178
H130  H     H_    0.799725 0.360320 0.656479 0.218615
H131  H     H_    0.695523 0.444137 0.647807 0.270560
H132  H     H_    0.670932 0.350905 0.641123 0.259518
H133  H     H_    0.686268 0.410244 0.608319 0.272624
H134  H     H_    0.479487 0.816551 0.636915 0.137922
H135  H     H_    0.909543 0.427588 0.680055 0.167566
H136  H     H_    0.571031 0.799349 0.650071 0.144578
H137  H     H_    0.513315 0.773962 0.583622 0.257525
H138  H     H_    0.603770 0.756626 0.596851 0.248263
H139  H     H_    0.559847 0.665122 0.634488 0.275069
H140  H     H_    0.526575 0.644394 0.595954 0.263976
H141  H     H_    0.467437 0.684997 0.624376 0.260987
H142  H     H_    0.188755 0.552053 0.600179 0.194146
H143  H     H_    0.176875 0.526485 0.640204 0.118638
H144  H     H_    0.202279 0.681833 0.615913 0.227617
H145  H     H_    0.189612 0.656991 0.656144 0.219022
H146  H     H_    0.555458 0.899420 0.680524 0.159148
H147  H     H_    0.299284 0.578884 0.654184 0.270672
H148  H     H_    0.319779 0.670625 0.642955 0.262734
H149  H     H_    0.311918 0.601270 0.613393 0.270306
H150  H     H_    0.487101 0.215991 0.890127 0.171091
H151  H     H_    0.467836 0.180882 0.852714 0.121983
H152  H     H_    0.610100 0.251839 0.874616 0.235310
H153  H     H_    0.600026 0.209713 0.837266 0.220166
H154  H     H_    0.500843 0.295218 0.823523 0.265792
H155  H     H_    0.582377 0.342792 0.833705 0.266450
H156  H     H_    0.509245 0.338519 0.861228 0.275730
H157  H     H_    0.085003 0.579600 0.679941 0.166948
H158  H     H_    0.792753 0.515987 0.896446 0.176345
H159  H     H_    0.817385 0.490402 0.857747 0.126031
H160  H     H_    0.760644 0.639208 0.880501 0.231659
H161  H     H_    0.794637 0.623851 0.841695 0.223442
H162  H     H_    0.701420 0.527990 0.832982 0.272033
H163  H     H_    0.661442 0.614060 0.843114 0.266611
H164  H     H_    0.667055 0.543317 0.871954 0.267691
H165  H     H_    0.514941 0.784945 0.889351 0.164919
H166  H     H_    0.534220 0.820688 0.852068 0.118790
H167  H     H_    0.392028 0.748250 0.873211 0.234999
H168  H     H_    0.542438 0.108238 0.819010 0.165978
H169  H     H_    0.403654 0.789592 0.835843 0.219206
H170  H     H_    0.504209 0.704518 0.823264 0.265149
H171  H     H_    0.422467 0.656611 0.832806 0.268262
H172  H     H_    0.494099 0.661997 0.861001 0.276873
H173  H     H_    0.207348 0.486992 0.894499 0.175998
H174  H     H_    0.179469 0.517686 0.857020 0.126003
H175  H     H_    0.237599 0.365667 0.874427 0.230098
H176  H     H_    0.202933 0.388167 0.836516 0.222586
H177  H     H_    0.296142 0.486765 0.831488 0.272438
H178  H     H_    0.335168 0.397999 0.836602 0.268178
H179  H     H_    0.895983 0.557487 0.819995 0.164423
H180  H     H_    0.332616 0.460308 0.868972 0.271063
H181  H     H_    0.020408 0.707300 0.396388 0.152231
H182  H     H_    0.994193 0.681904 0.358027 0.119402
H183  H     H_    0.139650 0.743868 0.380418 0.230814
H184  H     H_    0.130135 0.702087 0.342718 0.225399
H185  H     H_    0.034441 0.789999 0.328180 0.271501
H186  H     H_    0.115575 0.836232 0.339833 0.265631
H187  H     H_    0.040089 0.831866 0.366266 0.270879
H188  H     H_    0.294517 0.007666 0.395168 0.178122
H189  H     H_    0.319280 0.984215 0.356312 0.118415
H190  H     H_    0.458073 0.893302 0.818499 0.165860
H191  H     H_    0.257722 0.130334 0.379773 0.247935
H192  H     H_    0.291801 0.116732 0.340859 0.218788
H193  H     H_    0.201757 0.017879 0.332017 0.257207
H194  H     H_    0.159109 0.102469 0.342398 0.272992
H195  H     H_    0.166946 0.031539 0.371023 0.284458
H196  H     H_    0.987729 0.294256 0.393191 0.147813
H197  H     H_    0.015694 0.321690 0.355464 0.120968
H198  H     H_    0.869381 0.257957 0.375335 0.230466
H199  H     H_    0.881902 0.300338 0.338046 0.225480
H200  H     H_    0.978413 0.213183 0.324217 0.268363
H201  H     H_    0.100300 0.449713 0.818491 0.164087
H202  H     H_    0.897165 0.165924 0.334921 0.266639
H203  H     H_    0.971239 0.170552 0.361999 0.272971
H204  H     H_    0.707972 0.987102 0.393592 0.175856
H205  H     H_    0.681272 0.009329 0.354995 0.125565
H206  H     H_    0.739333 0.862502 0.379136 0.249366
H207  H     H_    0.702045 0.874074 0.340721 0.219672
H208  H     H_    0.794425 0.968724 0.328750 0.258524
H209  H     H_    0.835146 0.883622 0.339630 0.274063
H210  H     H_    0.832551 0.957230 0.367269 0.277094
H211  H     H_    0.065174 0.602157 0.320362 0.167481
H212  H     H_    0.813661 0.355063 0.937226 0.170090
H213  H     H_    0.397553 0.051799 0.319069 0.165801
H214  H     H_    0.948097 0.402235 0.318169 0.168055
H215  H     H_    0.601477 0.943076 0.319267 0.165163
H216  H     H_    0.138599 0.764736 0.092406 0.158524
H217  H     H_    0.227597 0.767152 0.077218 0.157576
H218  H     H_    0.127304 0.633016 0.076805 0.253098
H219  H     H_    0.219385 0.634852 0.063643 0.205214
H220  H     H_    0.259226 0.668833 0.117685 0.269862
H221  H     H_    0.209956 0.584503 0.117149 0.276039
H222  H     H_    0.166422 0.666129 0.130687 0.258484
H223  H     H_    0.623838 0.783150 0.941717 0.175655
H224  H     H_    0.209271 0.187997 0.073862 0.140905
H225  H     H_    0.296550 0.144619 0.071126 0.142239
H226  H     H_    0.150237 0.068100 0.079629 0.215804
H227  H     H_    0.236366 0.023834 0.076807 0.233883
H228  H     H_    0.278014 0.089555 0.124838 0.263099
H229  H     H_    0.197600 0.037337 0.132193 0.269745
H230  H     H_    0.191549 0.134350 0.127570 0.273405
H231  H     H_    0.852929 0.212633 0.089626 0.167874
H232  H     H_    0.769280 0.245508 0.074799 0.132880
H233  H     H_    0.905848 0.337553 0.085029 0.256264
H234  H     H_    0.732304 0.562974 0.986771 0.163640
H235  H     H_    0.820602 0.370586 0.070993 0.212191
H236  H     H_    0.761991 0.333541 0.121023 0.272156
H237  H     H_    0.836432 0.394452 0.127862 0.276754
H238  H     H_    0.847163 0.298711 0.135081 0.260103
H239  H     H_    0.809501 0.900434 0.078506 0.149143
H240  H     H_    0.797412 0.805395 0.073128 0.151715
H241  H     H_    0.677108 0.920193 0.078681 0.257277
H242  H     H_    0.662342 0.824729 0.072335 0.215111
H243  H     H_    0.722565 0.796494 0.122850 0.273728
H244  H     H_    0.648890 0.859177 0.128421 0.276131
H245  H     H_    0.576002 0.265997 0.971145 0.176454
H246  H     H_    0.740374 0.891930 0.129080 0.259934
H247  H     H_    0.930322 0.875766 0.022852 0.151028
H248  H     H_    0.881776 0.847920 0.988623 0.136823
H249  H     H_    0.022923 0.784332 0.013949 0.269785
H250  H     H_    0.972008 0.743374 0.982724 0.225404
H251  H     H_    0.984319 0.850616 0.950041 0.280305
H252  H     H_    0.072420 0.825639 0.964268 0.273697
H253  H     H_    0.024386 0.901170 0.981642 0.268746
H254  H     H_    0.843919 0.046673 0.040302 0.151946
H255  H     H_    0.869660 0.117396 0.014637 0.159761
H256  H     H_    0.267286 0.436519 0.985043 0.165124
H257  H     H_    0.756132 0.997463 0.004326 0.281342
H258  H     H_    0.763712 0.073270 0.978282 0.199215
H259  H     H_    0.878733 0.038915 0.960260 0.276476
H260  H     H_    0.830514 0.955088 0.963211 0.265044
H261  H     H_    0.895302 0.979453 0.992952 0.256063
H262  H     H_    0.067824 0.125949 0.024603 0.149001
H263  H     H_    0.117382 0.150108 0.990215 0.142141
H264  H     H_    0.977623 0.218731 0.014315 0.275381
H265  H     H_    0.029993 0.256500 0.982840 0.224750
H266  H     H_    0.015641 0.148247 0.951100 0.279434
H267  H     H_    0.424515 0.734091 0.970943 0.177765
H268  H     H_    0.927826 0.174981 0.965154 0.274176
H269  H     H_    0.974943 0.099665 0.983040 0.267562
H270  H     H_    0.153664 0.950850 0.040041 0.147818
H271  H     H_    0.130927 0.880092 0.013831 0.159417
H272  H     H_    0.243819 0.001254 0.005024 0.283382
H273  H     H_    0.236276 0.926415 0.978354 0.198196
H274  H     H_    0.121523 0.961992 0.960439 0.274395
H275  H     H_    0.170165 0.045393 0.964099 0.265218
H276  H     H_    0.104964 0.020454 0.993595 0.256325
H277  H     H_    0.650742 0.280116 0.591212 0.167354
H278  H     H_    0.687930 0.143451 0.437415 0.171197
H279  H     H_    0.734252 0.250738 0.575024 0.133794
H280  H     H_    0.599809 0.155132 0.584680 0.256671
H281  H     H_    0.684604 0.124979 0.568912 0.210677
H282  H     H_    0.745847 0.157250 0.618914 0.271599
H283  H     H_    0.672468 0.094882 0.625412 0.275550
H284  H     H_    0.661317 0.189647 0.634746 0.260539
H285  H     H_    0.730309 0.709688 0.575883 0.137331
H286  H     H_    0.809369 0.652445 0.574841 0.143270
H287  H     H_    0.654040 0.602457 0.588332 0.229097
H288  H     H_    0.732495 0.545504 0.588290 0.219361
N1    N     N_R   0.010117 0.438779 0.234258 -0.181948
N2    N     N_R   0.059911 0.511881 0.765184 -0.180803
N3    N     N_R   0.496906 0.064730 0.765205 -0.184120
N4    N     N_R   0.934935 0.496938 0.765348 -0.180266
N5    N     N_R   0.009267 0.438880 0.265272 -0.182617
N6    N     N_R   0.562797 0.003899 0.265315 -0.180625
N7    N     N_R   0.010210 0.565650 0.265340 -0.181196
N8    N     N_R   0.437687 0.990105 0.265053 -0.181384
N9    N     N_3   0.289232 0.617142 0.896951 -0.495102
N10   N     N_3   0.401058 0.329584 0.907750 -0.512069
N11   N     N_3   0.710838 0.383777 0.897272 -0.493846
N12   N     N_R   0.563188 0.004023 0.234278 -0.180776
N13   N     N_3   0.592010 0.666641 0.910480 -0.510723
N14   N     N_3   0.641625 0.535349 0.941306 -0.489032
N15   N     N_3   0.570703 0.351746 0.922300 -0.482140
N16   N     N_3   0.352577 0.461321 0.937265 -0.488077
N17   N     N_3   0.429517 0.649666 0.921498 -0.475896
N18   N     N_3   0.791218 0.114025 0.397786 -0.497609
N19   N     N_3   0.884824 0.816216 0.400986 -0.459360
N20   N     N_3   0.194854 0.894547 0.401839 -0.505374
N21   N     N_3   0.110843 0.173482 0.403695 -0.459703
N22   N     N_3   0.148588 0.042834 0.434815 -0.464977
N23   N     N_R   0.010373 0.565551 0.234308 -0.182979
N24   N     N_3   0.057041 0.857362 0.430114 -0.488063
N25   N     N_3   0.850688 0.950077 0.431131 -0.475197
N26   N     N_3   0.931204 0.147144 0.422976 -0.485103
N27   N     N_R   0.438174 0.989387 0.234011 -0.180550
N28   N     N_R   0.504291 0.938467 0.733944 -0.184705
N29   N     N_R   0.059686 0.512255 0.734151 -0.180758
N30   N     N_R   0.497009 0.065016 0.734200 -0.184331
N31   N     N_R   0.934815 0.496464 0.734295 -0.180624
N32   N     N_R   0.503742 0.938155 0.764933 -0.184472
O1    O     O_3   0.000000 0.500000 0.999980 -0.500662
O2    O     O_R   0.000000 0.560770 0.430660 -0.622107
O3    O     O_R   0.439230 0.000000 0.430660 -0.618494
O4    O     O_R   0.000000 0.439230 0.430660 -0.621138
O5    O     O_R   0.000000 0.560700 0.069300 -0.637890
O6    O     O_R   0.439300 0.000000 0.069300 -0.628943
O7    O     O_R   1.000000 0.439300 0.069300 -0.631289
O8    O     O_R   0.560700 0.000000 0.069300 -0.647999
O9    O     O_R   0.500000 0.060700 0.569300 -0.632468
O10   O     O_R   0.939300 0.500000 0.569300 -0.638677
O11   O     O_R   0.500000 0.939300 0.569300 -0.624457
O12   O     O_3   0.500000 0.000000 0.999980 -0.500987
O13   O     O_R   0.060700 0.500000 0.569300 -0.633146
O14   O     O_R   0.853840 0.585430 0.981810 -0.653061
O15   O     O_R   0.414570 0.853840 0.981810 -0.658670
O16   O     O_R   0.146160 0.414570 0.981810 -0.654670
O17   O     O_R   0.585430 0.146160 0.981810 -0.658452
O18   O     O_R   0.146160 0.585430 0.981810 -0.669927
O19   O     O_R   0.585430 0.853840 0.981810 -0.669917
O20   O     O_R   0.853840 0.414570 0.981810 -0.669374
O21   O     O_R   0.414570 0.146160 0.981810 -0.670636
O22   O     O_R   0.353840 0.085430 0.481810 -0.653416
O23   O     O_3   0.500000 0.000000 0.499980 -0.501692
O24   O     O_R   0.914570 0.353840 0.481810 -0.659647
O25   O     O_R   0.646160 0.914570 0.481810 -0.654315
O26   O     O_R   0.085430 0.646160 0.481810 -0.657883
O27   O     O_R   0.646160 0.085430 0.481810 -0.668871
O28   O     O_R   0.085430 0.353840 0.481810 -0.670477
O29   O     O_R   0.353840 0.914570 0.481810 -0.669142
O30   O     O_R   0.914570 0.646160 0.481810 -0.670184
O31   O     O_R   0.085460 0.353830 0.018160 -0.606069
O32   O     O_R   0.646170 0.085460 0.018160 -0.595579
O33   O     O_R   0.914540 0.646170 0.018160 -0.605610
O34   O     O_3   1.000000 0.500000 0.499980 -0.500012
O35   O     O_R   0.353830 0.914540 0.018160 -0.597353
O36   O     O_R   0.914540 0.353830 0.018160 -0.617232
O37   O     O_R   0.353830 0.085460 0.018160 -0.619971
O38   O     O_R   0.085460 0.646170 0.018160 -0.611376
O39   O     O_R   0.646170 0.914540 0.018160 -0.622022
O40   O     O_R   0.585460 0.853830 0.518160 -0.595371
O41   O     O_R   0.146170 0.585460 0.518160 -0.593270
O42   O     O_R   0.414540 0.146170 0.518160 -0.605723
O43   O     O_R   0.853830 0.414540 0.518160 -0.597588
O44   O     O_R   0.414540 0.853830 0.518160 -0.617730
O45   O     O_R   0.060770 0.500000 0.930660 -0.617326
O46   O     O_R   0.853830 0.585460 0.518160 -0.615978
O47   O     O_R   0.585460 0.146170 0.518160 -0.617921
O48   O     O_R   0.146170 0.414540 0.518160 -0.616621
O49   O     O_3   0.142099 0.754514 0.044875 -0.637524
O50   O     O_3   0.228357 0.124425 0.033875 -0.632001
O51   O     O_3   0.859798 0.243497 0.043896 -0.637575
O52   O     O_3   0.769450 0.874949 0.035354 -0.630492
O53   O     O_3   0.881323 0.776901 0.027948 -0.632414
O54   O     O_3   0.767750 0.126721 0.036182 -0.618707
O55   O     O_3   0.119380 0.223940 0.028680 -0.625927
O56   O     O_R   0.500000 0.060770 0.930660 -0.608556
O57   O     O_3   0.232044 0.872797 0.036327 -0.624554
O58   O     O_3   0.642460 0.254238 0.544930 -0.636802
O59   O     O_3   0.736465 0.631692 0.539594 -0.636448
O60   O     O_3   0.364085 0.739987 0.541964 -0.633514
O61   O     O_3   0.270928 0.375378 0.534637 -0.630732
O62   O     O_3   0.380270 0.276047 0.529223 -0.624374
O63   O     O_3   0.269766 0.624453 0.534720 -0.623976
O64   O     O_3   0.625005 0.729631 0.534643 -0.624230
O65   O     O_3   0.733678 0.371529 0.537436 -0.621157
O66   O     O_3   0.933712 0.612117 0.120253 -0.629506
O67   O     O_R   0.939230 0.500000 0.930660 -0.617506
O68   O     O_3   0.406440 0.908273 0.118167 -0.637082
O69   O     O_3   0.069806 0.387838 0.117889 -0.624509
O70   O     O_3   0.598946 0.084798 0.119174 -0.635267
O71   O     O_3   0.437512 0.115654 0.618332 -0.622010
O72   O     O_3   0.903456 0.411921 0.619055 -0.638526
O73   O     O_3   0.560492 0.883734 0.618522 -0.618958
O74   O     O_3   0.094515 0.590304 0.618697 -0.638636
O75   O     O_3   0.544678 0.123976 0.880745 -0.618496
O76   O     O_3   0.885401 0.565599 0.881721 -0.625640
O77   O     O_3   0.456182 0.876198 0.880125 -0.617241
O78   O     O_R   0.500000 0.939230 0.930660 -0.609617
O79   O     O_3   0.114061 0.438639 0.879968 -0.625826
O80   O     O_3   0.069314 0.613827 0.381958 -0.622393
O81   O     O_3   0.384837 0.061342 0.380546 -0.623065
O82   O     O_3   0.937811 0.387158 0.379367 -0.622287
O83   O     O_3   0.614605 0.936388 0.380915 -0.623665
O84   O     O_R   0.560770 0.000000 0.430660 -0.614816
Zn1   Zn    Zn3+2 0.000000 0.586740 0.025950 0.968699
Zn2   Zn    Zn3+2 0.500000 0.913260 0.974020 0.955898
Zn3   Zn    Zn3+2 0.086740 0.500000 0.974020 0.949123
Zn4   Zn    Zn3+2 0.500000 0.086740 0.974020 0.956172
Zn5   Zn    Zn3+2 0.413260 0.000000 0.474020 0.948961
Zn6   Zn    Zn3+2 1.000000 0.413260 0.474020 0.949851
Zn7   Zn    Zn3+2 0.586740 0.000000 0.474020 0.951808
Zn8   Zn    Zn3+2 1.000000 0.586740 0.474020 0.949508
Zn9   Zn    Zn3+2 0.413260 0.000000 0.025950 0.979235
Zn10  Zn    Zn3+2 0.000000 0.413260 0.025950 0.962799
Zn11  Zn    Zn3+2 0.586740 0.000000 0.025950 0.970097
Zn12  Zn    Zn3+2 0.500000 0.086740 0.525950 0.963692
Zn13  Zn    Zn3+2 0.913260 0.500000 0.525950 0.977650
Zn14  Zn    Zn3+2 0.500000 0.913260 0.525950 0.973203
Zn15  Zn    Zn3+2 0.086740 0.500000 0.525950 0.981917
Zn16  Zn    Zn3+2 0.913260 0.500000 0.974020 0.949625

loop_
_geom_bond_atom_site_label_1
_geom_bond_atom_site_label_2
_ccdc_geom_bond_type
C18   C243  A    
C157  N6    A    
C75   H230  S    
C213  H90   S    
C140  H128  S    
C97   H281  S    
O16   Zn3   S    
C111  H28   S    
C1    C198  S    
C127  H95   S    
C55   C56   A    
C153  O76   S    
C114  C115  S    
C138  C139  S    
C110  H25   S    
C247  C252  A    
C105  H12   S    
C178  N31   A    
H66   N16   S    
C121  H47   S    
C184  C204  A    
C5    C256  A    
C221  O25   A    
C22   C239  A    
C78   H237  S    
C42   C220  S    
O40   Zn14  S    
C174  H207  S    
C106  C107  S    
C44   C50   A    
C184  C193  A    
C184  H211  S    
C140  O72   S    
C99   H286  S    
O7    Zn10  S    
C110  C111  S    
C120  H44   S    
C207  O8    A    
N7    N23   A    
C38   C55   A    
O43   Zn13  S    
C115  H31   S    
C143  O73   S    
C212  O31   A    
C26   C43   A    
C122  H49   S    
C132  H109  S    
O41   Zn15  S    
C218  O37   A    
C209  O10   A    
C256  N20   S    
C192  C198  A    
C236  C253  A    
C215  O38   A    
C220  O43   A    
C53   C59   A    
C25   C34   A    
C129  H99   S    
C227  O30   A    
C58   O63   S    
C8    C16   A    
C170  H196  S    
C180  O3    A    
C156  H165  S    
C72   H221  S    
C104  C105  S    
C135  N2    A    
C185  H213  S    
C82   H243  S    
H86   N26   S    
C147  H142  S    
C64   O70   S    
C175  H209  S    
H65   N16   S    
C20   C241  A    
C162  H178  S    
C40   C58   A    
C133  H110  S    
C239  H13   S    
C120  O65   S    
H62   N14   S    
C237  C254  A    
C157  C205  S    
C140  C141  S    
C64   C235  A    
C53   O59   S    
C31   C214  S    
C191  O4    A    
C235  H113  S    
C160  O79   S    
C173  H205  S    
C179  C188  A    
C193  C199  A    
C245  C253  A    
C170  H197  S    
C117  H37   S    
C26   C215  S    
H52   N9    S    
C142  H133  S    
C62   O68   S    
C118  H39   S    
C15   C27   A    
C49   O54   S    
C106  O61   S    
C25   C237  A    
C163  O80   S    
C94   H273  S    
C222  O41   A    
C76   C77   S    
C230  H212  S    
C154  C155  S    
C159  H171  S    
C173  H204  S    
C80   H239  S    
C37   C226  S    
C171  H198  S    
C123  O66   S    
C158  C159  S    
C111  H26   S    
C119  H42   S    
C83   H247  S    
C120  H45   S    
O34   Zn13  S    
C71   H219  S    
C99   O59   S    
C110  H23   S    
H67   N17   S    
C81   H241  S    
C178  N29   A    
C16   C228  A    
C10   C233  A    
C4    N22   S    
C107  H16   S    
C34   C52   A    
C114  H30   S    
C93   H270  S    
O1    Zn10  S    
C151  H152  S    
C48   O53   S    
C228  C245  A    
C135  N4    A    
C148  H144  S    
C144  H137  S    
C124  C201  S    
N28   N32   A    
C17   C25   A    
C156  C158  S    
C130  C131  S    
C9    C15   A    
C207  O6    A    
C246  H124  S    
C163  H182  S    
C177  N28   A    
C175  H208  S    
C116  H34   S    
C102  H4    S    
C6    C255  A    
C202  H79   S    
O1    Zn1   S    
C107  H17   S    
C14   C230  A    
O25   Zn7   S    
C91   H264  S    
C170  O82   S    
C28   C217  S    
O36   Zn10  S    
C109  O62   S    
C242  H46   S    
C20   C21   A    
C27   C218  S    
C23   C36   A    
C143  H134  S    
C98   H283  S    
C104  H8    S    
C86   H255  S    
C250  N14   S    
C165  H185  S    
C143  C144  S    
C190  C197  A    
O13   Zn15  S    
C65   C246  A    
C226  O29   A    
C164  H184  S    
C66   C113  A    
C12   C29   A    
C182  C201  A    
O28   Zn6   S    
C212  O16   A    
C5    N24   S    
C147  C148  S    
C152  H155  S    
C65   C101  A    
C108  H19   S    
C94   H272  S    
C128  C129  S    
C76   H231  S    
C77   H233  S    
C97   C98   S    
C225  O28   A    
C167  C169  S    
C69   C113  A    
C179  H168  S    
C29   C47   A    
C248  N11   S    
C63   O69   S    
C118  H40   S    
O22   Zn5   S    
C219  O22   A    
C2    C68   A    
C142  H131  S    
C13   C57   A    
C170  C171  S    
C136  H116  S    
C115  C116  S    
O23   Zn12  S    
C174  C175  S    
H70   N18   S    
C211  O15   A    
C156  O77   S    
C52   C60   A    
H81   N24   S    
C176  N12   A    
C227  O46   A    
C160  H174  S    
C27   C44   A    
C194  C200  A    
C21   C38   A    
C55   O61   S    
H78   N22   S    
C125  H89   S    
C146  N7    A    
C158  H169  S    
C169  H194  S    
C143  H136  S    
O84   Zn7   S    
C56   O62   S    
C155  H164  S    
C89   C91   S    
N4    N31   A    
H54   N10   S    
C85   H253  S    
C9    C32   A    
C3    C240  A    
O19   Zn2   S    
C70   H216  S    
C124  N3    A    
C237  H278  S    
C44   O50   S    
C106  H15   S    
C229  H112  S    
C132  H108  S    
C187  C205  A    
C181  C203  A    
C214  O32   A    
C139  H125  S    
C195  C199  A    
C47   O52   S    
C210  O33   A    
O12   Zn9   S    
O56   Zn4   S    
C88   H260  S    
C244  H68   S    
C104  H9    S    
C85   H252  S    
C188  C197  A    
C10   C14   A    
C91   C92   S    
C23   C238  A    
C134  H114  S    
C147  H143  S    
C177  N30   A    
C91   H265  S    
C116  H36   S    
C189  C198  A    
O24   Zn6   S    
O1    Zn3   S    
O27   Zn7   S    
C180  C200  S    
H82   N24   S    
C61   C202  A    
C241  H35   S    
C165  H186  S    
C83   C84   S    
O12   Zn2   S    
C46   C213  A    
C87   H257  S    
C240  H24   S    
C35   C168  S    
C86   O54   S    
C144  C145  S    
C65   O71   S    
C224  H101  S    
C167  H192  S    
C100  H287  S    
C165  H187  S    
C166  H188  S    
C78   H238  S    
C136  H117  S    
C36   C227  S    
O35   Zn9   S    
C131  H106  S    
C133  O70   S    
C161  H175  S    
O23   Zn7   S    
O26   Zn8   S    
C3    C4    A    
C231  C249  A    
H53   N9    S    
C77   H235  S    
H74   N20   S    
C34   C223  S    
C67   C101  A    
C12   C231  A    
C128  H98   S    
C75   H229  S    
H83   N25   S    
C171  H199  S    
C111  H27   S    
C249  N13   S    
C119  H43   S    
C57   C246  A    
C2    C66   A    
C83   H248  S    
C236  H267  S    
C109  H21   S    
C89   H263  S    
C105  H11   S    
C182  C190  A    
C117  C118  S    
C96   O58   S    
C238  C255  A    
C83   O53   S    
C195  O82   S    
C113  C209  S    
C71   C72   S    
C7    C254  A    
C80   O52   S    
C35   C224  A    
C57   C177  S    
C114  O63   S    
C122  H51   S    
C13   H146  S    
C61   C79   A    
C51   O57   S    
C137  O71   S    
C146  N5    A    
C88   H261  S    
C217  O20   A    
C99   H285  S    
C155  H162  S    
C117  O64   S    
C187  H215  S    
C126  H93   S    
C19   C40   A    
C190  O77   S    
C183  H201  S    
C74   H226  S    
C122  H50   S    
O33   Zn1   S    
C150  C151  S    
C231  H223  S    
C139  H123  S    
C95   H276  S    
C194  O81   S    
C153  H159  S    
C172  H203  S    
H77   N21   S    
C87   C88   S    
C126  H94   S    
O12   Zn11  S    
C154  H160  S    
C74   H227  S    
C149  H149  S    
C187  C196  A    
O31   Zn10  S    
C73   C74   S    
C208  O9    A    
C64   C90   A    
C185  C194  A    
C141  H130  S    
C72   H222  S    
C183  C192  A    
C232  H234  S    
H58   N11   S    
C82   H244  S    
C123  H88   S    
C120  C121  S    
H63   N15   S    
H60   N13   S    
O9    Zn12  S    
C11   C232  A    
O8    Zn11  S    
C130  H103  S    
O11   Zn14  S    
C221  O40   A    
C164  C165  S    
O45   Zn3   S    
C152  H154  S    
C108  H18   S    
C54   C58   A    
C215  O18   A    
C123  C125  S    
O12   Zn4   S    
C149  H148  S    
C234  H256  S    
C112  O78   A    
C137  H120  S    
C127  O68   S    
C73   H224  S    
C84   H249  S    
C181  C189  A    
C10   C31   A    
C179  C201  A    
C11   C30   A    
C7    C244  A    
C223  O27   A    
C151  C152  S    
O23   Zn5   S    
C220  O24   A    
C70   C71   S    
C5    C242  A    
O23   Zn14  S    
C7    N26   S    
C138  H121  S    
C80   H240  S    
O37   Zn9   S    
C70   O49   S    
C140  H127  S    
C15   C229  A    
C73   H225  S    
C233  H245  S    
C127  H96   S    
C119  H41   S    
C186  H214  S    
C254  N18   S    
H56   N11   S    
C16   C26   A    
O34   Zn8   S    
C191  O2    A    
C121  H48   S    
C50   O55   S    
C216  O39   A    
C84   C85   S    
C78   H236  S    
C174  H206  S    
C20   C39   A    
C86   C87   S    
C63   C79   A    
C182  H190  S    
C1    O67   A    
C59   O64   S    
C22   C37   A    
N2    N29   A    
N1    N5    A    
C40   C222  S    
C92   H268  S    
O47   Zn12  S    
N6    N12   A    
C101  C208  S    
H80   N22   S    
C163  H181  S    
C45   O51   S    
C154  H161  S    
C45   C49   A    
C115  H32   S    
C249  C250  A    
C102  H5    S    
C180  O84   A    
C223  O47   A    
C121  C122  S    
C95   H274  S    
C61   O66   S    
C176  N27   A    
C38   C225  S    
C252  N16   S    
C96   H277  S    
C8    C236  A    
C129  H100  S    
C97   H280  S    
C126  H92   S    
O48   Zn15  S    
C125  C126  S    
C62   C213  A    
C98   H284  S    
C208  O11   A    
C206  O7    A    
C131  C132  S    
O17   Zn4   S    
C112  C197  S    
C17   C42   A    
C233  C251  A    
C175  H210  S    
C39   C219  S    
C69   O74   S    
C141  H129  S    
C162  H177  S    
C133  H111  S    
C243  H57   S    
C9    C234  A    
C150  H151  S    
C152  H156  S    
C93   O57   S    
C108  H20   S    
C216  O19   A    
C60   O65   S    
C76   H232  S    
C135  C203  S    
C150  H150  S    
C35   C202  A    
C33   C51   A    
O4    Zn6   S    
C117  H38   S    
O3    Zn5   S    
O6    Zn9   S    
O5    Zn1   S    
C46   C235  A    
O78   Zn2   S    
O29   Zn5   S    
O21   Zn4   S    
C183  C203  A    
C168  N1    A    
C142  H132  S    
C109  C110  S    
C43   O49   S    
C3    N21   S    
C43   C51   A    
C255  N19   S    
C161  C162  S    
O67   Zn16  S    
C166  O81   S    
O42   Zn12  S    
C68   C178  S    
C103  H6    S    
C94   C95   S    
C67   O73   S    
C144  H138  S    
C159  H172  S    
C24   C68   A    
O38   Zn1   S    
H76   N21   S    
C124  N32   A    
C226  O44   A    
O30   Zn8   S    
C103  C104  S    
C24   H157  S    
C169  H193  S    
C92   H266  S    
C217  O36   A    
C155  H163  S    
C173  O83   S    
C218  O21   A    
C41   C221  S    
H59   N13   S    
C81   H242  S    
C171  C172  S    
O34   Zn6   S    
C189  O76   S    
O14   Zn16  S    
C93   C94   S    
H75   N20   S    
C192  O79   S    
C33   C211  S    
C163  C164  S    
C93   H271  S    
C214  O17   A    
C196  C200  A    
C81   C82   S    
C31   C49   A    
C211  O35   A    
C173  C174  S    
C172  H202  S    
C147  O74   S    
C181  H179  S    
C191  C199  S    
C85   H251  S    
C253  N17   S    
C32   C212  S    
C134  H115  S    
C188  O75   S    
C125  H91   S    
C116  H33   S    
C222  O26   A    
C76   O51   S    
C102  H3    S    
O1    Zn16  S    
C209  O13   A    
C158  H167  S    
C225  O48   A    
C118  C119  S    
C230  C248  A    
H55   N10   S    
H72   N19   S    
C1    O45   A    
C96   H279  S    
C52   O58   S    
C129  H102  S    
C39   C56   A    
C17   C244  A    
C30   C48   A    
C146  C204  S    
C98   H282  S    
C89   O55   S    
C206  O5    A    
C86   H254  S    
C167  H191  S    
C100  H288  S    
C2    H135  S    
C19   C242  A    
C248  C251  A    
C77   C78   S    
C166  H189  S    
C145  H140  S    
C136  H118  S    
C145  H139  S    
C164  H183  S    
C131  H105  S    
H64   N15   S    
C92   H269  S    
C6    N25   S    
C137  H119  S    
C103  O60   S    
H71   N18   S    
O46   Zn13  S    
C24   C69   A    
C172  H200  S    
C151  H153  S    
C219  O42   A    
C28   C45   A    
C74   C75   S    
C18   C23   A    
C47   C48   A    
C185  C205  A    
C186  C195  A    
C19   C22   A    
C148  C149  S    
C41   C59   A    
C18   C41   A    
C42   C60   A    
H85   N26   S    
C112  O56   A    
C228  H1    S    
C29   C216  S    
C134  C136  S    
C89   H262  S    
C105  H10   S    
O44   Zn14  S    
H61   N14   S    
C229  C247  A    
C159  H170  S    
C160  H173  S    
C99   C100  S    
C107  C108  S    
C96   C97   S    
C21   C240  A    
C100  C102  S    
C186  C204  A    
C169  H195  S    
O34   Zn15  S    
C32   C50   A    
H84   N25   S    
C36   C53   A    
C71   H218  S    
C66   O72   S    
C37   C54   A    
C106  H14   S    
O15   Zn2   S    
C109  H22   S    
C166  C167  S    
C132  H107  S    
C46   C176  S    
C6    C243  A    
C73   O50   S    
C130  O69   S    
C232  C250  A    
H73   N19   S    
C4    C241  A    
C210  O14   A    
C139  H126  S    
C95   H275  S    
C157  N8    A    
C13   C67   A    
C153  H158  S    
C193  O80   S    
C54   O60   S    
C148  H145  S    
C75   H228  S    
C88   H259  S    
C63   C224  A    
O18   Zn3   S    
C80   C81   S    
O20   Zn16  S    
C30   C210  S    
O10   Zn13  S    
C251  N15   S    
C11   C12   A    
C114  H29   S    
C123  H87   S    
C79   C206  S    
C137  C138  S    
C162  H180  S    
C130  H104  S    
C150  O75   S    
H69   N17   S    
C160  C161  S    
C168  N23   A    
C141  C142  S    
O2    Zn8   S    
C239  C256  A    
C245  N9    S    
O39   Zn11  S    
C133  C134  S    
C196  O83   S    
C62   C90   A    
C87   H258  S    
C238  H2    S    
N3    N30   A    
C8    C33   A    
C72   H220  S    
C70   H217  S    
C82   H246  S    
C247  N10   S    
C84   H250  S    
C90   C207  S    
C234  C252  A    
C156  H166  S    
O32   Zn11  S    
C145  H141  S    
N8    N27   A    
C161  H176  S    
C103  H7    S    
C14   C28   A    
C153  C154  S    
C149  H147  S    
C127  C128  S    
C128  H97   S    
C138  H122  S    
