data_mof_unit_21706.cif
_audit_creation_date              2012-12-10T17:09:52-0500
_audit_creation_method            fapswitch 2.2
_symmetry_space_group_name_H-M    P1
_symmetry_Int_Tables_number       1
_space_group_crystal_system       triclinic
_cell_length_a                    10.811558
_cell_length_b                    13.05089
_cell_length_c                    11.662887
_cell_angle_alpha                 98.736389
_cell_angle_beta                  93.767627
_cell_angle_gamma                 89.11015
_cell_volume                      1623.00427122

loop_
_atom_site_label
_atom_site_type_symbol
_atom_type_description
_atom_site_fract_x
_atom_site_fract_y
_atom_site_fract_z
_atom_type_partial_charge
C1    C     C_R   0.507474 0.299594 0.480268 0.865191
C2    C     C_R   0.061362 0.608976 0.550025 0.040122
C3    C     C_R   0.127970 0.517853 0.502313 -0.086239
C4    C     C_R   0.064337 0.428296 0.451022 -0.182222
C5    C     C_R   0.936878 0.424128 0.449076 -0.177602
C6    C     C_R   0.870322 0.508970 0.500036 -0.066210
C7    C     C_R   0.528585 0.812588 0.530174 -0.165570
C8    C     C_R   0.523517 0.186965 0.471466 -0.172455
C9    C     C_R   0.517052 0.020389 0.347830 -0.082538
C10   C     C_R   0.504170 0.127044 0.361438 -0.272704
C11   C     C_R   0.555729 0.137430 0.569850 0.388714
C12   C     C_R   0.262546 0.509545 0.501369 0.774169
C13   C     C_R   0.542361 0.029348 0.557602 -0.011706
C14   C     C_R   0.537660 0.970258 0.445350 0.006173
C15   C     C_R   0.551070 0.862197 0.433625 0.401302
C16   C     C_R   0.518633 0.872404 0.639807 -0.265800
C17   C     C_R   0.531099 0.979026 0.654282 -0.112918
C18   C     C_R   0.359328 0.430987 0.027231 -0.299502
C19   C     C_R   0.375210 0.434795 0.148433 0.089473
C20   C     C_R   0.566633 0.521222 0.152754 0.130335
C21   C     C_R   0.553103 0.521650 0.031396 0.063833
C22   C     C_R   0.448103 0.475654 0.967807 0.067634
C23   C     C_R   0.513022 0.699967 0.519854 0.820801
C24   C     C_R   0.435367 0.474997 0.846162 0.111100
C25   C     C_R   0.624140 0.566005 0.851740 0.074224
C26   C     C_R   0.641227 0.567588 0.972453 -0.288685
C27   C     C_R   0.737438 0.499160 0.499493 0.823976
C28   C     C_R   0.116244 0.707858 0.593642 0.124778
C29   C     C_R   0.043400 0.791885 0.638829 -0.068955
C30   C     C_R   0.916520 0.782533 0.641143 -0.173534
C31   C     C_R   0.860092 0.689207 0.596704 -0.141256
C32   C     C_R   0.930105 0.602016 0.550114 0.076759
Cu1   Cu    Cu3+1 0.509250 0.507730 0.615930 0.973537
Cu2   Cu    Cu3+1 0.490750 0.492270 0.384070 0.999153
H1    H     H_    0.114313 0.360041 0.413229 0.146361
H2    H     H_    0.523393 0.021979 0.740494 0.208243
H3    H     H_    0.480952 0.162637 0.284675 0.188743
H4    H     H_    0.356486 0.437342 0.796041 0.129920
H5    H     H_    0.692919 0.601349 0.807257 0.132100
H6    H     H_    0.277704 0.394333 0.980703 0.148919
H7    H     H_    0.722630 0.604458 0.019194 0.154820
H8    H     H_    0.305390 0.401038 0.193190 0.135100
H9    H     H_    0.648138 0.554821 0.201493 0.177715
H10   H     H_    0.086058 0.866069 0.671555 0.163284
H11   H     H_    0.861164 0.848544 0.675693 0.173711
H12   H     H_    0.760553 0.687123 0.597771 0.145681
H13   H     H_    0.889902 0.353366 0.409879 0.158079
H14   H     H_    0.502771 0.836780 0.715562 0.192018
H15   H     H_    0.502479 0.977215 0.261242 0.207625
N1    N     N_R   0.523180 0.519350 0.790130 -0.186443
N2    N     N_R   0.476820 0.480650 0.209890 -0.192997
O1    O     O_R   0.506570 0.354460 0.582000 -0.506924
O2    O     O_R   0.490940 0.341410 0.386200 -0.604706
O3    O     O_R   0.327470 0.506530 0.597920 -0.602870
O4    O     O_R   0.311840 0.493480 0.402120 -0.589236
O5    O     O_R   0.509060 0.658590 0.613800 -0.623775
O6    O     O_R   0.493430 0.645540 0.418000 -0.510109
O7    O     O_R   0.688160 0.506520 0.597880 -0.591582
O8    O     O_R   0.672530 0.493470 0.402080 -0.576026
S1    S     S_3+6 0.632930 0.203875 0.699916 -0.002310
O9    O     O_2   0.537561 0.249973 0.781121 -0.319881
O10   O     O_2   0.714074 0.130365 0.759062 -0.294794
O11   O     O_3   0.724126 0.298044 0.669019 -0.522874
H16   H     H_    0.747406 0.340344 0.745102 0.373703
N3    N     N_3   0.244126 0.729202 0.589804 -0.606031
H17   H     H_    0.269541 0.707650 0.504693 0.221049
H18   H     H_    0.293093 0.689711 0.649498 0.254985
S2    S     S_3+6 0.619893 0.795636 0.308536 -0.031114
O12   O     O_2   0.705294 0.712036 0.342997 -0.327770
O13   O     O_2   0.519271 0.749262 0.222074 -0.322368
O14   O     O_3   0.704064 0.877247 0.246729 -0.535098
H19   H     H_    0.733629 0.834753 0.175931 0.371474

loop_
_geom_bond_atom_site_label_1
_geom_bond_atom_site_label_2
_ccdc_geom_bond_type
Cu2   O6    S    
C6    C32   A    
C9    C14   A    
C29   C30   A    
C17   H2    S    
C10   H3    S    
C1    C8    S    
C11   C13   A    
C9    C10   A    
C30   H11   S    
C24   H4    S    
C31   C32   A    
C14   C15   A    
C19   H8    S    
C13   C17   A    
C30   C31   A    
C21   C26   A    
C16   H14   S    
Cu1   O5    S    
C7    C15   A    
C2    C3    A    
Cu1   N1    S    
C4    H1    S    
Cu2   O4    S    
O14   H19   S    
N3    H17   S    
C27   O8    A    
C13   C14   A    
C25   H5    S    
Cu1   O1    S    
C5    H13   S    
Cu2   N2    S    
Cu1   O7    S    
S1    O9    D    
C8    C11   A    
C7    C23   S    
C15   S2    S    
C16   C17   A    
S1    O10   D    
C7    C16   A    
Cu1   Cu2   S    
C20   N2    A    
S2    O14   S    
C29   H10   S    
C24   N1    A    
C5    C6    A    
C18   C22   A    
C1    O1    A    
C22   C24   A    
C12   O4    A    
S1    O11   S    
C11   S1    S    
C6    C27   S    
C19   N2    A    
C23   O5    A    
C20   H9    S    
C9    H15   S    
C20   C21   A    
C31   H12   S    
Cu2   O2    S    
C2    C32   A    
C18   C19   A    
Cu1   O3    S    
C23   O6    A    
S2    O13   D    
C1    O2    A    
C25   N1    A    
C28   C29   A    
C2    C28   A    
C3    C12   S    
C18   H6    S    
C25   C26   A    
C21   C22   A    
Cu2   O8    S    
C28   N3    S    
S2    O12   D    
C8    C10   A    
C12   O3    A    
C3    C4    A    
O11   H16   S    
C26   H7    S    
C4    C5    A    
N3    H18   S    
C27   O7    A    
