data_mof_unit_58039.cif
_audit_creation_date              2013-03-05T15:53:06-0500
_audit_creation_method            fapswitch 2.2
_symmetry_space_group_name_H-M    P1
_symmetry_Int_Tables_number       1
_space_group_crystal_system       triclinic
_cell_length_a                    9.908459
_cell_length_b                    10.722068
_cell_length_c                    15.587659
_cell_angle_alpha                 91.848995
_cell_angle_beta                  67.208007
_cell_angle_gamma                 88.834583
_cell_volume                      1524.94923447

loop_
_atom_site_label
_atom_site_type_symbol
_atom_site_description
_atom_site_fract_x
_atom_site_fract_y
_atom_site_fract_z
_atom_type_partial_charge
O1    O     O_R   0.385310 0.683220 0.500000 -0.667974
O2    O     O_R   0.614640 0.683250 0.500010 -0.639157
C1    C     C_R   0.499944 0.740410 0.496030 0.852839
O3    O     O_R   0.319840 0.499980 0.632240 -0.592089
O4    O     O_R   0.549160 0.500000 0.632250 -0.628903
C2    C     C_R   0.407442 0.497349 0.676252 0.865246
Zn1   Zn    Zn3+2 0.346880 0.499980 0.499990 0.998992
Zn2   Zn    Zn3+2 0.653120 0.500020 0.500010 0.946264
O5    O     O_R   0.385360 0.316750 0.499990 -0.574785
O6    O     O_R   0.614690 0.316780 0.500000 -0.611515
O7    O     O_R   0.450840 0.500000 0.367750 -0.578490
O8    O     O_R   0.680160 0.500020 0.367760 -0.621733
C3    C     C_R   0.495156 0.261557 0.509671 0.898414
C4    C     C_R   0.592194 0.499870 0.324217 0.890756
C5    C     C_R   0.348357 0.491526 0.778472 -0.183297
C6    C     C_R   0.650943 0.488709 0.222961 -0.061406
C7    C     C_R   0.160177 0.530096 0.933021 -0.283419
C8    C     C_R   0.198720 0.513143 0.837001 0.315537
C9    C     C_R   0.450680 0.471011 0.818583 -0.290816
C10   C     C_R   0.411049 0.478464 0.914808 0.101357
C11   C     C_R   0.265130 0.515722 0.971740 0.111755
C12   C     C_R   0.514927 0.456338 0.955197 0.051036
C13   C     C_R   0.476526 0.490655 0.050497 0.068540
C14   C     C_R   0.329670 0.529685 0.105294 -0.164067
C15   C     C_R   0.225367 0.538679 0.066749 -0.212639
C16   C     C_R   0.653836 0.397446 0.904235 -0.162523
C17   C     C_R   0.754147 0.377177 0.944933 -0.125803
C18   C     C_R   0.721452 0.417803 0.036611 0.144393
C19   C     C_R   0.584290 0.478723 0.088970 0.106421
C20   C     C_R   0.822400 0.394775 0.077872 -0.202048
C21   C     C_R   0.785991 0.427929 0.171585 -0.200452
C22   C     C_R   0.557604 0.522392 0.179577 -0.174919
H1    H     H_    0.113514 0.566372 0.111365 0.152272
H2    H     H_    0.461297 0.579035 0.219878 0.143743
H3    H     H_    0.859912 0.401547 0.204559 0.163419
H4    H     H_    0.857469 0.328473 0.904602 0.188776
H5    H     H_    0.047430 0.553981 0.977790 0.184261
H6    H     H_    0.564071 0.455901 0.773167 0.197170
H7    H     H_    0.289495 0.549150 0.179314 0.172107
H8    H     H_    0.685392 0.359748 0.833967 0.181507
H9    H     H_    0.926408 0.346277 0.038849 0.151320
H10   H     H_    0.724994 0.883980 0.472409 0.175527
C23   C     C_R   0.235452 0.897729 0.502994 -0.201667
H11   H     H_    0.238458 0.813011 0.463081 0.178941
C24   C     C_R   0.101642 0.964794 0.539091 -0.168036
H12   H     H_    0.006618 0.927145 0.530815 0.157569
C25   C     C_R   0.089987 0.078569 0.587143 0.234498
C26   C     C_R   0.215823 0.131212 0.589721 -0.133555
H13   H     H_    0.204739 0.221141 0.625733 0.192852
C27   C     C_R   0.354480 0.069428 0.544336 0.071423
C28   C     C_R   0.361169 0.944597 0.513925 0.104427
C29   C     C_R   0.494436 0.874794 0.494913 -0.112052
C30   C     C_R   0.621911 0.934865 0.488284 -0.212316
H14   H     H_    0.722594 0.107087 0.485616 0.192975
C31   C     C_R   0.619864 0.062022 0.499086 -0.181758
C32   C     C_R   0.487890 0.129916 0.523705 -0.113311
H15   H     H_    0.939889 0.358519 0.395471 0.168157
C33   C     C_R   0.783975 0.667617 0.622074 -0.149731
H16   H     H_    0.674579 0.676459 0.626098 0.205800
C34   C     C_R   0.816871 0.747931 0.682608 -0.196505
H17   H     H_    0.733699 0.812995 0.729110 0.169461
C35   C     C_R   0.955982 0.744951 0.683500 -0.094014
H18   H     H_    0.981328 0.807719 0.730577 0.170168
C36   C     C_R   0.063304 0.662009 0.623567 -0.061941
H19   H     H_    0.168041 0.664142 0.627867 0.196827
C37   C     C_R   0.034243 0.580563 0.560762 0.080229
C38   C     C_R   0.889920 0.581812 0.560298 0.167537
N1    N     N_R   0.856800 0.501200 0.500850 -0.132697
C39   C     C_R   0.964633 0.422051 0.442347 -0.171835
C40   C     C_R   0.107957 0.421756 0.441933 0.362100
N2    N     N_R   0.142390 0.501280 0.500880 -0.179893
I1    I     I_    0.885932 0.176669 0.647337 -0.402509
N3    N     N_R   0.216404 0.336810 0.378881 0.231951
O9    O     O_R   0.277627 0.363481 0.291728 -0.428469
O10   O     O_R   0.218816 0.221070 0.400737 -0.382130
N4    N     N_R   0.084751 0.517495 0.801793 0.190908
O11   O     O_R   0.071396 0.423537 0.751065 -0.410998
O12   O     O_R   0.973817 0.595865 0.840267 -0.428024

loop_
_geom_bond_atom_site_label_1
_geom_bond_atom_site_label_2
_geom_bond_distance
_ccdc_geom_bond_type
C5    C8    1.417297 A    
C31   C32   1.393427 A    
N3    O9    1.299606 A    
C9    C10   1.394646 A    
C23   C28   1.420432 A    
C24   H12   1.082719 S    
C6    C21   1.398995 A    
C5    C9    1.399336 A    
C16   C17   1.387873 A    
C13   C19   1.418332 A    
C18   C19   1.417718 A    
N4    O12   1.301202 A    
C19   C22   1.395298 A    
H10   C30   1.083951 S    
Zn1   N2    2.020607 S    
C20   C21   1.394032 A    
O7    C4    1.298325 A    
C33   C34   1.391192 A    
C14   H7    1.076345 S    
C34   C35   1.383550 A    
C24   C25   1.389538 A    
O5    C3    1.289693 A    
C35   C36   1.390200 A    
C2    C5    1.473311 S    
C25   C26   1.393134 A    
N1    C39   1.360758 A    
C13   C14   1.418194 A    
C20   H9    1.083778 S    
C40   N2    1.375453 A    
C3    C32   1.434263 S    
C26   C27   1.416532 A    
C37   C38   1.432623 A    
N3    O10   1.299623 A    
O3    Zn1   1.973200 S    
C27   C28   1.397007 A    
C30   C31   1.367109 A    
C28   C29   1.426154 A    
N4    O11   1.301049 A    
O3    C2    1.298662 A    
C33   H16   1.063310 S    
C7    C11   1.398287 A    
C38   N1    1.381629 A    
C34   H17   1.082780 S    
O1    C1    1.283082 A    
C36   C37   1.406200 A    
Zn1   O7    1.914425 S    
C23   H11   1.077555 S    
C35   H18   1.082728 S    
C9    H6    1.076419 S    
C37   N2    1.370752 A    
Zn2   O8    1.973197 S    
C40   N3    1.426304 S    
C7    C8    1.398520 A    
C7    H5    1.083244 S    
C14   C15   1.385336 A    
C23   C24   1.395945 A    
C26   H13   1.081613 S    
C10   C12   1.419078 A    
Zn2   N1    2.023557 S    
C21   H3    1.083186 S    
C29   C30   1.398992 A    
Zn1   O5    1.993632 S    
C11   C15   1.389071 A    
H14   C31   1.083809 S    
C8    N4    1.434666 S    
O1    Zn1   2.008868 S    
O2    Zn2   1.993633 S    
O8    C4    1.295655 A    
O6    C3    1.293080 A    
O4    Zn2   1.914425 S    
C1    C29   1.441715 S    
C17   H4    1.083710 S    
C6    C22   1.389176 A    
C36   H19   1.066193 S    
C18   C20   1.404895 A    
O2    C1    1.303750 A    
C16   H8    1.077867 S    
O4    C2    1.303730 A    
C4    C6    1.455163 S    
C39   C40   1.417569 A    
C27   C32   1.410822 A    
C25   I1    2.110616 S    
C33   C38   1.412804 A    
C10   C11   1.413181 A    
Zn2   O6    2.008867 S    
C12   C16   1.417506 A    
C15   H1    1.084551 S    
C17   C18   1.390058 A    
C12   C13   1.417041 A    
H15   C39   1.082369 S    
C22   H2    1.077702 S    
