data_mof_unit_27845.cif
_audit_creation_date              2012-12-10T20:25:38-0500
_audit_creation_method            fapswitch 2.2
_symmetry_space_group_name_H-M    P1
_symmetry_Int_Tables_number       1
_space_group_crystal_system       triclinic
_cell_length_a                    8.570151
_cell_length_b                    10.600904
_cell_length_c                    9.93132
_cell_angle_alpha                 90.478089
_cell_angle_beta                  98.739394
_cell_angle_gamma                 90.62914
_cell_volume                      891.698573206

loop_
_atom_site_label
_atom_site_type_symbol
_atom_type_description
_atom_site_fract_x
_atom_site_fract_y
_atom_site_fract_z
_atom_type_partial_charge
C1    C     C_R   0.499754 0.260768 0.499277 0.883823
C2    C     C_R   0.362006 0.933488 0.434714 0.090561
C3    C     C_R   0.496889 0.871403 0.498637 -0.103499
C4    C     C_R   0.637091 0.937132 0.540722 0.035611
C5    C     C_3   0.747786 0.932969 0.672634 -0.128001
C6    C     C_3   0.751169 0.077256 0.668906 -0.089384
C7    C     C_R   0.378132 0.445897 0.054652 0.131160
C8    C     C_R   0.609546 0.567451 0.088222 0.152742
C9    C     C_R   0.612429 0.565129 0.944888 0.059120
C10   C     C_R   0.378519 0.445139 0.912904 0.151133
C11   C     C_3   0.323792 0.309922 0.902427 -0.105422
C12   C     C_R   0.201417 0.498969 0.464239 0.969841
C13   C     C_3   0.320587 0.313013 0.055703 -0.548642
C14   C     C_R   0.499749 0.739348 0.500324 0.913679
C15   C     C_R   0.798619 0.499863 0.535860 0.941969
C16   C     C_2   0.036051 0.495896 0.445466 -0.369339
C17   C     C_2   0.964099 0.500399 0.555086 -0.410218
C18   C     C_R   0.638515 0.066137 0.538236 0.014647
C19   C     C_R   0.499244 0.129119 0.495360 -0.095039
C20   C     C_R   0.364044 0.064602 0.433062 -0.266935
H1    H     H_    0.205782 0.296933 0.839325 0.168169
H2    H     H_    0.199076 0.307114 0.081649 0.187495
H3    H     H_    0.406980 0.250129 0.116297 0.220092
H4    H     H_    0.693330 0.894010 0.758437 0.131554
H5    H     H_    0.699951 0.122631 0.753280 0.155769
N1    N     N_R   0.498950 0.499140 0.142680 -0.116306
N2    N     N_R   0.498950 0.499180 0.857030 -0.121020
O1    O     O_R   0.500020 0.316790 0.614690 -0.594189
O2    O     O_R   0.500000 0.316760 0.385350 -0.626459
O3    O     O_R   0.271760 0.500010 0.587850 -0.610837
O4    O     O_R   0.271740 0.499970 0.358500 -0.620880
O5    O     O_R   0.500000 0.683240 0.614650 -0.646517
O6    O     O_R   0.499980 0.683210 0.385310 -0.590694
O7    O     O_R   0.728260 0.500030 0.641500 -0.653354
O8    O     O_R   0.728240 0.499990 0.412150 -0.588621
Zn1   Zn    Zn3+2 0.500010 0.500020 0.653130 0.930948
Zn2   Zn    Zn3+2 0.499990 0.499980 0.346870 0.957404
H6    H     H_    0.974082 0.489342 0.341754 0.174971
N3    N     N_3   0.741270 0.627543 0.896424 -0.493474
H7    H     H_    0.699064 0.679796 0.810874 0.230177
H8    H     H_    0.819471 0.559216 0.872180 0.204819
N4    N     N_3   0.442534 0.224198 0.863590 -0.402606
H9    H     H_    0.404725 0.131827 0.877807 0.185262
H10   H     H_    0.550355 0.237951 0.927600 0.184911
H11   H     H_    0.026176 0.505612 0.659073 0.173295
H12   H     H_    0.259318 0.115376 0.389930 0.138825
N5    N     N_3   0.222166 0.864145 0.379074 -0.457039
H13   H     H_    0.193596 0.887720 0.276342 0.185011
H14   H     H_    0.129974 0.893930 0.429161 0.193985
N6    N     N_3   0.897139 0.874366 0.655516 -0.431650
H15   H     H_    0.875454 0.777791 0.639026 0.180006
H16   H     H_    0.972572 0.883074 0.748371 0.204574
N7    N     N_3   0.903899 0.132629 0.650078 -0.436571
H17   H     H_    0.935615 0.102271 0.557460 0.214462
H18   H     H_    0.890017 0.230327 0.643300 0.177531
N8    N     N_3   0.724162 0.640244 0.176949 -0.386473
H19   H     H_    0.712481 0.734734 0.148252 0.177546
H20   H     H_    0.836529 0.611094 0.162379 0.172077

loop_
_geom_bond_atom_site_label_1
_geom_bond_atom_site_label_2
_ccdc_geom_bond_type
C10   N2    A    
C8    C9    A    
C7    C10   A    
N6    H16   S    
N4    H10   S    
N1    Zn2   S    
C2    N5    S    
C1    O1    A    
C8    N1    A    
C15   O7    A    
C19   C20   A    
O3    Zn1   S    
N2    Zn1   S    
C4    C18   A    
C8    N8    S    
C14   O6    A    
C1    O2    A    
N6    H15   S    
N5    H14   S    
N7    H17   S    
C11   C13   S    
C9    N2    A    
C16   C17   D    
C3    C14   S    
C7    N1    A    
O5    Zn1   S    
C15   O8    A    
O8    Zn2   S    
C17   H11   S    
C13   H2    S    
C2    C3    A    
O7    Zn1   S    
N7    H18   S    
C12   O4    A    
C5    C6    S    
C6    C18   S    
C20   H12   S    
C5    N6    S    
C1    C19   S    
C6    H5    S    
C10   C11   S    
C6    N7    S    
C2    C20   A    
C3    C4    A    
C12   C16   S    
C9    N3    S    
O1    Zn1   S    
C14   O5    A    
N8    H19   S    
C13   H3    S    
C11   N4    S    
N3    H8    S    
C18   C19   A    
N4    H9    S    
O2    Zn2   S    
N3    H7    S    
C15   C17   S    
C5    H4    S    
C7    C13   S    
O4    Zn2   S    
C16   H6    S    
C12   O3    A    
C11   H1    S    
O6    Zn2   S    
N5    H13   S    
N8    H20   S    
C4    C5    S    
