data_mof_unit_26603.cif
_audit_creation_date              2012-10-26T18:28:20-0400
_audit_creation_method            fapswitch 2.2
_symmetry_space_group_name_H-M    P1
_symmetry_Int_Tables_number       1
_space_group_crystal_system       triclinic
_cell_length_a                    27.442688
_cell_length_b                    10.86153
_cell_length_c                    9.825868
_cell_angle_alpha                 110.561716
_cell_angle_beta                  98.777502
_cell_angle_gamma                 90.46773
_cell_volume                      2704.05341558

loop_
_atom_site_label
_atom_site_type_symbol
_atom_type_description
_atom_site_fract_x
_atom_site_fract_y
_atom_site_fract_z
_atom_type_partial_charge
Br1   Br    Br    0.348865 0.238423 0.287700 -0.518647
Br2   Br    Br    0.024010 0.926081 0.737769 -0.433594
Br3   Br    Br    0.633122 0.687655 0.347747 -0.400487
Br4   Br    Br    0.525601 0.012065 0.773125 -0.353836
Br5   Br    Br    0.514069 0.995486 0.243072 -0.368144
Br6   Br    Br    0.572066 0.683341 0.978330 -0.235627
Br7   Br    Br    0.431945 0.306400 0.019602 -0.352438
Br8   Br    Br    0.102213 0.316009 0.002682 -0.367936
Br9   Br    Br    0.900507 0.683658 0.951778 -0.514042
Br10  Br    Br    0.969352 0.151723 0.173684 -0.414777
C1    C     C_R   0.495021 0.253137 0.441609 0.579740
C2    C     C_R   0.869649 0.403852 0.390824 -0.009487
C3    C     C_R   0.353630 0.500144 0.500221 -0.052805
C4    C     C_R   0.646298 0.500044 0.499940 -0.049765
C5    C     C_R   0.969644 0.430630 0.363703 -0.007163
C6    C     C_R   0.030663 0.645621 0.576133 0.024895
C7    C     C_R   0.983504 0.614553 0.602908 0.056675
C8    C     C_R   0.017585 0.459960 0.340017 0.006876
C9    C     C_R   0.951786 0.515411 0.489860 -0.060982
C10   C     C_R   0.049160 0.558884 0.453291 -0.063692
C11   C     C_R   0.940253 0.313317 0.274942 0.220833
C12   C     C_R   0.500499 0.746848 0.558069 0.571738
C13   C     C_R   0.057755 0.768319 0.655714 0.198964
C14   C     C_R   0.889884 0.302542 0.284070 0.289832
C15   C     C_R   0.107768 0.784591 0.644385 0.297592
C16   C     C_R   0.407269 0.498910 0.500298 0.585987
C17   C     C_R   0.592719 0.501307 0.499851 0.587970
C18   C     C_R   0.033435 0.406406 0.200978 0.309593
C19   C     C_R   0.969977 0.665070 0.745661 0.301281
C20   C     C_2   0.488909 0.111778 0.411863 0.151018
C21   C     C_2   0.494039 0.887448 0.585725 0.140636
C22   C     C_2   0.466865 0.067848 0.501905 0.265361
C23   C     C_R   0.099089 0.575668 0.440282 -0.134733
C24   C     C_2   0.466624 0.925661 0.481803 0.244703
C25   C     C_2   0.502777 0.513571 0.081279 0.114834
C26   C     C_2   0.495259 0.491492 0.919699 0.107325
C27   C     C_R   0.169006 0.509027 0.316856 0.479426
C28   C     C_R   0.833094 0.579192 0.630360 0.429684
C29   C     C_R   0.181311 0.677954 0.544803 0.437849
C30   C     C_R   0.818577 0.407922 0.393816 0.461176
C31   C     C_R   0.283799 0.599152 0.609649 0.272550
C32   C     C_R   0.725998 0.425246 0.575795 0.268709
C33   C     C_R   0.334871 0.595420 0.613952 0.212830
C34   C     C_R   0.902004 0.499870 0.504207 -0.124575
C35   C     C_R   0.674237 0.421028 0.565627 0.212191
C36   C     C_R   0.321048 0.401554 0.391350 0.074283
C37   C     C_R   0.669907 0.577417 0.436986 0.105143
C38   C     C_R   0.269114 0.416996 0.375797 0.271610
C39   C     C_R   0.721383 0.577917 0.442487 0.281463
C40   C     C_R   0.251136 0.532511 0.474807 0.124289
C41   C     C_R   0.749156 0.500431 0.510178 0.183699
C42   C     C_3   0.242012 0.253955 0.143988 0.014131
C43   C     C_3   0.758551 0.774369 0.466169 -0.044038
C44   C     C_3   0.638580 0.216505 0.510467 -0.044784
C45   C     C_R   0.117578 0.496345 0.314157 -0.010487
C46   C     C_3   0.374085 0.798418 0.724125 -0.055838
C47   C     C_3   0.758557 0.397949 0.790332 -0.031752
C48   C     C_3   0.249506 0.562968 0.789647 -0.055235
C49   C     C_3   0.856276 0.103884 0.266597 -0.025585
C50   C     C_3   0.135413 0.982558 0.643348 -0.023433
C51   C     C_3   0.979657 0.453454 0.029365 -0.044427
C52   C     C_3   0.002976 0.814543 0.982615 -0.017719
C53   C     C_3   0.396714 0.857769 0.303319 -0.081251
C54   C     C_3   0.400736 0.120617 0.624683 -0.083390
C55   C     C_R   0.884687 0.578838 0.632603 0.014538
C56   C     C_R   0.083685 0.416118 0.190280 0.210808
C57   C     C_R   0.919674 0.646983 0.760034 0.169931
C58   C     C_R   0.129955 0.679797 0.547244 -0.011982
Cu1   Cu    Cu3+1 0.508480 0.521810 0.644910 1.148437
Cu2   Cu    Cu3+1 0.491520 0.478190 0.355090 1.142305
H1    H     H_    0.466726 0.419711 0.845196 0.180266
H2    H     H_    0.613009 0.223980 0.414584 0.132393
H3    H     H_    0.619130 0.153057 0.555176 0.180348
H4    H     H_    0.400650 0.861469 0.821184 0.191061
H5    H     H_    0.339159 0.849614 0.722016 0.158450
H6    H     H_    0.390533 0.787821 0.624082 0.072056
H7    H     H_    0.723533 0.381553 0.826940 0.194913
H8    H     H_    0.770660 0.504662 0.836347 0.180015
H9    H     H_    0.787218 0.345992 0.837397 0.171709
H10   H     H_    0.216199 0.505799 0.713330 0.125612
H11   H     H_    0.238535 0.612282 0.899070 0.174321
H12   H     H_    0.529409 0.590313 0.156751 0.194709
H13   H     H_    0.278700 0.495479 0.802859 0.122582
H14   H     H_    0.835678 0.011667 0.188438 0.190549
H15   H     H_    0.834891 0.146053 0.357899 0.136262
H16   H     H_    0.892755 0.076905 0.310703 0.144744
H17   H     H_    0.152216 0.934038 0.543181 0.125351
H18   H     H_    0.158339 0.074603 0.710580 0.170774
H19   H     H_    0.097902 0.010873 0.610188 0.162176
H20   H     H_    0.008923 0.514677 0.011015 0.167860
H21   H     H_    0.958105 0.516321 0.111889 0.136665
H22   H     H_    0.953956 0.409015 0.923489 0.192645
H23   H     H_    0.257030 0.155806 0.123470 0.176991
H24   H     H_    0.996570 0.790746 0.079663 0.156845
H25   H     H_    0.973368 0.875106 0.954144 0.216415
H26   H     H_    0.038342 0.875823 0.016948 0.199100
H27   H     H_    0.395626 0.948126 0.274703 0.170485
H28   H     H_    0.373632 0.864287 0.389027 0.078517
H29   H     H_    0.380278 0.774584 0.202415 0.181774
H30   H     H_    0.399322 0.033606 0.658758 0.114592
H31   H     H_    0.376494 0.102377 0.517087 0.128063
H32   H     H_    0.385603 0.203108 0.706812 0.186626
H33   H     H_    0.265188 0.317490 0.107624 0.149281
H34   H     H_    0.205341 0.234652 0.072519 0.200666
H35   H     H_    0.728951 0.823164 0.527971 0.154382
H36   H     H_    0.767430 0.833545 0.400224 0.160211
H37   H     H_    0.792535 0.776420 0.544229 0.156350
H38   H     H_    0.672208 0.167401 0.474075 0.169110
N1    N     N_R   0.199855 0.570425 0.448374 -0.382266
N2    N     N_R   0.801506 0.496600 0.510918 -0.366781
N3    N     N_2   0.478780 0.445430 0.137360 -0.110332
N4    N     N_2   0.521220 0.554570 0.862640 -0.114439
O1    O     O_R   0.504520 0.332330 0.577400 -0.479124
O2    O     O_2   0.814227 0.665722 0.742277 -0.459441
O3    O     O_2   0.786078 0.326415 0.279750 -0.418350
O4    O     O_2   0.211236 0.784719 0.629607 -0.410468
O5    O     O_3   0.235378 0.310565 0.293133 -0.526196
O6    O     O_3   0.743965 0.644321 0.369303 -0.508257
O7    O     O_3   0.651003 0.341001 0.622478 -0.543368
O8    O     O_3   0.366349 0.675337 0.738262 -0.515443
O9    O     O_3   0.753918 0.345179 0.635307 -0.558390
O10   O     O_3   0.267286 0.660439 0.741855 -0.484198
O11   O     O_3   0.861311 0.190640 0.190094 -0.485844
O12   O     O_R   0.495480 0.667670 0.422600 -0.467421
O13   O     O_3   0.134312 0.902521 0.729612 -0.487299
O14   O     O_3   0.999800 0.351140 0.072221 -0.487194
O15   O     O_3   0.008473 0.697154 0.865578 -0.573410
O16   O     O_3   0.445574 0.831008 0.346970 -0.543266
O17   O     O_3   0.449756 0.158102 0.622059 -0.543562
O18   O     O_R   0.490210 0.295500 0.332650 -0.434315
O19   O     O_R   0.509790 0.704500 0.667350 -0.454483
O20   O     O_R   0.437420 0.518430 0.622370 -0.484000
O21   O     O_R   0.562580 0.481570 0.377630 -0.494981
O22   O     O_R   0.423110 0.481600 0.377610 -0.454164
O23   O     O_R   0.576890 0.518400 0.622390 -0.435402
O24   O     O_2   0.187349 0.474787 0.190553 -0.460727

loop_
_geom_bond_atom_site_label_1
_geom_bond_atom_site_label_2
_ccdc_geom_bond_type
C23   C45   A    
C5    C8    A    
C42   H33   S    
Br8   C56   S    
C46   H6    S    
C52   H26   S    
C12   O19   A    
C7    C19   A    
C29   C58   A    
C47   H9    S    
C25   C26   S    
Br9   C57   S    
C50   H18   S    
C16   O20   A    
C37   C39   A    
C50   H19   S    
C51   H20   S    
C5    C9    A    
Cu1   O1    S    
C50   O13   S    
C53   H28   S    
C52   O15   S    
C28   O2    S    
Cu1   N4    S    
Br1   C36   S    
C30   O3    S    
Cu2   O18   S    
C54   H32   S    
C15   O13   S    
C53   H29   S    
C19   C57   A    
C43   H36   S    
C25   H12   S    
C1    C20   S    
C6    C7    A    
C55   C57   A    
C26   N4    D    
Cu2   O21   S    
C51   O14   S    
C4    C17   S    
C28   N2    A    
C27   N1    A    
C53   O16   S    
C26   H1    S    
C6    C10   A    
C33   O8    S    
C42   O5    S    
C35   O7    S    
C38   C40   A    
Cu1   O23   S    
C46   H5    S    
C52   H25   S    
C31   C33   A    
C34   C55   A    
C15   C58   A    
C22   O17   S    
C50   H17   S    
C18   O14   S    
C46   O8    S    
C4    C35   A    
Br10  C11   S    
C49   O11   S    
C54   H31   S    
C36   C38   A    
C48   O10   S    
C46   H4    S    
C12   C21   S    
C29   N1    A    
C17   O21   A    
C47   H7    S    
C8    C18   A    
C49   H14   S    
C48   H11   S    
C43   O6    S    
C30   N2    A    
C39   C41   A    
C40   N1    S    
C32   C35   A    
C22   C24   S    
C31   O10   S    
C2    C30   A    
C18   C56   A    
C49   H15   S    
C16   O22   A    
Cu2   O12   S    
C44   H3    S    
C43   H37   S    
C39   O6    S    
C28   C55   A    
C5    C11   A    
Cu1   O19   S    
C27   O24   S    
C42   H23   S    
C4    C37   A    
C10   C23   A    
C41   N2    S    
C19   O15   S    
C3    C16   S    
C1    O18   A    
C31   C40   A    
C3    C33   A    
C45   C56   A    
C25   N3    D    
C9    C34   A    
Br5   C20   S    
C2    C14   A    
C42   H34   S    
Br6   N4    S    
C47   H8    S    
C21   C24   D    
C51   H22   S    
C12   O12   A    
C38   O5    S    
C48   H10   S    
C6    C13   A    
C32   C41   A    
C44   H38   S    
C17   O23   A    
C52   H24   S    
C49   H16   S    
C53   H27   S    
C48   H13   S    
C20   C22   D    
C3    C36   A    
Cu1   O20   S    
Br3   C37   S    
C7    C9    A    
Br7   N3    S    
C8    C10   A    
C14   O11   S    
Cu1   Cu2   S    
C1    O1    A    
Br4   C21   S    
Cu2   N3    S    
C47   O9    S    
C27   C45   A    
C43   H35   S    
C54   H30   S    
C13   C15   A    
C44   H2    S    
C54   O17   S    
C23   C58   A    
C24   O16   S    
C29   O4    S    
C11   C14   A    
Br2   C13   S    
Cu2   O22   S    
C2    C34   A    
C44   O7    S    
C51   H21   S    
C32   O9    S    
