data_mof_unit_47972.cif
_audit_creation_date              2012-12-10T18:22:35-0500
_audit_creation_method            fapswitch 2.2
_symmetry_space_group_name_H-M    P1
_symmetry_Int_Tables_number       1
_space_group_crystal_system       triclinic
_cell_length_a                    23.480477
_cell_length_b                    10.624656
_cell_length_c                    9.433074
_cell_angle_alpha                 90.052444
_cell_angle_beta                  90.214679
_cell_angle_gamma                 90.174636
_cell_volume                      2353.25929006

loop_
_atom_site_label
_atom_site_type_symbol
_atom_type_description
_atom_site_fract_x
_atom_site_fract_y
_atom_site_fract_z
_atom_type_partial_charge
C1    C     C_R   0.500563 0.259650 0.499903 0.793356
C2    C     C_R   0.499437 0.740350 0.500097 0.793353
C3    C     C_R   0.237909 0.579317 0.405945 -0.067853
C4    C     C_R   0.762092 0.420720 0.594078 -0.067864
C5    C     C_R   0.297630 0.584794 0.404331 -0.044299
C6    C     C_R   0.702372 0.415237 0.595693 -0.044289
C7    C     C_R   0.328671 0.507606 0.499584 -0.132073
C8    C     C_R   0.671329 0.492399 0.500416 -0.132078
C9    C     C_R   0.299490 0.431211 0.596720 -0.206459
C10   C     C_R   0.700510 0.568777 0.403261 -0.206450
C11   C     C_R   0.240118 0.427610 0.598092 0.013949
C12   C     C_R   0.759881 0.572384 0.401889 0.013950
C13   C     C_R   0.209233 0.501471 0.501686 0.260547
C14   C     C_R   0.790767 0.498546 0.498316 0.260557
C15   C     C_3   0.529299 0.041683 0.614378 -0.194299
C16   C     C_3   0.470701 0.958316 0.385622 -0.194296
C17   C     C_3   0.553024 0.958314 0.494910 0.011183
C18   C     C_3   0.446976 0.041686 0.505089 0.011180
C19   C     C_3   0.499354 0.877064 0.500303 -0.044381
C20   C     C_3   0.500646 0.122935 0.499697 -0.044382
C21   C     C_3   0.474719 0.958910 0.619889 -0.175546
C22   C     C_3   0.525281 0.041089 0.380111 -0.175546
C23   C     C_R   0.391189 0.503410 0.499771 0.786540
C24   C     C_R   0.608811 0.496590 0.500229 0.786545
C25   C     C_3   0.531910 0.587638 0.049648 0.092264
C26   C     C_3   0.468090 0.412361 0.950352 0.092264
C27   C     C_3   0.481387 0.606361 0.949084 -0.078058
C28   C     C_3   0.518613 0.393639 0.050916 -0.078054
C29   C     C_3   0.551055 0.482593 0.949827 -0.077551
C30   C     C_3   0.448945 0.517407 0.050173 -0.077554
C31   C     C_R   0.880250 0.591826 0.571191 0.556339
C32   C     C_R   0.119750 0.408195 0.428805 0.556338
C33   C     C_R   0.880217 0.407459 0.425752 0.550306
C34   C     C_R   0.119783 0.592560 0.574245 0.550304
C35   C     C_R   0.939946 0.405698 0.424957 -0.018421
C36   C     C_R   0.060054 0.594323 0.575039 -0.018421
C37   C     C_R   0.969949 0.499954 0.499563 -0.013904
C38   C     C_R   0.030052 0.500066 0.500432 -0.013903
C39   C     C_R   0.939988 0.594054 0.573369 -0.020493
C40   C     C_R   0.060012 0.405967 0.426626 -0.020493
C41   C     C_R   0.970240 0.312327 0.351743 -0.146625
C42   C     C_R   0.029761 0.687694 0.648253 -0.146625
C43   C     C_R   0.029663 0.312465 0.352562 -0.146178
C44   C     C_R   0.970337 0.687556 0.647433 -0.146178
Cu1   Cu    Cu3+1 0.500010 0.499990 0.643150 0.954268
Cu2   Cu    Cu3+1 0.499990 0.500010 0.356850 0.954268
H1    H     H_    0.948159 0.238874 0.293618 0.196428
H2    H     H_    0.051842 0.761147 0.706378 0.196428
H3    H     H_    0.466066 0.695852 0.901958 0.132719
H4    H     H_    0.533934 0.304148 0.098041 0.132721
H5    H     H_    0.594003 0.468760 0.903713 0.146820
H6    H     H_    0.405997 0.531241 0.096288 0.146805
H7    H     H_    0.051701 0.239139 0.295019 0.196492
H8    H     H_    0.948299 0.760882 0.704976 0.196492
H9    H     H_    0.213086 0.637470 0.334624 0.185240
H10   H     H_    0.786917 0.362583 0.665416 0.185232
H11   H     H_    0.323145 0.372817 0.670352 0.180599
H12   H     H_    0.676853 0.627154 0.329614 0.180599
H13   H     H_    0.553653 0.078221 0.706872 0.155002
H14   H     H_    0.446347 0.921779 0.293128 0.155009
H15   H     H_    0.453624 0.923118 0.717060 0.153921
H16   H     H_    0.546376 0.076882 0.282939 0.153922
N1    N     N_R   0.851827 0.499587 0.498043 -0.471998
N2    N     N_R   0.148174 0.500433 0.501955 -0.471998
N3    N     N_3   0.500040 0.499970 0.858290 -0.180043
N4    N     N_3   0.499960 0.500030 0.141710 -0.180042
O1    O     O_R   0.500030 0.316850 0.620870 -0.583442
O2    O     O_R   0.499970 0.683150 0.379130 -0.583443
O3    O     O_R   0.500000 0.316860 0.379090 -0.581990
O4    O     O_R   0.500000 0.683140 0.620910 -0.581990
O5    O     O_R   0.417890 0.499960 0.620920 -0.567428
O6    O     O_R   0.582110 0.500040 0.379080 -0.567428
O7    O     O_R   0.417870 0.499970 0.379140 -0.591409
O8    O     O_R   0.582130 0.500030 0.620860 -0.591410
O9    O     O_2   0.850729 0.680735 0.641653 -0.509172
O10   O     O_2   0.149271 0.319286 0.358341 -0.509174
O11   O     O_2   0.850664 0.318142 0.354829 -0.513093
O12   O     O_2   0.149336 0.681876 0.645171 -0.513092
C45   C     C_1   0.568189 0.687513 0.108486 0.267468
N5    N     N_1   0.596765 0.766536 0.154684 -0.286345
C46   C     C_1   0.431810 0.312488 0.891513 0.267470
N6    N     N_1   0.403234 0.233464 0.845315 -0.286346
C47   C     C_2   0.326275 0.676305 0.308822 0.370718
H17   H     H_    0.370750 0.700711 0.323684 0.069982
O13   O     O_2   0.300131 0.727464 0.212796 -0.522005
C48   C     C_2   0.673729 0.323745 0.691227 0.370725
H18   H     H_    0.629259 0.299304 0.676346 0.069980
O14   O     O_2   0.699869 0.272641 0.787298 -0.522015
C49   C     C_1   0.211334 0.348006 0.698972 0.310349
N7    N     N_1   0.188198 0.284172 0.779861 -0.225103
C50   C     C_1   0.788664 0.651970 0.300989 0.310343
N8    N     N_1   0.811799 0.715791 0.220085 -0.225103
C51   C     C_1   0.611458 0.910078 0.489874 0.256052
N9    N     N_1   0.657545 0.872048 0.486004 -0.242376
C52   C     C_1   0.388541 0.089920 0.510125 0.256064
N10   N     N_1   0.342454 0.127948 0.513994 -0.242374

loop_
_geom_bond_atom_site_label_1
_geom_bond_atom_site_label_2
_ccdc_geom_bond_type
C51   N9    T    
Cu1   O5    S    
C18   C21   S    
C12   C50   S    
C36   C42   A    
C52   N10   T    
C24   O8    A    
C46   N6    T    
Cu1   Cu2   S    
C28   C29   S    
C10   H12   S    
Cu2   N4    S    
C2    O2    A    
C5    C47   S    
C48   O14   D    
C18   C20   S    
C7    C9    A    
C16   H14   S    
Cu2   O3    S    
C17   C19   S    
C28   H4    S    
C43   H7    S    
C40   C43   A    
Cu1   O1    S    
Cu2   O6    S    
C3    C13   A    
C2    C19   S    
C4    H10   S    
C27   C30   S    
C18   C52   S    
C41   C43   A    
C42   C44   A    
C23   O7    A    
C26   C28   S    
C25   C29   S    
C15   C20   S    
C31   N1    A    
C32   N2    A    
C4    C6    A    
C50   N8    T    
C5    C7    A    
C48   H18   S    
C6    C8    A    
C1    O3    A    
Cu1   O8    S    
C28   N4    S    
Cu2   O2    S    
C37   C38   A    
C27   N3    S    
C23   O5    A    
C22   H16   S    
C11   C49   S    
C31   O9    S    
C47   H17   S    
C33   N1    A    
C34   N2    A    
C41   H1    S    
C42   H2    S    
C9    C11   A    
C30   N4    S    
C10   C12   A    
C29   N3    S    
C8    C10   A    
C47   O13   D    
C20   C22   S    
C26   C30   S    
C26   C46   S    
Cu1   N3    S    
C17   C51   S    
C24   O6    A    
C29   H5    S    
C21   H15   S    
C15   C17   S    
C30   H6    S    
C1    C20   S    
C16   C22   S    
C35   C37   A    
Cu1   O4    S    
C25   C45   S    
C26   N3    S    
C15   H13   S    
C25   N4    S    
C12   C14   A    
C3    C5    A    
C32   O10   S    
C39   C44   A    
C1    O1    A    
C25   C27   S    
C3    H9    S    
C17   C22   S    
C6    C48   S    
C36   C38   A    
C37   C39   A    
C34   O12   S    
C38   C40   A    
C11   C13   A    
C33   C35   A    
C33   O11   S    
C13   N2    S    
C16   C19   S    
C7    C23   S    
C14   N1    S    
C8    C24   S    
C34   C36   A    
C31   C39   A    
C9    H11   S    
C32   C40   A    
C4    C14   A    
C35   C41   A    
C45   N5    T    
C44   H8    S    
C15   C21   S    
C16   C18   S    
C49   N7    T    
C2    O4    A    
Cu2   O7    S    
C27   H3    S    
C19   C21   S    
