data_mof_unit_40890.cif
_audit_creation_date              2012-12-10T17:02:56-0500
_audit_creation_method            fapswitch 2.2
_symmetry_space_group_name_H-M    P1
_symmetry_Int_Tables_number       1
_space_group_crystal_system       triclinic
_cell_length_a                    9.807452
_cell_length_b                    11.059202
_cell_length_c                    13.465873
_cell_angle_alpha                 94.372402
_cell_angle_beta                  81.538153
_cell_angle_gamma                 111.549913
_cell_volume                      1343.26965396

loop_
_atom_site_label
_atom_site_type_symbol
_atom_type_description
_atom_site_fract_x
_atom_site_fract_y
_atom_site_fract_z
_atom_type_partial_charge
C1    C     C_R   0.557164 0.745754 0.507430 0.784745
C2    C     C_R   0.444925 0.466517 0.966331 -0.005448
C3    C     C_R   0.480112 0.521772 0.869731 0.030884
C4    C     C_R   0.553898 0.512439 0.033526 0.080653
C5    C     C_R   0.701828 0.591578 0.998418 0.098229
C6    C     C_R   0.733332 0.645649 0.902946 -0.051386
C7    C     C_R   0.620317 0.618619 0.843784 -0.197672
C8    C     C_R   0.517094 0.492601 0.136784 -0.152855
C9    C     C_R   0.773983 0.587679 0.163173 -0.174993
C10   C     C_R   0.376000 0.476239 0.799623 -0.094455
C11   C     C_2   0.591838 0.885671 0.512006 0.220185
C12   C     C_R   0.423362 0.492560 0.690794 0.797663
C13   C     C_2   0.487511 0.932182 0.499219 -0.221500
C14   C     C_2   0.410841 0.115050 0.489054 -0.343637
C15   C     C_2   0.516006 0.070954 0.502662 -0.091699
C16   C     C_2   0.922162 0.489609 0.491686 -0.047517
C17   C     C_2   0.077124 0.509139 0.509221 -0.055178
C18   C     C_R   0.443033 0.254393 0.492833 0.879339
C19   C     C_R   0.578035 0.512953 0.309666 0.812298
C20   C     C_R   0.811935 0.622189 0.062745 -0.163729
C21   C     C_R   0.625275 0.528316 0.201538 -0.070183
C22   C     C_R   0.232189 0.391959 0.830841 -0.246969
C23   C     C_R   0.197599 0.336092 0.924308 -0.142588
C24   C     C_R   0.304609 0.364520 0.989026 0.355939
Cu1   Cu    Cu3+1 0.362000 0.479240 0.482530 0.983702
Cu2   Cu    Cu3+1 0.638000 0.520760 0.517470 0.984532
H1    H     H_    0.859497 0.616015 0.212072 0.166981
H2    H     H_    0.377792 0.866318 0.485653 0.160308
H3    H     H_    0.301572 0.048651 0.475218 0.179600
H4    H     H_    0.125860 0.576746 0.568227 0.160687
H5    H     H_    0.872765 0.420801 0.433512 0.166985
H6    H     H_    0.106147 0.385168 0.400194 0.220514
H7    H     H_    0.895055 0.617154 0.598252 0.207183
H8    H     H_    0.926741 0.677171 0.036989 0.159787
H9    H     H_    0.402678 0.458564 0.168896 0.202108
H10   H     H_    0.150453 0.357901 0.779034 0.188037
H11   H     H_    0.090197 0.260854 0.942589 0.190997
H12   H     H_    0.644329 0.673683 0.776166 0.172643
H13   H     H_    0.624422 0.138680 0.516375 0.231035
N1    N     N_2   0.845330 0.551960 0.543750 -0.280930
N2    N     N_2   0.154690 0.448120 0.456210 -0.273210
O1    O     O_R   0.426290 0.668220 0.490680 -0.609254
O2    O     O_R   0.659360 0.703290 0.520190 -0.528479
O3    O     O_R   0.326580 0.473880 0.629020 -0.577419
O4    O     O_R   0.559660 0.508940 0.658530 -0.573949
O5    O     O_R   0.340640 0.296710 0.479810 -0.546329
O6    O     O_R   0.573710 0.331780 0.509320 -0.581622
O7    O     O_R   0.440340 0.491060 0.341470 -0.570822
O8    O     O_R   0.673420 0.526120 0.370980 -0.582277
Cl1   Cl    Cl    0.772497 0.987935 0.534435 -0.606987
C25   C     C_1   0.878303 0.736094 0.865920 0.238079
N3    N     N_1   0.994225 0.808400 0.836162 -0.254922
Cl2   Cl    Cl    0.263559 0.248958 0.083317 -0.627109

loop_
_geom_bond_atom_site_label_1
_geom_bond_atom_site_label_2
_ccdc_geom_bond_type
Cu1   O1    S    
C2    C4    A    
H6    N2    S    
C13   H2    S    
C6    C7    A    
C12   O4    A    
C6    C25   S    
C22   H10   S    
C14   C18   S    
C9    C20   A    
C14   C15   D    
C4    C8    A    
C23   C24   A    
C20   H8    S    
C18   O6    A    
C2    C3    A    
Cu1   Cu2   S    
C12   O3    A    
C3    C10   A    
C10   C22   A    
C16   H5    S    
C17   H4    S    
C11   C13   D    
Cu1   O7    S    
Cu2   N1    S    
C10   C12   S    
Cu2   O6    S    
C16   N1    D    
C18   O5    A    
Cu1   O3    S    
C19   C21   S    
C7    H12   S    
Cu2   O2    S    
C8    C21   A    
C3    C7    A    
C13   C15   S    
C2    C24   A    
C5    C6    A    
C5    C20   A    
C17   N2    D    
H7    N1    S    
C14   H3    S    
C25   N3    T    
C9    C21   A    
C1    O1    A    
C9    H1    S    
Cu2   O8    S    
Cu1   N2    S    
C11   Cl1   S    
C19   O8    A    
C19   O7    A    
C16   C17   S    
Cu2   O4    S    
C24   Cl2   S    
C23   H11   S    
Cu1   O5    S    
C1    O2    A    
C22   C23   A    
C15   H13   S    
C4    C5    A    
C8    H9    S    
C1    C11   S    
