data_mof_unit_45657.cif
_audit_creation_date              2012-12-10T19:04:15-0500
_audit_creation_method            fapswitch 2.2
_symmetry_space_group_name_H-M    P1
_symmetry_Int_Tables_number       1
_space_group_crystal_system       triclinic
_cell_length_a                    10.639181
_cell_length_b                    10.814698
_cell_length_c                    9.581546
_cell_angle_alpha                 90.466817
_cell_angle_beta                  90.350067
_cell_angle_gamma                 90.101697
_cell_volume                      1102.38917164

loop_
_atom_site_label
_atom_site_type_symbol
_atom_type_description
_atom_site_fract_x
_atom_site_fract_y
_atom_site_fract_z
_atom_type_partial_charge
Br1   Br    Br    0.763722 0.352471 0.127609 -0.310056
Br2   Br    Br    0.623671 0.862903 0.879519 -0.374921
C1    C     C_R   0.494754 0.262656 0.499391 0.894762
C2    C     C_R   0.523232 0.938362 0.617284 0.013951
C3    C     C_3   0.645722 0.932723 0.694765 0.090389
C4    C     C_R   0.259594 0.498808 0.499425 0.820595
C5    C     C_3   0.648465 0.074084 0.688373 0.227131
C6    C     C_R   0.594423 0.556230 0.074416 0.235805
C7    C     C_R   0.402739 0.450885 0.073130 0.038785
C8    C     C_R   0.403145 0.450091 0.924616 0.009874
C9    C     C_R   0.592360 0.559707 0.927592 0.283093
C10   C     C_3   0.729495 0.535579 0.918439 -0.511298
C11   C     C_3   0.731128 0.523205 0.075522 0.052329
C12   C     C_3   0.958271 0.580539 0.406110 -0.201628
C13   C     C_R   0.494860 0.737491 0.500443 0.857692
C14   C     C_R   0.740711 0.499979 0.500530 0.831414
C15   C     C_3   0.043562 0.416533 0.593609 -0.195239
C16   C     C_3   0.958477 0.386439 0.467385 0.439267
C17   C     C_3   0.877889 0.499303 0.501592 -0.072220
C18   C     C_3   0.961811 0.530703 0.628076 -0.201974
C19   C     C_3   0.043830 0.611946 0.532719 -0.124563
C20   C     C_3   0.040134 0.466187 0.370997 -0.127506
C21   C     C_3   0.123086 0.497842 0.498088 -0.058671
C22   C     C_R   0.525076 0.065038 0.614477 0.005389
C23   C     C_R   0.479844 0.129601 0.499974 -0.273305
C24   C     C_R   0.412436 0.064165 0.395107 0.358202
C25   C     C_R   0.411976 0.933742 0.396294 0.345096
C26   C     C_R   0.478678 0.870656 0.502682 -0.274774
Cl1   Cl    Cl    0.902469 0.234583 0.429440 -0.554626
Cl2   Cl    Cl    0.633984 0.156436 0.850200 -0.426625
Cl3   Cl    Cl    0.328026 0.142748 0.263244 -0.481574
Cl4   Cl    Cl    0.326828 0.852272 0.265414 -0.484401
Cu1   Cu    Cu3+1 0.499990 0.499980 0.640670 1.012772
Cu2   Cu    Cu3+1 0.500010 0.500020 0.359330 1.060635
H1    H     H_    0.721148 0.887790 0.632626 0.089042
H2    H     H_    0.082045 0.704815 0.559454 0.172673
H3    H     H_    0.921456 0.648853 0.330468 0.168625
H4    H     H_    0.074263 0.438932 0.265899 0.182961
H5    H     H_    0.724018 0.110606 0.620541 0.131416
H6    H     H_    0.325202 0.408487 0.127367 0.165171
H7    H     H_    0.326237 0.406470 0.868625 0.146307
H8    H     H_    0.752141 0.448641 0.861386 0.261013
H9    H     H_    0.780577 0.619013 0.882769 0.187302
H10   H     H_    0.790690 0.593761 0.128814 0.130871
H11   H     H_    0.080901 0.348834 0.669791 0.176734
H12   H     H_    0.932014 0.557914 0.734076 0.166900
N1    N     N_R   0.500800 0.500930 0.147930 -0.184662
N2    N     N_R   0.500800 0.500890 0.852020 -0.184513
O1    O     O_R   0.500000 0.319640 0.618810 -0.554930
O2    O     O_R   0.500010 0.319680 0.381230 -0.512361
O3    O     O_R   0.316850 0.499950 0.618770 -0.602315
O4    O     O_R   0.316860 0.499990 0.381190 -0.580639
O5    O     O_R   0.499990 0.680320 0.618770 -0.559601
O6    O     O_R   0.500000 0.680360 0.381190 -0.544586
O7    O     O_R   0.683140 0.500010 0.618810 -0.594965
O8    O     O_R   0.683150 0.500050 0.381230 -0.564241

loop_
_geom_bond_atom_site_label_1
_geom_bond_atom_site_label_2
_ccdc_geom_bond_type
C7    H6    S    
C9    C10   S    
C14   O8    A    
C22   C23   A    
Cu2   O8    S    
C6    C11   S    
C4    O3    A    
Cu1   O3    S    
Cu1   O5    S    
C6    N1    A    
C7    C8    A    
Cu2   O4    S    
C17   C18   S    
C12   C20   S    
C19   C21   S    
Cu1   Cu2   S    
C1    O1    A    
C14   O7    A    
C24   Cl3   S    
C5    Cl2   S    
C18   C19   S    
C8    H7    S    
C9    N2    A    
Cu2   O6    S    
C16   Cl1   S    
C24   C25   A    
C15   C21   S    
C6    C9    A    
C4    C21   S    
C3    H1    S    
C12   C19   S    
C2    C26   A    
C1    O2    A    
C15   H11   S    
C7    N1    A    
C10   H9    S    
C3    C5    S    
C14   C17   S    
C8    N2    A    
C2    C22   A    
Cu2   O2    S    
Br2   C3    S    
Br1   C11   S    
C25   Cl4   S    
C13   C26   S    
C5    C22   S    
C20   H4    S    
C13   O6    A    
C13   O5    A    
C1    C23   S    
C15   C18   S    
C10   C11   S    
C15   C16   S    
C16   C17   S    
C25   C26   A    
C19   H2    S    
Cu1   N2    S    
C5    H5    S    
C20   C21   S    
C10   H8    S    
Cu2   N1    S    
C4    O4    A    
C23   C24   A    
C16   C20   S    
Cu1   O1    S    
C12   C17   S    
C11   H10   S    
C18   H12   S    
Cu1   O7    S    
C2    C3    S    
C12   H3    S    
