data_mof_unit_21934.cif
_audit_creation_date              2013-03-05T15:46:58-0500
_audit_creation_method            fapswitch 2.2
_symmetry_space_group_name_H-M    P1
_symmetry_Int_Tables_number       1
_space_group_crystal_system       triclinic
_cell_length_a                    10.278113
_cell_length_b                    10.620634
_cell_length_c                    14.856745
_cell_angle_alpha                 91.762119
_cell_angle_beta                  81.664891
_cell_angle_gamma                 94.951454
_cell_volume                      1598.37113611

loop_
_atom_site_label
_atom_site_type_symbol
_atom_site_description
_atom_site_fract_x
_atom_site_fract_y
_atom_site_fract_z
_atom_type_partial_charge
O1    O     O_R   0.431060 0.692470 0.507460 -0.641848
O2    O     O_R   0.568940 0.307530 0.492540 -0.578098
O3    O     O_R   0.651120 0.659650 0.483670 -0.563092
O4    O     O_R   0.348880 0.340350 0.516330 -0.595003
C1    C     C_R   0.554238 0.733683 0.498496 0.840002
C2    C     C_R   0.445906 0.266783 0.511039 0.989134
O5    O     O_R   0.389960 0.516440 0.644050 -0.642160
O6    O     O_R   0.610040 0.483560 0.355950 -0.631988
O7    O     O_R   0.610030 0.483620 0.620260 -0.563338
O8    O     O_R   0.389970 0.516380 0.379740 -0.545785
C3    C     C_R   0.500430 0.500696 0.673359 1.043827
C4    C     C_R   0.499494 0.497533 0.327238 0.920400
Zn1   Zn    Zn3+2 0.353060 0.521920 0.515880 1.027797
Zn2   Zn    Zn3+2 0.646940 0.478080 0.484120 1.055767
C5    C     C_R   0.479941 0.375619 0.186311 -0.042731
C6    C     C_R   0.569560 0.602821 0.811441 -0.042845
C7    C     C_R   0.503512 0.493101 0.230295 -0.163798
C8    C     C_R   0.503745 0.499140 0.770322 -0.161737
C9    C     C_R   0.553327 0.602529 0.182206 -0.112953
C10   C     C_R   0.457195 0.388299 0.819124 -0.042102
C11   C     C_R   0.590935 0.592476 0.087882 0.061712
C12   C     C_R   0.496735 0.373950 0.904570 -0.009018
C13   C     C_R   0.552859 0.479448 0.042308 0.016623
C14   C     C_R   0.552833 0.480706 0.948239 0.023729
C15   C     C_R   0.508153 0.367499 0.090663 -0.000081
C16   C     C_R   0.600167 0.591544 0.899883 0.004876
C17   C     C_R   0.671038 0.688237 0.037312 0.224303
C18   C     C_R   0.486930 0.255514 0.947260 0.153810
C19   C     C_R   0.678540 0.686311 0.942201 -0.142016
C20   C     C_R   0.497119 0.251688 0.040430 -0.129286
C21   C     C_2   0.580305 0.869977 0.508073 -0.216597
C22   C     C_2   0.419809 0.131668 0.526846 -0.171494
C23   C     C_2   0.498823 0.934275 0.571318 -0.054467
C24   C     C_2   0.504142 0.071278 0.571063 0.050475
N1    N     N_2   0.842700 0.448880 0.462930 -0.202378
N2    N     N_2   0.157300 0.551120 0.537070 -0.226277
C25   C     C_2   0.923819 0.490679 0.519659 -0.064976
C26   C     C_2   0.068579 0.471728 0.505741 0.000500
C27   C     C_2   0.408522 0.267721 0.239211 0.542760
H1    H     H_    0.326364 0.213959 0.213781 0.060553
O9    O     O_2   0.444063 0.234866 0.309081 -0.572494
C28   C     C_2   0.579740 0.730189 0.771268 0.389299
H2    H     H_    0.552438 0.810881 0.814311 0.104031
O10   O     O_2   0.623449 0.747561 0.691720 -0.557770
C29   C     C_2   0.546548 0.727699 0.230241 0.560681
H3    H     H_    0.566256 0.738883 0.299887 0.006613
O11   O     O_2   0.512574 0.818247 0.193388 -0.504784
C30   C     C_2   0.347792 0.299804 0.791683 0.519455
H4    H     H_    0.284371 0.243953 0.843128 0.103669
O12   O     O_2   0.325163 0.288199 0.713475 -0.558318
Br1   Br    Br    0.795117 0.801643 0.094174 -0.418434
Br2   Br    Br    0.492950 0.099841 0.875118 -0.525951
C31   C     C_2   0.778111 0.774955 0.888606 0.486024
H5    H     H_    0.796825 0.871421 0.912548 0.124805
O13   O     O_2   0.843260 0.739379 0.818561 -0.514167
C32   C     C_2   0.511167 0.127787 0.080300 0.479143
H6    H     H_    0.451811 0.043822 0.062394 0.124861
O14   O     O_2   0.593279 0.117759 0.130847 -0.471969
C33   C     C_2   0.605993 0.132965 0.623720 0.540462
H7    H     H_    0.688256 0.080951 0.635441 0.094939
O15   O     O_2   0.596340 0.237212 0.658913 -0.569100
C34   C     C_2   0.401433 0.873463 0.645557 0.523020
H8    H     H_    0.394606 0.773144 0.657489 0.069301
O16   O     O_2   0.327337 0.937014 0.696210 -0.527710
C35   C     C_2   0.309615 0.066255 0.483333 0.494181
H9    H     H_    0.251691 0.121056 0.446160 0.109473
O17   O     O_2   0.282171 0.952366 0.487146 -0.530096
C36   C     C_2   0.688032 0.930310 0.440720 0.469500
H10   H     H_    0.743496 0.871072 0.390942 0.110140
O18   O     O_2   0.716601 0.044228 0.439048 -0.572965
C37   C     C_2   0.104290 0.348088 0.466933 0.507279
H11   H     H_    0.054598 0.262107 0.497385 0.013540
O19   O     O_2   0.180726 0.341404 0.396425 -0.526176
C38   C     C_2   0.871981 0.546330 0.607615 0.537145
H12   H     H_    0.875967 0.497628 0.670170 0.045107
O20   O     O_2   0.833192 0.651645 0.610806 -0.434201
C39   C     C_2   0.132853 0.680683 0.552193 0.666015
H13   H     H_    0.172501 0.733102 0.607076 0.050988
O21   O     O_2   0.074877 0.735660 0.500936 -0.484347
C40   C     C_2   0.890456 0.422118 0.369873 0.602465
H14   H     H_    0.834915 0.352374 0.332541 0.087452
O22   O     O_2   0.986403 0.483021 0.329397 -0.523307

loop_
_geom_bond_atom_site_label_1
_geom_bond_atom_site_label_2
_geom_bond_distance
_ccdc_geom_bond_type
C2    C22   1.456832 S    
C25   C38   1.464854 S    
C3    C8    1.446522 S    
C17   C19   1.403557 A    
C27   O9    1.219393 D    
C29   H3    1.083903 S    
O5    C3    1.298985 A    
C34   H8    1.080112 S    
C38   O20   1.216758 D    
O1    C1    1.292754 A    
C9    C11   1.401956 A    
C14   C16   1.410795 A    
N2    C39   1.425273 S    
C5    C15   1.410012 A    
N1    C40   1.426981 S    
C32   H6    1.084771 S    
C29   O11   1.221596 D    
O4    Zn1   1.925353 S    
C34   O16   1.221973 D    
C36   H10   1.085723 S    
C35   O17   1.219235 D    
C4    C7    1.434281 S    
C13   C14   1.398071 A    
C21   C23   1.371750 D    
C30   O12   1.218164 D    
C11   C17   1.414129 A    
C33   H7    1.086101 S    
C12   C18   1.415377 A    
O2    C2    1.293837 A    
C28   O10   1.215619 D    
C17   Br1   1.943029 S    
C31   O13   1.221282 D    
C6    C16   1.405637 A    
C21   C36   1.494521 S    
C33   O15   1.215464 D    
C38   H12   1.084983 S    
Zn1   N2    2.040017 S    
C40   O22   1.222441 D    
C27   H1    1.085282 S    
C37   O19   1.219001 D    
C23   C34   1.499237 S    
C39   H13   1.081720 S    
C20   C32   1.486223 S    
C22   C24   1.371564 D    
O7    Zn2   2.003087 S    
C25   C26   1.502310 S    
O6    C4    1.291686 A    
C23   C24   1.451468 S    
C39   O21   1.222653 D    
O7    C3    1.301151 A    
C5    C27   1.487490 S    
C10   C30   1.496959 S    
O3    Zn2   1.925351 S    
O8    C4    1.300159 A    
O4    C2    1.311160 A    
C30   H4    1.085182 S    
C10   C12   1.404291 A    
C11   C13   1.413635 A    
C24   C33   1.491527 S    
C12   C14   1.410415 A    
O1    Zn1   1.916645 S    
C28   H2    1.085313 S    
C6    C28   1.484641 S    
Zn2   N1    2.040017 S    
C15   C20   1.423618 A    
C5    C7    1.409300 A    
C26   C37   1.471992 S    
O6    Zn2   1.998290 S    
N1    C25   1.311249 D    
C40   H14   1.084298 S    
O3    C1    1.311188 A    
O8    Zn1   2.003084 S    
C9    C29   1.491518 S    
C31   H5    1.084708 S    
C18   C20   1.405299 A    
C37   H11   1.085051 S    
C18   Br2   1.943086 S    
C19   C31   1.487019 S    
N2    C26   1.313517 D    
C7    C9    1.401995 A    
C32   O14   1.221370 D    
C8    C10   1.412469 A    
C13   C15   1.415410 A    
O2    Zn2   1.916646 S    
O5    Zn1   1.998293 S    
C16   C19   1.423068 A    
C6    C8    1.411805 A    
C35   H9    1.083095 S    
C36   O18   1.220265 D    
C22   C35   1.494035 S    
C1    C21   1.455612 S    
