data_mof_unit_49589.cif
_audit_creation_date              2012-12-11T20:57:48-0500
_audit_creation_method            fapswitch 2.2
_symmetry_space_group_name_H-M    P1
_symmetry_Int_Tables_number       1
_space_group_crystal_system       triclinic
_cell_length_a                    8.535617
_cell_length_b                    18.822997
_cell_length_c                    22.740407
_cell_angle_alpha                 100.62432
_cell_angle_beta                  90.27008
_cell_angle_gamma                 91.687713
_cell_volume                      3589.22555471

loop_
_atom_site_label
_atom_site_type_symbol
_atom_type_description
_atom_site_fract_x
_atom_site_fract_y
_atom_site_fract_z
_atom_type_partial_charge
Ba1   Ba    Ba6+2 0.157800 0.534120 0.474430 1.604741
Ba2   Ba    Ba6+2 0.652390 0.465870 0.525520 1.617845
C1    C     C_3   0.362858 0.725354 0.264485 0.057094
C2    C     C_R   0.072487 0.904683 0.559456 -0.100582
C3    C     C_R   0.166337 0.059416 0.576823 0.054433
C4    C     C_3   0.904802 0.734832 0.334053 0.409244
C5    C     C_R   0.031411 0.029871 0.543934 0.006752
C6    C     C_R   0.250051 0.117161 0.559561 0.050512
C7    C     C_R   0.170875 0.166486 0.529966 -0.055579
C8    C     C_R   0.018171 0.144584 0.505376 -0.029836
C9    C     C_R   0.952319 0.074506 0.510428 0.002179
C10   C     C_R   0.236880 0.235820 0.523774 0.019178
C11   C     C_R   0.149933 0.280287 0.492161 -0.227618
C12   C     C_3   0.353724 0.698134 0.326287 0.341309
C13   C     C_R   0.993126 0.262491 0.472815 0.044938
C14   C     C_R   0.935455 0.189775 0.472331 -0.025807
C15   C     C_R   0.828694 0.933070 0.515879 0.027991
C16   C     C_3   0.895700 0.789130 0.290697 -0.362534
C17   C     C_R   0.772657 0.860202 0.514779 0.009095
C18   C     C_R   0.870162 0.809977 0.535426 -0.051745
C19   C     C_R   0.018067 0.834358 0.558646 -0.061951
C20   C     C_R   0.805752 0.157222 0.436383 0.092922
C21   C     C_R   0.737657 0.091823 0.445698 -0.079866
C22   C     C_R   0.806071 0.049813 0.483061 -0.002799
C23   C     C_3   0.313615 0.695197 0.668228 0.327216
C24   C     C_R   0.739217 0.980789 0.489078 0.018589
C25   C     C_R   0.587253 0.956756 0.467589 -0.121876
C26   C     C_R   0.622162 0.836880 0.490770 -0.028718
C27   C     C_R   0.529836 0.887002 0.469096 -0.086315
C28   C     C_3   0.768648 0.345736 0.336003 0.289216
C29   C     C_R   0.569866 0.763889 0.488269 0.035511
C30   C     C_R   0.665094 0.716555 0.511355 -0.275713
C31   C     C_R   0.817360 0.736859 0.531549 -0.021655
C32   C     C_R   0.637752 0.526562 0.337085 -0.199671
C33   C     C_R   0.410041 0.558578 0.943706 -0.020132
C34   C     C_3   0.240904 0.704576 0.731206 -0.184042
C35   C     C_R   0.350837 0.559025 0.885173 0.581231
C36   C     C_R   0.221299 0.443481 0.881561 0.576186
C37   C     C_R   0.271917 0.442135 0.940619 -0.038862
C38   C     C_R   0.367840 0.499175 0.971641 -0.068409
C39   C     C_R   0.510710 0.614851 0.975270 0.052583
C40   C     C_3   0.758624 0.296244 0.274182 -0.263305
C41   C     C_R   0.564376 0.610568 0.032643 -0.072901
C42   C     C_R   0.521251 0.552570 0.060707 -0.033429
C43   C     C_R   0.422156 0.496552 0.030643 -0.069962
C44   C     C_R   0.229664 0.384081 0.968721 -0.068294
C45   C     C_3   0.834736 0.287520 0.660529 0.353485
C46   C     C_R   0.280618 0.380910 0.026992 0.052748
C47   C     C_R   0.379848 0.437691 0.059066 -0.021621
C48   C     C_R   0.438128 0.438212 0.118351 0.586224
C49   C     C_R   0.576340 0.550785 0.118787 0.573175
C50   C     C_2   0.066299 0.493439 0.773561 -0.089009
C51   C     C_3   0.021889 0.497712 0.709276 -0.025870
C52   C     C_3   0.824944 0.700087 0.664799 0.333397
C53   C     C_1   0.302554 0.518848 0.693585 -0.020843
C54   C     C_2   0.342763 0.512727 0.748424 -0.131404
C55   C     C_2   0.218486 0.500889 0.792308 0.219668
C56   C     C_3   0.796802 0.220041 0.688841 -0.078766
C57   C     C_R   0.719644 0.526619 0.234818 -0.132267
C58   C     C_R   0.751084 0.542467 0.296337 0.005477
C59   C     C_R   0.500042 0.487661 0.315287 0.017113
C60   C     C_R   0.460389 0.480930 0.254114 -0.159200
C61   C     C_R   0.569561 0.500869 0.212548 0.199243
C62   C     C_2   0.165313 0.493611 0.669982 -0.246191
C63   C     C_3   0.842375 0.783949 0.681582 -0.216279
C64   C     C_3   0.270289 0.319654 0.302216 0.244017
C65   C     C_3   0.274414 0.237673 0.286836 -0.394342
C66   C     C_3   0.681424 0.331024 0.226880 -0.435343
C67   C     C_3   0.392892 0.321577 0.679343 0.330050
C68   C     C_3   0.810397 0.663267 0.719518 -0.270166
C69   C     C_3   0.776624 0.818721 0.742229 -0.463464
C70   C     C_3   0.235607 0.686865 0.220193 -0.375074
C71   C     C_3   0.519963 0.707012 0.234386 -0.353259
C72   C     C_3   0.347420 0.768485 0.650004 -0.333159
C73   C     C_3   0.352886 0.738061 0.781985 -0.346143
C74   C     C_3   0.348507 0.808483 0.272517 -0.309365
C75   C     C_3   0.826442 0.150889 0.644150 -0.462647
C76   C     C_3   0.885973 0.219585 0.747681 -0.316499
C77   C     C_3   0.215008 0.318226 0.678446 -0.328045
C78   C     C_3   0.452372 0.316598 0.742041 -0.383188
C79   C     C_3   0.004239 0.770196 0.388244 -0.292392
C80   C     C_3   0.231959 0.343495 0.472359 -0.221376
C81   C     C_3   0.425587 0.110357 0.559478 -0.358037
C82   C     C_3   0.763448 0.177423 0.377343 -0.383555
C83   C     C_3   0.209628 0.040424 0.636672 -0.426802
C84   C     C_3   0.740617 0.721762 0.356274 -0.311198
C85   C     C_3   0.224378 0.316359 0.052935 -0.335705
C86   C     C_3   0.566532 0.679781 0.949622 -0.340471
C87   C     C_3   0.669707 0.549650 0.403157 -0.213691
C88   C     C_R   0.977150 0.956713 0.541414 0.014643
H1    H     H_    0.967468 0.801300 0.680513 0.107711
H2    H     H_    0.436347 0.374788 0.670829 0.098905
H3    H     H_    0.655867 0.343166 0.359054 0.069532
H4    H     H_    0.424361 0.262247 0.752417 0.123206
H5    H     H_    0.580619 0.327501 0.745394 0.132704
H6    H     H_    0.622688 0.661746 0.510695 0.062560
H7    H     H_    0.193488 0.916353 0.572350 0.082172
H8    H     H_    0.507228 0.991642 0.450667 0.067987
H9    H     H_    0.155275 0.340378 0.944900 0.118152
H10   H     H_    0.640728 0.653800 0.056000 0.119341
H11   H     H_    0.465219 0.516839 0.761960 0.114418
H12   H     H_    0.345645 0.459004 0.239115 0.121560
H13   H     H_    0.303257 0.341961 0.261994 0.030917
H14   H     H_    0.010007 0.815264 0.285094 0.088225
H15   H     H_    0.797389 0.402174 0.331289 0.004559
H16   H     H_    0.235073 0.678013 0.333745 0.101590
H17   H     H_    0.692376 0.245567 0.277702 0.101177
H18   H     H_    0.561683 0.346332 0.240703 0.152270
H19   H     H_    0.752026 0.379055 0.219871 0.129826
H20   H     H_    0.674074 0.291910 0.183900 0.155988
H21   H     H_    0.878516 0.281254 0.258410 0.128545
H22   H     H_    0.815533 0.603984 0.705308 0.119371
H23   H     H_    0.907330 0.680582 0.752018 0.067882
H24   H     H_    0.238647 0.214027 0.326217 0.112267
H25   H     H_    0.697446 0.675072 0.742309 0.092053
H26   H     H_    0.716741 0.685572 0.637529 0.065275
H27   H     H_    0.847760 0.805128 0.779381 0.133899
H28   H     H_    0.780766 0.878451 0.746287 0.131344
H29   H     H_    0.653324 0.800756 0.746370 0.135410
H30   H     H_    0.779883 0.807603 0.647333 0.071379
H31   H     H_    0.148412 0.334345 0.314439 0.095111
H32   H     H_    0.264060 0.689735 0.173015 0.106224
H33   H     H_    0.222012 0.628780 0.223307 0.138650
H34   H     H_    0.122645 0.713377 0.227792 0.165062
H35   H     H_    0.427857 0.650605 0.325571 -0.018078
H36   H     H_    0.394655 0.220673 0.273624 0.119623
H37   H     H_    0.192304 0.217139 0.249098 0.080008
H38   H     H_    0.612194 0.743008 0.257510 0.110190
H39   H     H_    0.547058 0.650255 0.235208 0.146151
H40   H     H_    0.520884 0.716082 0.187444 0.149276
H41   H     H_    0.451324 0.796235 0.674388 0.108290
H42   H     H_    0.372293 0.760435 0.601374 0.100321
H43   H     H_    0.246360 0.804254 0.659804 0.052721
H44   H     H_    0.456619 0.704284 0.782791 0.166326
H45   H     H_    0.389923 0.793741 0.777476 0.095572
H46   H     H_    0.229163 0.665362 0.635346 0.096284
H47   H     H_    0.291803 0.741309 0.825354 0.142200
H48   H     H_    0.138404 0.739585 0.733046 0.087339
H49   H     H_    0.253252 0.828339 0.302918 0.108103
H50   H     H_    0.456645 0.837169 0.293124 0.121903
H51   H     H_    0.328785 0.825241 0.228752 0.094150
H52   H     H_    0.953603 0.147196 0.635497 0.137957
H53   H     H_    0.763184 0.151486 0.601508 0.135647
H54   H     H_    0.785129 0.102575 0.661980 0.133042
H55   H     H_    0.014335 0.219191 0.740873 0.128296
H56   H     H_    0.856987 0.267478 0.781817 0.163498
H57   H     H_    0.197028 0.651414 0.739628 0.083336
H58   H     H_    0.850863 0.170669 0.765883 0.094429
H59   H     H_    0.670414 0.218588 0.699230 0.125130
H60   H     H_    0.170830 0.338468 0.638865 0.030190
H61   H     H_    0.173238 0.261403 0.675683 0.111466
H62   H     H_    0.168718 0.352233 0.719264 0.139802
H63   H     H_    0.398601 0.358178 0.776384 0.113513
H64   H     H_    0.014963 0.731572 0.419160 0.152857
H65   H     H_    0.120862 0.787294 0.375008 0.129669
H66   H     H_    0.948416 0.819654 0.412205 0.066462
H67   H     H_    0.183661 0.351900 0.429319 0.119871
H68   H     H_    0.815289 0.833884 0.306611 0.076478
H69   H     H_    0.219107 0.393327 0.506363 0.131583
H70   H     H_    0.356958 0.332585 0.462565 0.146302
H71   H     H_    0.475814 0.125869 0.518833 0.128617
H72   H     H_    0.479644 0.139805 0.601381 0.160456
H73   H     H_    0.457471 0.053172 0.556757 0.093709
H74   H     H_    0.095413 0.799560 0.576249 0.106849
H75   H     H_    0.870704 0.193995 0.355585 0.122708
H76   H     H_    0.715051 0.130233 0.344971 0.078937
H77   H     H_    0.671495 0.218133 0.382778 0.140248
H78   H     H_    0.411716 0.873082 0.452809 0.119383
H79   H     H_    0.728782 0.299101 0.636109 0.101971
H80   H     H_    0.114184 0.009016 0.654121 0.117747
H81   H     H_    0.319766 0.010129 0.633701 0.113235
H82   H     H_    0.227851 0.090938 0.670302 0.122387
H83   H     H_    0.638155 0.070800 0.417788 0.059599
H84   H     H_    0.679619 0.677283 0.326364 0.072039
H85   H     H_    0.748138 0.708830 0.400900 0.036818
H86   H     H_    0.672263 0.771595 0.361740 0.115013
H87   H     H_    0.144648 0.279432 0.021788 0.078351
H88   H     H_    0.325682 0.284280 0.062184 0.150960
H89   H     H_    0.157802 0.334665 0.094539 0.144144
H90   H     H_    0.928886 0.275820 0.626930 -0.013823
H91   H     H_    0.812135 0.536438 0.204733 0.135448
H92   H     H_    0.647504 0.716272 0.980572 0.077987
H93   H     H_    0.631660 0.661838 0.907600 0.143543
H94   H     H_    0.465198 0.712321 0.941216 0.147180
H95   H     H_    0.973795 0.488104 0.805199 0.100257
H96   H     H_    0.572693 0.560675 0.432839 0.154692
H97   H     H_    0.749898 0.512164 0.419647 0.140291
H98   H     H_    0.708502 0.605618 0.412718 0.037363
H99   H     H_    0.154040 0.470875 0.622611 0.073006
H100  H     H_    0.859188 0.761006 0.245274 0.132761
N1    N     N_R   0.261981 0.501253 0.854427 -0.422139
N2    N     N_R   0.528104 0.496273 0.148959 -0.412983
O1    O     O_2   0.110690 0.676100 0.539200 -0.459725
O2    O     O_2   0.703756 0.452471 0.700567 -0.499718
O3    O     O_3   0.881500 0.347283 0.704631 -0.620806
O4    O     O_3   0.863220 0.586720 0.534720 -0.464549
O5    O     O_3   0.450900 0.461390 0.429220 -0.488788
O6    O     O_2   0.599830 0.538970 0.641850 -0.440760
O7    O     O_3   0.454594 0.658721 0.665872 -0.649109
O8    O     O_2   0.572685 0.247476 0.530886 -0.491010
O9    O     O_3   0.450315 0.263523 0.637432 -0.623628
O10   O     O_2   0.376726 0.611135 0.861398 -0.632273
O11   O     O_2   0.142764 0.392686 0.853963 -0.608125
O12   O     O_3   0.373678 0.344679 0.350480 -0.649672
O13   O     O_2   0.412032 0.386249 0.142238 -0.633165
O14   O     O_2   0.668190 0.598545 0.142378 -0.632241
O15   O     O_3   0.368310 0.629070 0.432760 -0.493023
O16   O     O_2   0.249084 0.757408 0.475961 -0.507071
O17   O     O_3   0.957840 0.671909 0.633251 -0.650533
O18   O     O_3   0.395325 0.754032 0.374726 -0.648176
O19   O     O_2   0.210480 0.460990 0.358130 -0.456579
O20   O     O_3   0.959520 0.592090 0.401630 -0.480675
O21   O     O_2   0.074091 0.539992 0.295348 -0.491729
O22   O     O_3   0.976258 0.671600 0.302127 -0.615337
O23   O     O_2   0.699610 0.323860 0.460780 -0.470221
O24   O     O_3   0.947090 0.413280 0.465240 -0.477069
O25   O     O_3   0.442000 0.370930 0.567190 -0.482615
O26   O     O_3   0.892382 0.321177 0.366329 -0.660520
O27   O     O_3   0.359410 0.538600 0.570730 -0.465604
O28   O     O_3   0.850780 0.407910 0.598320 -0.482090
P1    P     P_3+3 0.935930 0.665430 0.555670 0.973178
P2    P     P_3+3 0.382700 0.439650 0.365620 0.951663
P3    P     P_3+3 0.939533 0.587191 0.324302 0.944500
P4    P     P_3+3 0.874370 0.334570 0.444280 0.976805
P5    P     P_3+3 0.866609 0.427921 0.676956 0.948742
P6    P     P_3+3 0.395213 0.723795 0.443841 0.906947
P7    P     P_3+3 0.424636 0.564907 0.645431 0.955246
P8    P     P_3+3 0.423576 0.277696 0.563649 0.914768

loop_
_geom_bond_atom_site_label_1
_geom_bond_atom_site_label_2
_ccdc_geom_bond_type
O9    P8    S    
Ba2   O28   S    
C44   H9    S    
C25   H8    S    
Ba2   O24   S    
C2    C19   A    
C72   H42   S    
C25   C27   A    
C6    C81   S    
O17   P1    S    
C87   H96   S    
Ba1   O1    S    
C17   C18   A    
C53   C54   D    
O23   P4    D    
O24   P4    S    
C62   H99   S    
C49   O14   D    
C78   H63   S    
C52   C63   S    
C50   C51   S    
C67   O9    S    
C24   C25   A    
C83   H81   S    
C79   H66   S    
C23   O7    S    
C15   C24   A    
C27   H78   S    
C45   O3    S    
C26   C27   A    
C33   C35   A    
C65   H24   S    
C22   C24   A    
C54   H11   S    
C55   N1    S    
C28   H3    S    
C36   C37   A    
C51   C62   S    
C73   H45   S    
C86   H94   S    
Ba1   O19   S    
C61   N2    S    
Ba2   O5    S    
C72   H43   S    
C9    C22   A    
C54   C55   S    
Ba1   P1    S    
C84   H85   S    
O8    P8    D    
C53   P7    S    
C13   P4    S    
C57   H91   S    
C23   H46   S    
C75   H52   S    
C82   H75   S    
C34   H57   S    
C76   H55   S    
O16   P6    D    
C59   P2    S    
C52   O17   S    
C60   C61   A    
C6    C7    A    
C52   H26   S    
Ba2   O25   S    
C35   O10   D    
C67   H2    S    
C48   N2    Am   
C40   H17   S    
C52   C68   S    
Ba2   O4    S    
O4    P1    S    
C56   C75   S    
C56   H59   S    
C76   H58   S    
C28   O26   S    
C64   O12   S    
C74   H51   S    
O1    P1    D    
C64   C65   S    
C81   H71   S    
Ba2   O23   S    
C4    C79   S    
C2    H7    S    
C70   H34   S    
Ba1   O20   S    
C32   C58   A    
C39   C41   A    
C87   H97   S    
C56   C76   S    
C4    C16   S    
C12   O18   S    
C45   H79   S    
C15   C88   A    
C2    C88   A    
C74   H50   S    
C68   H23   S    
C38   C43   A    
C23   C72   S    
C44   C46   A    
C73   H44   S    
C83   H82   S    
C69   H27   S    
Ba1   O15   S    
Ba1   O4    S    
C82   H76   S    
C41   H10   S    
C85   H88   S    
O5    P2    S    
C8    C9    A    
C65   H36   S    
C37   C38   A    
C3    C5    A    
C80   H67   S    
O3    P5    S    
C86   H93   S    
C64   H31   S    
O25   P8    S    
C35   N1    Am   
C63   C69   S    
C5    C88   A    
C11   C80   S    
C32   C59   A    
C79   H64   S    
Ba1   P2    S    
C84   H84   S    
C20   C82   S    
C5    C9    A    
C40   H21   S    
C75   H53   S    
C45   H90   S    
C16   H68   S    
C34   C73   S    
C65   H37   S    
C85   H87   S    
C80   H70   S    
O15   P6    S    
C86   H92   S    
C29   C30   A    
C4    O22   S    
C43   C47   A    
C21   C22   A    
C53   C62   D    
Ba1   O24   S    
Ba2   P4    S    
C16   H14   S    
C46   C85   S    
Ba1   O27   S    
C66   H20   S    
C10   C11   A    
C78   H5    S    
C17   C26   A    
C12   H35   S    
C1    C12   S    
C68   H22   S    
C37   C44   A    
C18   C31   A    
C42   C49   A    
C46   C47   A    
C30   H6    S    
C81   H72   S    
C47   C48   A    
C36   O11   D    
C77   H60   S    
C41   C42   A    
C73   H47   S    
Ba2   O27   S    
C87   H98   S    
C67   C77   S    
C50   H95   S    
C78   H4    S    
C50   C55   D    
C58   P3    S    
O6    P7    D    
O2    P5    D    
C77   H61   S    
C7    C8    A    
C74   H49   S    
C63   H1    S    
C39   C86   S    
C81   H73   S    
C71   H40   S    
C16   H100  S    
C14   C20   A    
C69   H28   S    
C70   H32   S    
Ba2   O6    S    
O12   P2    S    
C64   H13   S    
C26   C29   A    
Ba1   O5    S    
C42   C43   A    
C79   H65   S    
C3    C6    A    
O26   P4    S    
C21   H83   S    
C68   H25   S    
C71   H38   S    
C57   C61   A    
C83   H80   S    
C4    C84   S    
C69   H29   S    
C29   P6    S    
O19   P2    D    
C30   C31   A    
C11   C13   A    
C1    C70   S    
O18   P6    S    
C32   C87   S    
C3    C83   S    
C70   H33   S    
C28   H15   S    
C82   H77   S    
C8    C14   A    
C45   C56   S    
C80   H69   S    
O21   P3    D    
C34   H48   S    
C71   H39   S    
Ba1   Ba2   S    
C15   C17   A    
C63   H30   S    
O28   P5    S    
C33   C38   A    
C51   P5    S    
C84   H86   S    
C66   H19   S    
C40   C66   S    
C59   C60   A    
C1    C71   S    
C7    C10   A    
C75   H54   S    
C10   P8    S    
O22   P3    S    
C76   H56   S    
C23   C34   S    
C85   H89   S    
C48   O13   D    
C57   C58   A    
C18   C19   A    
C36   N1    Am   
C12   H16   S    
C19   H74   S    
C33   C39   A    
C1    C74   S    
C20   C21   A    
C28   C40   S    
C67   C78   S    
C66   H18   S    
O27   P7    S    
C72   H41   S    
O7    P7    S    
C49   N2    Am   
C13   C14   A    
C77   H62   S    
C60   H12   S    
O20   P3    S    
C31   P1    S    
