data_mof_unit_41310.cif
_audit_creation_date              2012-12-10T17:12:04-0500
_audit_creation_method            fapswitch 2.2
_symmetry_space_group_name_H-M    P1
_symmetry_Int_Tables_number       1
_space_group_crystal_system       triclinic
_cell_length_a                    11.663915
_cell_length_b                    12.996571
_cell_length_c                    15.802958
_cell_angle_alpha                 92.09889
_cell_angle_beta                  74.094711
_cell_angle_gamma                 100.070067
_cell_volume                      2268.21882115

loop_
_atom_site_label
_atom_site_type_symbol
_atom_type_description
_atom_site_fract_x
_atom_site_fract_y
_atom_site_fract_z
_atom_type_partial_charge
C1    C     C_R   0.521203 0.700906 0.500915 0.836632
C2    C     C_R   0.478997 0.299120 0.498720 0.836329
C3    C     C_R   0.398752 0.588120 0.077305 -0.224917
C4    C     C_R   0.637933 0.478518 0.911742 -0.229908
C5    C     C_R   0.323425 0.606935 0.027388 -0.223205
C6    C     C_R   0.715369 0.462943 0.960888 -0.226651
C7    C     C_R   0.466236 0.185663 0.498904 -0.129437
C8    C     C_R   0.533974 0.814395 0.500937 -0.136211
C9    C     C_R   0.657206 0.985598 0.498690 0.449711
C10   C     C_R   0.341871 0.014331 0.503508 0.474772
C11   C     C_R   0.645527 0.877026 0.498764 -0.269021
C12   C     C_R   0.355097 0.123110 0.499959 -0.286303
C13   C     C_R   0.433883 0.860231 0.501936 -0.243669
C14   C     C_R   0.566107 0.139803 0.498437 -0.243831
C15   C     C_R   0.443287 0.968401 0.501765 0.018464
C16   C     C_R   0.556130 0.031641 0.499673 0.010114
C17   C     C_R   0.941126 0.596719 0.581810 -0.341909
C18   C     C_R   0.058190 0.402081 0.419272 -0.349414
C19   C     C_R   0.822727 0.587568 0.573815 0.090536
C20   C     C_R   0.176879 0.411749 0.426791 0.090087
C21   C     C_R   0.858905 0.457472 0.465286 0.020767
C22   C     C_R   0.140869 0.542068 0.535149 0.029361
C23   C     C_R   0.427279 0.497677 0.668139 0.808461
C24   C     C_R   0.573032 0.503918 0.331740 0.817972
C25   C     C_R   0.978973 0.464177 0.470909 0.065792
C26   C     C_R   0.020591 0.535012 0.529863 0.075691
C27   C     C_R   0.387323 0.512270 0.763467 -0.097708
C28   C     C_R   0.616497 0.501518 0.235386 -0.098431
C29   C     C_R   0.265087 0.593393 0.888851 0.186187
C30   C     C_R   0.761768 0.457355 0.102799 0.182709
C31   C     C_R   0.288477 0.561596 0.800974 -0.194077
C32   C     C_R   0.727161 0.470958 0.194027 -0.184499
C33   C     C_R   0.460902 0.490903 0.814353 -0.256645
C34   C     C_R   0.542141 0.523630 0.185191 -0.256510
C35   C     C_R   0.444575 0.525631 0.901394 0.049854
C36   C     C_R   0.575407 0.515334 0.093045 0.050916
C37   C     C_R   0.343222 0.575212 0.939712 0.142973
C38   C     C_R   0.685167 0.478576 0.051844 0.147198
C39   C     C_R   0.526979 0.512774 0.950822 0.083785
C40   C     C_R   0.499559 0.538282 0.041510 0.081398
Cu1   Cu    Cu3+1 0.386820 0.492450 0.493500 0.935720
Cu2   Cu    Cu3+1 0.613180 0.507550 0.506500 0.936996
H1    H     H_    0.248940 0.646629 0.058952 0.163736
H2    H     H_    0.798794 0.436863 0.926353 0.160290
H3    H     H_    0.237329 0.363496 0.386886 0.131176
H4    H     H_    0.762143 0.635580 0.613924 0.124662
H5    H     H_    0.969995 0.651452 0.628268 0.143599
H6    H     H_    0.028707 0.346488 0.373548 0.146969
H7    H     H_    0.455921 0.543300 0.220329 0.160286
H8    H     H_    0.531395 0.447254 0.783415 0.152449
H9    H     H_    0.784065 0.453002 0.233465 0.151678
H10   H     H_    0.232952 0.579672 0.760488 0.146669
H11   H     H_    0.377821 0.617748 0.143331 0.149300
H12   H     H_    0.670414 0.466171 0.842124 0.145069
H13   H     H_    0.652048 0.188686 0.496930 0.196921
H14   H     H_    0.348297 0.811248 0.502844 0.201017
H15   H     H_    0.278150 0.158277 0.498094 0.164316
H16   H     H_    0.724311 0.842151 0.495980 0.171055
H17   H     H_    0.173982 0.596094 0.580360 0.107352
H18   H     H_    0.825807 0.403394 0.420103 0.119037
N1    N     N_R   0.216750 0.481110 0.483710 -0.180794
N2    N     N_R   0.783250 0.518890 0.516290 -0.179833
O1    O     O_R   0.419950 0.645670 0.495380 -0.591469
O2    O     O_R   0.580050 0.354330 0.504620 -0.593775
O3    O     O_R   0.611110 0.658410 0.506370 -0.588686
O4    O     O_R   0.388890 0.341590 0.493630 -0.590142
O5    O     O_R   0.350820 0.490050 0.621260 -0.587039
O6    O     O_R   0.649180 0.509950 0.378740 -0.583878
O7    O     O_R   0.541970 0.502800 0.632250 -0.586277
O8    O     O_R   0.458030 0.497200 0.367750 -0.585599
C41   C     C_3   0.160814 0.651265 0.924960 -0.907914
H19   H     H_    0.195740 0.732128 0.942007 0.238824
H20   H     H_    0.108438 0.656251 0.876610 0.231169
H21   H     H_    0.097981 0.610774 0.984687 0.234312
C42   C     C_3   0.877863 0.416446 0.062230 -0.897802
H22   H     H_    0.927101 0.406622 0.111628 0.235668
H23   H     H_    0.857486 0.339136 0.032320 0.237980
H24   H     H_    0.938584 0.471618 0.010767 0.233481
O9    O     O_3   0.769961 0.046296 0.489468 -0.614562
C43   C     C_3   0.791510 0.060175 0.573117 0.024099
H25   H     H_    0.802072 0.984602 0.598683 0.139174
H26   H     H_    0.716009 0.091369 0.620759 0.140804
C44   C     C_3   0.908283 0.138710 0.564466 -0.309549
H27   H     H_    0.985080 0.107802 0.518736 0.221791
H28   H     H_    0.899858 0.213452 0.536553 0.227757
C45   C     C_3   0.935026 0.159973 0.653343 -0.946987
H29   H     H_    0.862166 0.195985 0.698579 0.262450
H30   H     H_    0.022143 0.214700 0.644174 0.260689
H31   H     H_    0.942021 0.086171 0.683359 0.251691
O10   O     O_3   0.233638 0.952751 0.499654 -0.617502
C46   C     C_3   0.143431 0.957197 0.579987 0.041018
H32   H     H_    0.054285 0.940576 0.565129 0.179394
H33   H     H_    0.149239 0.035681 0.611026 0.134368
C47   C     C_3   0.146978 0.873778 0.644873 -0.372725
H34   H     H_    0.143726 0.796365 0.612584 0.216433
H35   H     H_    0.232746 0.892448 0.664458 0.213803
C48   C     C_3   0.040610 0.867882 0.727214 -0.922906
H36   H     H_    0.043036 0.944142 0.761377 0.260739
H37   H     H_    0.046025 0.806990 0.772796 0.256894
H38   H     H_    0.953624 0.847012 0.709544 0.249242

loop_
_geom_bond_atom_site_label_1
_geom_bond_atom_site_label_2
_ccdc_geom_bond_type
C8    C13   A    
C5    C37   A    
C1    C8    S    
Cu1   Cu2   S    
C23   O7    A    
C2    C7    S    
Cu1   N1    S    
C31   H10   S    
C48   H36   S    
C19   H4    S    
C24   O8    A    
Cu1   O5    S    
C27   C33   A    
C17   C26   A    
C35   C37   A    
C9    C16   A    
C10   C15   A    
C45   H30   S    
C19   N2    A    
C15   C16   A    
C30   C38   A    
C9    O9    S    
C23   O5    A    
C20   N1    A    
C17   C19   A    
C7    C14   A    
Cu2   O3    S    
C1    O3    A    
C6    C38   A    
C23   C27   S    
C11   H16   S    
Cu2   N2    S    
C34   C36   A    
C20   H3    S    
C46   H32   S    
C13   H14   S    
C14   H13   S    
C5    H1    S    
C28   C34   A    
C6    H2    S    
Cu2   O6    S    
C18   C25   A    
C43   C44   S    
C1    O1    A    
C48   H37   S    
C2    O2    A    
C7    C12   A    
C27   C31   A    
C17   H5    S    
C28   C32   A    
C21   H18   S    
C43   H26   S    
C22   H17   S    
C41   H20   S    
C45   H29   S    
C47   C48   S    
C3    C5    A    
C33   H8    S    
Cu2   O7    S    
C35   C39   A    
C42   H22   S    
C32   H9    S    
C46   H33   S    
C42   H23   S    
C44   H27   S    
C4    C39   A    
C36   C40   A    
C47   H35   S    
C9    C11   A    
C21   N2    A    
C10   C12   A    
C12   H15   S    
C4    C6    A    
C44   H28   S    
C3    C40   A    
C13   C15   A    
C14   C16   A    
Cu1   O1    S    
Cu2   O2    S    
C39   C40   A    
C48   H38   S    
C21   C25   A    
C34   H7    S    
C4    H12   S    
C24   C28   S    
C43   H25   S    
C2    O4    A    
C45   H31   S    
C18   H6    S    
C41   H21   S    
Cu1   O4    S    
C36   C38   A    
C25   C26   A    
C41   H19   S    
C29   C31   A    
C22   N1    A    
C30   C32   A    
C30   C42   S    
C3    H11   S    
O10   C46   S    
C8    C11   A    
C33   C35   A    
C18   C20   A    
C47   H34   S    
C42   H24   S    
C24   O6    A    
O9    C43   S    
C44   C45   S    
C10   O10   S    
C22   C26   A    
C29   C37   A    
C29   C41   S    
Cu1   O8    S    
C46   C47   S    
