data_mof_unit_30935.cif
_audit_creation_date              2012-12-10T19:11:29-0500
_audit_creation_method            fapswitch 2.2
_symmetry_space_group_name_H-M    P1
_symmetry_Int_Tables_number       1
_space_group_crystal_system       triclinic
_cell_length_a                    10.790368
_cell_length_b                    9.83679
_cell_length_c                    10.523542
_cell_angle_alpha                 90.972474
_cell_angle_beta                  88.607773
_cell_angle_gamma                 89.599066
_cell_volume                      1116.47467933

loop_
_atom_site_label
_atom_site_type_symbol
_atom_type_description
_atom_site_fract_x
_atom_site_fract_y
_atom_site_fract_z
_atom_type_partial_charge
C1    C     C_R   0.258723 0.501022 0.509367 1.013274
C2    C     C_3   0.493182 0.500450 0.121697 -0.132699
C3    C     C_3   0.070944 0.649541 0.540831 0.153606
C4    C     C_3   0.069274 0.414669 0.627785 0.058393
C5    C     C_3   0.929780 0.639074 0.563642 0.278646
C6    C     C_3   0.927614 0.387780 0.607654 0.234299
C7    C     C_3   0.078753 0.455667 0.381160 -0.586169
C8    C     C_3   0.122900 0.503105 0.514527 -0.190287
C9    C     C_3   0.879731 0.497410 0.509519 -0.269489
C10   C     C_3   0.932949 0.456397 0.372339 1.019459
C11   C     C_3   0.373318 0.080104 0.483698 -0.290846
C12   C     C_3   0.375365 0.919711 0.473445 -0.231841
C13   C     C_3   0.584922 0.076827 0.396480 0.442278
C14   C     C_3   0.587882 0.914771 0.398436 0.400324
C15   C     C_3   0.543467 0.082535 0.619679 -0.400921
C16   C     C_3   0.535316 0.921477 0.622121 -0.411692
C17   C     C_R   0.497708 0.499516 0.257300 0.950495
C18   C     C_R   0.742240 0.499502 0.506706 0.969894
C19   C     C_R   0.498207 0.500990 0.741885 0.922399
C20   C     C_3   0.458396 0.626625 0.043764 -0.299606
C21   C     C_3   0.412811 0.406278 0.039372 -0.323902
C22   C     C_3   0.381765 0.531135 0.959930 0.640590
C23   C     C_3   0.495695 0.502707 0.876153 -0.090502
C24   C     C_3   0.574004 0.598312 0.957202 -0.369736
C25   C     C_3   0.528982 0.377303 0.953397 -0.284425
C26   C     C_3   0.606467 0.473228 0.035414 0.645543
H1    H     H_    0.322939 0.125331 0.404764 0.149837
H2    H     H_    0.343056 0.884544 0.379383 0.219838
H3    H     H_    0.315157 0.109508 0.568167 0.228068
H4    H     H_    0.308124 0.879969 0.545039 0.210486
H5    H     H_    0.640155 0.115237 0.637138 0.178722
H6    H     H_    0.623149 0.876558 0.651875 0.175744
H7    H     H_    0.486888 0.125650 0.700603 0.217621
H8    H     H_    0.466646 0.891897 0.697168 0.202867
H9    H     H_    0.680513 0.106053 0.423291 0.093673
H10   H     H_    0.682201 0.880922 0.425480 0.103527
H11   H     H_    0.427304 0.726744 0.083521 0.195627
H12   H     H_    0.341655 0.333084 0.071447 0.145358
H13   H     H_    0.638536 0.676085 0.919343 0.146970
H14   H     H_    0.559256 0.276850 0.913615 0.156257
H15   H     H_    0.111937 0.690792 0.629601 0.108361
H16   H     H_    0.070983 0.483143 0.713146 0.126126
H17   H     H_    0.914907 0.631481 0.669019 -0.016274
H18   H     H_    0.880813 0.412366 0.700659 0.063304
H19   H     H_    0.127885 0.512476 0.306612 0.174109
H20   H     H_    0.116786 0.352414 0.361972 0.166135
N1    N     N_3   0.499750 0.138610 0.497240 -0.089963
N2    N     N_3   0.499750 0.861390 0.497240 -0.089274
O1    O     O_R   0.314910 0.616040 0.499970 -0.606735
O2    O     O_R   0.314910 0.383960 0.499970 -0.605882
O3    O     O_R   0.500080 0.616020 0.313900 -0.564942
O4    O     O_R   0.500080 0.383980 0.313900 -0.580765
O5    O     O_R   0.685320 0.616040 0.499930 -0.579750
O6    O     O_R   0.685320 0.383960 0.499930 -0.555538
O7    O     O_R   0.500150 0.616060 0.686000 -0.646131
O8    O     O_R   0.500150 0.383940 0.686000 -0.627848
Zn1   Zn    Zn3+2 0.500150 0.654960 0.499940 0.984065
Zn2   Zn    Zn3+2 0.500150 0.345040 0.499940 0.998637
O9    O     O_3   0.267581 0.560722 0.903814 -0.596596
C27   C     C_3   0.176945 0.583771 0.999963 -0.348589
H21   H     H_    0.201114 0.672558 0.061104 0.167345
H22   H     H_    0.162575 0.491642 0.058157 0.158352
H23   H     H_    0.087735 0.607481 0.954682 0.179055
O10   O     O_3   0.874120 0.535189 0.276659 -0.583623
C28   C     C_3   0.930394 0.653714 0.230646 -0.255769
H24   H     H_    0.029404 0.645778 0.207593 0.162835
H25   H     H_    0.905940 0.742146 0.292281 0.254521
H26   H     H_    0.890395 0.674775 0.137013 0.152902
O11   O     O_3   0.894049 0.320593 0.347668 -0.577502
C29   C     C_3   0.934418 0.267007 0.227753 -0.220895
H27   H     H_    0.996125 0.335309 0.172401 0.134309
H28   H     H_    0.852252 0.240878 0.171379 0.240097
H29   H     H_    0.986499 0.171202 0.242640 0.127891
O12   O     O_3   0.575911 0.135911 0.273868 -0.567337
C30   C     C_3   0.465609 0.111321 0.206915 -0.169124
H30   H     H_    0.417343 0.016148 0.227878 0.159475
H31   H     H_    0.489106 0.108856 0.103738 0.159505
H32   H     H_    0.398277 0.194636 0.223856 0.148517
O13   O     O_3   0.560518 0.858040 0.278102 -0.596746
C31   C     C_3   0.665159 0.852331 0.195000 -0.282123
H33   H     H_    0.697622 0.745731 0.188480 0.220852
H34   H     H_    0.742321 0.920861 0.222210 0.136960
H35   H     H_    0.636090 0.881616 0.098818 0.171673
O14   O     O_3   0.726360 0.444290 0.077918 -0.560548
C32   C     C_3   0.807368 0.428761 0.970980 -0.338458
H36   H     H_    0.903866 0.421354 0.002984 0.193598
H37   H     H_    0.805156 0.518111 0.907798 0.127065
H38   H     H_    0.786705 0.333993 0.916725 0.167771
Cl1   Cl    Cl    0.111520 0.772508 0.422276 -0.732777
Cl2   Cl    Cl    0.162515 0.285709 0.699316 -0.675047
O15   O     O_3   0.868542 0.757380 0.521549 -0.543299
C33   C     C_3   0.865454 0.856790 0.620491 -0.295187
H39   H     H_    0.960546 0.883544 0.649295 0.177088
H40   H     H_    0.813154 0.820925 0.705751 0.130453
H41   H     H_    0.817378 0.948673 0.587784 0.158137
O16   O     O_3   0.885775 0.252824 0.579807 -0.574910
C34   C     C_3   0.975982 0.156530 0.537448 -0.064381
H42   H     H_    0.056285 0.198899 0.486181 0.180868
H43   H     H_    0.933053 0.085712 0.468734 0.167076
H44   H     H_    0.007780 0.097791 0.619138 0.177250

loop_
_geom_bond_atom_site_label_1
_geom_bond_atom_site_label_2
_ccdc_geom_bond_type
C19   O8    A    
C7    C10   S    
C1    C8    S    
C11   N1    S    
C15   N1    S    
C12   N2    S    
C17   O3    A    
C6    C9    S    
C34   H42   S    
N2    Zn1   S    
C32   H36   S    
C12   H2    S    
C27   H23   S    
C7    H19   S    
C24   C26   S    
C13   H9    S    
C25   H14   S    
C14   H10   S    
C15   C16   S    
C24   H13   S    
O1    Zn1   S    
C27   H22   S    
C18   O5    A    
C16   H8    S    
C21   H12   S    
C20   C24   S    
C28   H25   S    
C23   C24   S    
C29   H27   S    
O3    Zn1   S    
C1    O2    A    
C4    C8    S    
C5    H17   S    
O9    C27   S    
C6    H18   S    
C21   C22   S    
C2    C17   S    
C16   N2    S    
C29   H29   S    
C31   H35   S    
C17   O4    A    
C34   H43   S    
C4    Cl2   S    
C32   H37   S    
O12   C30   S    
C2    C20   S    
O2    Zn2   S    
C7    H20   S    
C7    C8    S    
O14   C32   S    
C31   H34   S    
C3    C8    S    
O15   C33   S    
C13   N1    S    
O5    Zn1   S    
C14   N2    S    
C25   C26   S    
C33   H41   S    
C27   H21   S    
C19   C23   S    
C30   H30   S    
C5    C9    S    
C11   H1    S    
C28   H26   S    
O16   C34   S    
C2    C21   S    
C33   H40   S    
C2    C26   S    
C14   O13   S    
C30   H31   S    
C5    O15   S    
O4    Zn2   S    
C4    C6    S    
C20   C22   S    
C6    O16   S    
O7    Zn1   S    
C22   O9    S    
C34   H44   S    
O6    Zn2   S    
C32   H38   S    
C19   O7    A    
C21   C25   S    
C3    H15   S    
C26   O14   S    
C12   H4    S    
C10   O10   S    
C31   H33   S    
C3    C5    S    
C11   C12   S    
C15   H5    S    
C16   H6    S    
C3    Cl1   S    
O10   C28   S    
N1    Zn2   S    
C20   H11   S    
C4    H16   S    
C33   H39   S    
O8    Zn2   S    
C9    C10   S    
C23   C25   S    
O11   C29   S    
C30   H32   S    
C18   O6    A    
O13   C31   S    
C10   O11   S    
C9    C18   S    
C13   O12   S    
C11   H3    S    
C28   H24   S    
C22   C23   S    
C29   H28   S    
C13   C14   S    
C1    O1    A    
C15   H7    S    
