data_mof_unit_37615.cif
_audit_creation_date              2012-12-10T16:39:32-0500
_audit_creation_method            fapswitch 2.2
_symmetry_space_group_name_H-M    P1
_symmetry_Int_Tables_number       1
_space_group_crystal_system       triclinic
_cell_length_a                    16.851788
_cell_length_b                    16.861612
_cell_length_c                    16.861615
_cell_angle_alpha                 65.701217
_cell_angle_beta                  65.694893
_cell_angle_gamma                 65.694902
_cell_volume                      3806.73856268

loop_
_atom_site_label
_atom_site_type_symbol
_atom_type_description
_atom_site_fract_x
_atom_site_fract_y
_atom_site_fract_z
_atom_type_partial_charge
C1    C     C_R   0.318296 0.993323 0.437038 -0.188555
C2    C     C_R   0.322803 0.462162 0.949496 -0.037387
C3    C     C_R   0.535172 0.415888 0.999302 -0.093310
C4    C     C_R   0.010862 0.448768 0.593340 -0.058817
C5    C     C_R   0.999259 0.535535 0.415543 -0.093291
C6    C     C_R   0.008530 0.681598 0.561779 -0.157095
C7    C     C_R   0.950684 0.322589 0.461755 -0.076936
C8    C     C_R   0.460418 0.988672 0.447759 0.054953
C9    C     C_R   0.552042 0.011950 0.539452 0.055553
C10   C     C_R   0.988138 0.448312 0.460231 0.057295
C11   C     C_R   0.011862 0.539768 0.551687 0.057295
C12   C     C_R   0.447958 0.460548 0.988050 0.055553
C13   C     C_R   0.539582 0.552241 0.011328 0.054953
C14   C     C_R   0.961177 0.179185 0.438791 0.925691
C15   C     C_R   0.677197 0.050503 0.537838 -0.037385
C16   C     C_R   0.025355 0.821948 0.567535 0.868944
C17   C     C_R   0.179258 0.438974 0.960720 0.886984
C18   C     C_R   0.822146 0.567972 0.024322 0.906469
C19   C     C_R   0.438944 0.960816 0.179261 0.873028
C20   C     C_R   0.567986 0.024329 0.822135 0.924355
C21   C     C_R   0.561056 0.820739 0.039184 0.873018
C22   C     C_R   0.432014 0.177865 0.975671 0.924355
C23   C     C_R   0.038823 0.561209 0.820815 0.925690
C24   C     C_R   0.974645 0.432464 0.178052 0.868945
C25   C     C_R   0.820742 0.039279 0.561026 0.886985
C26   C     C_R   0.991470 0.438221 0.318401 -0.157095
C27   C     C_R   0.177854 0.975679 0.432027 0.906467
C28   C     C_R   0.413773 0.976376 0.402828 -0.060053
C29   C     C_R   0.596975 0.024162 0.586149 -0.058692
C30   C     C_R   0.975714 0.403452 0.413650 -0.062318
C31   C     C_R   0.024286 0.586350 0.596548 -0.062318
C32   C     C_R   0.403025 0.413851 0.975838 -0.058692
C33   C     C_R   0.586227 0.597172 0.023624 -0.060053
C34   C     C_R   0.274233 0.969341 0.396463 -0.170497
C35   C     C_R   0.721710 0.060606 0.588116 -0.207264
C36   C     C_R   0.966614 0.397920 0.274728 -0.231427
C37   C     C_R   0.049316 0.538245 0.677411 -0.076936
C38   C     C_R   0.058687 0.588676 0.722206 -0.123541
C39   C     C_R   0.396510 0.274257 0.969175 -0.171367
C40   C     C_R   0.588121 0.721780 0.060280 -0.209357
C41   C     C_R   0.603490 0.030825 0.725743 -0.171367
C42   C     C_R   0.411878 0.939720 0.278220 -0.209357
C43   C     C_R   0.725767 0.603537 0.030660 -0.170495
C44   C     C_R   0.278290 0.411884 0.939394 -0.207264
C45   C     C_R   0.033386 0.725271 0.602080 -0.231427
C46   C     C_R   0.941313 0.277794 0.411324 -0.123540
C47   C     C_R   0.485566 0.972342 0.726919 0.527841
C48   C     C_R   0.437199 0.318394 0.992955 -0.187177
C49   C     C_R   0.558474 0.935158 0.290148 0.525311
C50   C     C_R   0.973497 0.727079 0.484814 0.531277
C51   C     C_R   0.935537 0.290176 0.558004 0.528218
C52   C     C_R   0.727112 0.485776 0.971961 0.526172
C53   C     C_R   0.290372 0.558461 0.934331 0.519805
C54   C     C_R   0.272887 0.028039 0.514223 0.526172
C55   C     C_R   0.709628 0.065669 0.441539 0.519805
C56   C     C_R   0.514434 0.273081 0.027658 0.527841
C57   C     C_R   0.441526 0.709852 0.064841 0.525311
C58   C     C_R   0.026504 0.515185 0.272920 0.531277
C59   C     C_R   0.537858 0.677390 0.049914 -0.036921
C60   C     C_R   0.064464 0.441995 0.709824 0.528216
C61   C     C_R   0.324598 0.932582 0.324134 0.354420
C62   C     C_R   0.675869 0.067566 0.675430 0.356079
C63   C     C_R   0.931735 0.323989 0.325555 0.343320
C64   C     C_R   0.068265 0.674445 0.676011 0.343319
C65   C     C_R   0.324131 0.324570 0.932434 0.356080
C66   C     C_R   0.675401 0.675865 0.067419 0.354428
C67   C     C_R   0.676699 0.031374 0.400459 -0.120601
C68   C     C_R   0.322181 0.011149 0.572306 -0.029705
C69   C     C_R   0.030522 0.400938 0.676618 -0.112313
C70   C     C_R   0.562801 0.007045 0.681606 -0.187177
C71   C     C_R   0.010170 0.573030 0.322139 -0.034027
C72   C     C_R   0.400551 0.676900 0.030444 -0.116029
C73   C     C_R   0.572530 0.322393 0.010735 -0.027858
C74   C     C_R   0.599449 0.969555 0.323100 -0.116027
C75   C     C_R   0.427470 0.989265 0.677607 -0.027858
C76   C     C_R   0.323301 0.599541 0.968626 -0.120601
C77   C     C_R   0.677819 0.427693 0.988851 -0.029705
C78   C     C_R   0.969479 0.323381 0.599062 -0.112314
C79   C     C_R   0.989831 0.677861 0.426970 -0.034027
C80   C     C_R   0.724982 0.015261 0.314461 0.336232
C81   C     C_R   0.462142 0.950086 0.322610 -0.036921
C82   C     C_R   0.280370 0.007537 0.665138 0.329495
C83   C     C_R   0.014482 0.314936 0.724819 0.335878
C84   C     C_R   0.006970 0.665730 0.280250 0.332532
C85   C     C_R   0.314567 0.725139 0.014190 0.338960
C86   C     C_R   0.665401 0.280630 0.007205 0.331614
C87   C     C_R   0.685433 0.985810 0.274861 0.338960
C88   C     C_R   0.334599 0.992795 0.719369 0.331613
C89   C     C_R   0.275019 0.685540 0.984739 0.336233
C90   C     C_R   0.719630 0.334862 0.992463 0.329493
C91   C     C_R   0.985519 0.275181 0.685064 0.335878
C92   C     C_R   0.681704 0.562962 0.006677 -0.188556
C93   C     C_R   0.993030 0.719750 0.334270 0.332533
C94   C     C_R   0.551522 0.989455 0.406244 -0.059373
C95   C     C_R   0.464828 0.000697 0.584112 -0.093310
C96   C     C_R   0.989139 0.406660 0.551232 -0.058816
C97   C     C_R   0.000742 0.584457 0.464464 -0.093292
C98   C     C_R   0.406430 0.551661 0.988662 -0.056884
C99   C     C_R   0.584290 0.465026 0.000183 -0.092596
C100  C     C_R   0.593570 0.011338 0.448339 -0.056883
C101  C     C_R   0.415710 0.999817 0.534974 -0.092597
C102  C     C_R   0.448478 0.593755 0.010545 -0.059373
H1    H     H_    0.335108 0.850756 0.263632 0.356044
H2    H     H_    0.022583 0.151999 0.762714 0.359672
H3    H     H_    0.821254 0.233352 0.026445 0.334036
H4    H     H_    0.151693 0.763145 0.021599 0.359508
H5    H     H_    0.178745 0.973557 0.766648 0.334036
H6    H     H_    0.848307 0.978400 0.236856 0.359510
H7    H     H_    0.767022 0.179020 0.973370 0.334560
H8    H     H_    0.236893 0.848355 0.977245 0.359555
H9    H     H_    0.972943 0.767425 0.178815 0.334384
H10   H     H_    0.977417 0.237287 0.848001 0.359672
H11   H     H_    0.535960 0.876899 0.821616 0.308099
H12   H     H_    0.736520 0.149213 0.665075 0.357899
H13   H     H_    0.672141 0.848356 0.245859 0.362839
H14   H     H_    0.877463 0.820918 0.536143 0.310917
H15   H     H_    0.848271 0.246229 0.671435 0.363321
H16   H     H_    0.821923 0.536152 0.876636 0.308038
H17   H     H_    0.246019 0.671907 0.847417 0.365942
H18   H     H_    0.178077 0.123364 0.463848 0.308038
H19   H     H_    0.753983 0.152582 0.328093 0.365944
H20   H     H_    0.464039 0.178385 0.123101 0.308099
H21   H     H_    0.327858 0.754141 0.151644 0.362838
H22   H     H_    0.122537 0.463857 0.179081 0.310917
H23   H     H_    0.850736 0.345325 0.260200 0.341158
H24   H     H_    0.151731 0.328566 0.753770 0.363321
H25   H     H_    0.149264 0.739800 0.654675 0.341157
H26   H     H_    0.263480 0.334925 0.850787 0.357899
H27   H     H_    0.664892 0.736374 0.149240 0.356054
H28   H     H_    0.232978 0.026631 0.820980 0.334559
H29   H     H_    0.763106 0.022755 0.151645 0.359554
H30   H     H_    0.027056 0.821185 0.232574 0.334384
O1    O     O_R   0.982940 0.138950 0.510160 -0.578344
O2    O     O_R   0.982940 0.510160 0.138950 -0.577322
O3    O     O_R   0.861050 0.017060 0.489840 -0.554999
O4    O     O_R   0.138950 0.982940 0.510160 -0.601587
O5    O     O_R   0.867700 0.025880 0.612340 -0.595753
O6    O     O_R   0.132300 0.974120 0.387660 -0.557432
O7    O     O_R   0.025880 0.612340 0.867700 -0.563921
O8    O     O_R   0.974120 0.387660 0.132300 -0.594965
O9    O     O_R   0.612340 0.867700 0.025880 -0.598224
O10   O     O_R   0.387660 0.132300 0.974120 -0.556024
O11   O     O_R   0.387660 0.974120 0.132300 -0.598214
O12   O     O_R   0.017060 0.861050 0.489840 -0.577323
O13   O     O_R   0.612340 0.025880 0.867700 -0.556024
O14   O     O_R   0.132300 0.387660 0.974120 -0.595753
O15   O     O_R   0.867700 0.612340 0.025880 -0.557433
O16   O     O_R   0.974120 0.132300 0.387660 -0.563922
O17   O     O_R   0.025880 0.867700 0.612340 -0.594964
O18   O     O_3   0.285806 0.894345 0.296112 -0.714010
O19   O     O_3   0.704028 0.105601 0.714293 -0.711647
O20   O     O_3   0.892835 0.291935 0.291482 -0.701314
O21   O     O_3   0.107165 0.708518 0.708065 -0.701314
O22   O     O_3   0.295972 0.285707 0.894400 -0.711647
O23   O     O_R   0.138950 0.510160 0.982940 -0.554998
O24   O     O_3   0.714193 0.703884 0.105659 -0.714022
O25   O     O_3   0.297683 0.989846 0.810098 -0.703590
O26   O     O_3   0.725337 0.980432 0.186637 -0.727313
O27   O     O_3   0.990497 0.810368 0.297318 -0.705081
O28   O     O_3   0.980377 0.186874 0.724808 -0.726140
O29   O     O_3   0.810389 0.297994 0.989603 -0.705105
O30   O     O_3   0.186776 0.725403 0.979266 -0.727983
O31   O     O_3   0.189610 0.010398 0.702006 -0.705103
O32   O     O_3   0.813224 0.020732 0.274598 -0.727985
O33   O     O_3   0.702317 0.189901 0.010155 -0.703591
O34   O     O_R   0.861050 0.489840 0.017060 -0.601586
O35   O     O_3   0.274664 0.813364 0.019568 -0.727310
O36   O     O_3   0.009504 0.702682 0.189632 -0.705081
O37   O     O_3   0.019624 0.275191 0.813126 -0.726140
O38   O     O_3   0.475267 0.907781 0.810989 -0.675628
O39   O     O_3   0.611213 0.877765 0.235958 -0.729129
O40   O     O_3   0.908209 0.810752 0.475275 -0.676191
O41   O     O_3   0.877928 0.236160 0.610612 -0.727840
O42   O     O_3   0.811262 0.475507 0.907424 -0.674095
O43   O     O_3   0.236132 0.611008 0.876932 -0.695061
O44   O     O_3   0.188738 0.092577 0.524493 -0.674094
O45   O     O_R   0.510160 0.982940 0.138950 -0.558005
O46   O     O_3   0.763867 0.123069 0.388992 -0.695065
O47   O     O_3   0.524733 0.189011 0.092219 -0.675629
O48   O     O_3   0.388787 0.764043 0.122235 -0.729125
O49   O     O_3   0.091791 0.524725 0.189247 -0.676191
O50   O     O_3   0.122072 0.389388 0.763840 -0.727840
O51   O     O_R   0.489840 0.017060 0.861050 -0.593587
O52   O     O_R   0.489840 0.861050 0.017060 -0.558002
O53   O     O_R   0.510160 0.138950 0.982940 -0.593586
O54   O     O_R   0.017060 0.489840 0.861050 -0.578343
Zn1   Zn    Zn3+2 0.004880 0.004880 0.583590 1.143399
Zn2   Zn    Zn3+2 0.995120 0.995120 0.416410 1.173671
Zn3   Zn    Zn3+2 0.004880 0.583590 0.004880 1.173671
Zn4   Zn    Zn3+2 0.995120 0.416410 0.995120 1.143400
Zn5   Zn    Zn3+2 0.583590 0.004880 0.004880 1.160203
Zn6   Zn    Zn3+2 0.416410 0.995120 0.995120 1.160207

loop_
_geom_bond_atom_site_label_1
_geom_bond_atom_site_label_2
_ccdc_geom_bond_type
C21   O52   A    
O54   Zn4   S    
O45   Zn5   S    
C6    C45   A    
O8    Zn4   S    
O3    Zn2   S    
C74   C94   A    
C25   O5    A    
O9    Zn5   S    
C50   C79   A    
H25   O21   S    
C72   C85   A    
C18   O34   A    
C75   C95   A    
C14   C46   S    
C24   O8    A    
C42   C81   A    
C24   C36   S    
H28   O25   S    
C69   C83   A    
C27   O4    A    
H12   O19   S    
O2    Zn3   S    
C23   O7    A    
C16   O12   A    
C79   C93   A    
C80   C87   A    
O12   Zn2   S    
C58   C71   A    
C57   C59   A    
C54   C68   A    
C82   O31   S    
C76   C98   A    
C14   O16   A    
H14   O40   S    
C2    C32   A    
C54   O44   S    
C51   O41   S    
C80   O32   S    
C3    C12   A    
O23   Zn3   S    
H1    O18   S    
H17   O43   S    
C4    C96   A    
C3    C73   A    
H18   O44   S    
C78   C96   A    
C41   C70   A    
C1    C28   A    
C19   O11   A    
O11   Zn6   S    
O52   Zn6   S    
O53   Zn5   S    
C16   O17   A    
C56   C73   A    
C94   C100  A    
C74   C87   A    
C36   C63   A    
C61   O18   S    
C19   O45   A    
C12   C98   A    
C19   C42   S    
C9    C29   A    
C76   C89   A    
C6    C31   A    
C11   C31   A    
C33   C59   A    
C7    C30   A    
C40   C66   A    
O51   Zn6   S    
C39   C65   A    
C44   C65   A    
C86   O33   S    
C41   C62   A    
H2    O28   S    
C20   C41   S    
C15   C35   A    
C4    C69   A    
C1    C34   A    
C15   C29   A    
C38   C64   A    
C27   C34   S    
C60   O50   S    
H20   O47   S    
C73   C86   A    
C77   C90   A    
H30   O27   S    
C62   O19   S    
C90   O29   S    
C27   O6    A    
C7    C46   A    
C8    C94   A    
C68   C101  A    
H13   O39   S    
C18   O15   A    
C86   C90   A    
C33   C92   A    
C2    C44   A    
C49   O39   S    
C85   C89   A    
C98   C102  A    
C64   O21   S    
C34   C61   A    
C31   C37   A    
O34   Zn4   S    
C85   O35   S    
C13   C99   A    
H29   O26   S    
O6    Zn2   S    
C1    C54   A    
C47   C70   A    
C13   C33   A    
C37   C38   A    
C84   O36   S    
H23   O20   S    
C57   O48   S    
H27   O24   S    
H6    O32   S    
H8    O35   S    
C10   C30   A    
H10   O37   S    
C10   C96   A    
O10   Zn6   S    
C22   O10   A    
C88   O25   S    
C6    C50   A    
C4    C11   A    
C26   C58   A    
C42   C61   A    
C91   O28   S    
H19   O46   S    
H7    O33   S    
C67   C100  A    
C25   C35   S    
C20   O51   A    
C26   C36   A    
H5    O31   S    
C26   C30   A    
C9    C100  A    
C47   C75   A    
C58   O49   S    
O4    Zn1   S    
C8    C28   A    
C55   O46   S    
H3    O29   S    
C52   C92   A    
C53   C76   A    
C52   C77   A    
C17   O23   A    
C52   O42   S    
C89   O30   S    
C47   O38   S    
C53   O43   S    
C29   C70   A    
C8    C101  A    
C24   O2    A    
C48   C56   A    
C9    C95   A    
H15   O41   S    
C71   C84   A    
C28   C81   A    
C49   C74   A    
C79   C97   A    
C67   C80   A    
O13   Zn5   S    
C5    C97   A    
H21   O48   S    
O7    Zn3   S    
C2    C53   A    
C16   C45   S    
C23   O54   A    
C55   C67   A    
O17   Zn1   S    
H11   O38   S    
C14   O1    A    
H26   O22   S    
C78   C91   A    
O16   Zn2   S    
C23   C38   S    
C83   C91   A    
C45   C64   A    
C43   C92   A    
C87   O26   S    
C46   C63   A    
C11   C97   A    
C68   C82   A    
C22   O53   A    
C17   O14   A    
C17   C44   S    
C21   O9    A    
C5    C10   A    
C5    C71   A    
C18   C43   S    
C66   O24   S    
C32   C48   A    
C21   C40   S    
C72   C102  A    
C60   C69   A    
O15   Zn3   S    
C43   C66   A    
C82   C88   A    
C22   C39   S    
C83   O37   S    
C77   C99   A    
C35   C62   A    
C49   C81   A    
C84   C93   A    
H4    O30   S    
C57   C72   A    
C25   O3    A    
C63   O20   S    
C51   C78   A    
C37   C60   A    
H24   O50   S    
O1    Zn1   S    
C7    C51   A    
C3    C99   A    
C75   C88   A    
H22   O49   S    
H16   O42   S    
C93   O27   S    
C40   C59   A    
C20   O13   A    
O14   Zn4   S    
C50   O40   S    
H9    O36   S    
C65   O22   S    
C13   C102  A    
C12   C32   A    
C95   C101  A    
C15   C55   A    
C39   C48   A    
O5    Zn1   S    
C56   O47   S    
