data_mof_unit_32070.cif
_audit_creation_date              2012-12-10T21:21:43-0500
_audit_creation_method            fapswitch 2.2
_symmetry_space_group_name_H-M    P1
_symmetry_Int_Tables_number       1
_space_group_crystal_system       triclinic
_cell_length_a                    17.489324
_cell_length_b                    16.702852
_cell_length_c                    23.478705
_cell_angle_alpha                 90.096743
_cell_angle_beta                  90.213168
_cell_angle_gamma                 90.012348
_cell_volume                      6858.57922991

loop_
_atom_site_label
_atom_site_type_symbol
_atom_type_description
_atom_site_fract_x
_atom_site_fract_y
_atom_site_fract_z
_atom_type_partial_charge
C1    C     C_R   0.352931 0.499976 0.500903 0.862084
C2    C     C_R   0.512672 0.573367 0.701020 -0.360893
C3    C     C_R   0.485548 0.577626 0.240184 0.492436
C4    C     C_R   0.508863 0.579202 0.759727 0.515256
C5    C     C_R   0.500459 0.508457 0.207982 0.124638
C6    C     C_R   0.493326 0.510509 0.791829 0.125126
C7    C     C_R   0.847540 0.572595 0.522240 -0.157519
C8    C     C_R   0.153314 0.427291 0.524938 -0.159428
C9    C     C_R   0.152542 0.572642 0.521206 -0.157856
C10   C     C_R   0.847127 0.427155 0.523672 -0.160190
C11   C     C_R   0.769360 0.572744 0.512220 -0.197313
C12   C     C_R   0.647083 0.499990 0.500876 0.862238
C13   C     C_R   0.231394 0.427117 0.514914 -0.206700
C14   C     C_R   0.230622 0.572713 0.511185 -0.195630
C15   C     C_R   0.768946 0.427057 0.513643 -0.201711
C16   C     C_R   0.729686 0.499919 0.507818 -0.039215
C17   C     C_R   0.270416 0.499890 0.507925 -0.040675
C18   C     C_R   0.885871 0.499869 0.527990 0.163135
C19   C     C_R   0.114438 0.500000 0.528095 0.162676
C20   C     C_R   0.500879 0.499893 0.388987 0.942690
C21   C     C_R   0.498900 0.500028 0.610989 0.941875
C22   C     C_1   0.966225 0.499781 0.532536 -0.064568
C23   C     C_R   0.518274 0.435333 0.234570 0.163282
C24   C     C_1   0.034121 0.499825 0.532570 -0.064746
C25   C     C_R   0.439392 0.832532 0.474845 0.365633
C26   C     C_R   0.545355 0.167593 0.539520 0.356380
C27   C     C_R   0.560764 0.832657 0.525041 0.365350
C28   C     C_R   0.454786 0.167315 0.460436 0.357532
C29   C     C_R   0.439939 0.747830 0.476796 -0.143235
C30   C     C_R   0.545779 0.252592 0.537100 -0.139943
C31   C     C_R   0.560077 0.747949 0.523228 -0.142407
C32   C     C_R   0.454266 0.252350 0.462880 -0.142109
C33   C     C_R   0.500065 0.875587 0.499972 -0.085893
C34   C     C_R   0.476648 0.436969 0.765210 0.158117
C35   C     C_R   0.500122 0.124764 0.499961 -0.064304
C36   C     C_1   0.500122 0.963585 0.499924 0.092183
C37   C     C_1   0.500151 0.036732 0.499942 0.111589
C38   C     C_R   0.562723 0.521257 0.879862 0.597608
C39   C     C_R   0.430312 0.516424 0.120093 0.589440
C40   C     C_R   0.426334 0.514602 0.880883 0.560089
C41   C     C_R   0.566823 0.514175 0.118890 0.550119
C42   C     C_R   0.425399 0.519996 0.940456 -0.177011
C43   C     C_R   0.567467 0.521277 0.059456 -0.180982
C44   C     C_R   0.496018 0.520297 0.969977 -0.133626
C45   C     C_R   0.521289 0.431515 0.294493 0.118686
C46   C     C_R   0.496884 0.519516 0.029944 -0.134457
C47   C     C_R   0.565761 0.520767 0.939572 -0.192170
C48   C     C_R   0.427230 0.516510 0.060369 -0.190458
C49   C     C_R   0.356115 0.523330 0.971208 0.402460
C50   C     C_R   0.636494 0.528913 0.028847 0.404981
C51   C     C_R   0.356941 0.514494 0.030372 0.398554
C52   C     C_R   0.636087 0.521369 0.969593 0.397693
C53   C     C_3   0.272620 0.611984 0.930018 0.150001
C54   C     C_3   0.231666 0.655278 0.978740 -0.347145
C55   C     C_3   0.208133 0.739759 0.961351 -0.972072
C56   C     C_R   0.475581 0.432491 0.705250 0.119398
C57   C     C_3   0.714598 0.621450 0.071827 0.148527
C58   C     C_3   0.752621 0.669119 0.023964 -0.348782
C59   C     C_3   0.770118 0.754676 0.042816 -0.969909
C60   C     C_3   0.271423 0.426765 0.069889 0.158865
C61   C     C_3   0.224165 0.389364 0.021627 -0.348173
C62   C     C_3   0.196229 0.305825 0.037551 -0.972868
C63   C     C_3   0.725910 0.439007 0.929409 0.159640
C64   C     C_3   0.775045 0.403711 0.977345 -0.348394
C65   C     C_3   0.807323 0.322150 0.960651 -0.971973
C66   C     C_3   0.471613 0.321071 0.181282 -0.809031
C67   C     C_R   0.502485 0.500570 0.326621 -0.191643
C68   C     C_3   0.522918 0.323817 0.819502 -0.809046
C69   C     C_3   0.621856 0.354331 0.339101 -0.732612
C70   C     C_3   0.376182 0.354993 0.659285 -0.733386
C71   C     C_3   0.532157 0.683488 0.188235 0.081060
C72   C     C_3   0.532797 0.773873 0.198075 -0.333722
C73   C     C_3   0.598665 0.813695 0.166408 -0.973786
C74   C     C_3   0.458594 0.692760 0.799588 0.062533
C75   C     C_3   0.432712 0.745630 0.749808 -0.369329
C76   C     C_3   0.366050 0.799348 0.766872 -0.941476
C77   C     C_3   0.370922 0.861124 0.393305 0.108697
C78   C     C_R   0.495709 0.501141 0.673279 -0.185426
C79   C     C_3   0.431655 0.908667 0.360551 -0.365467
C80   C     C_3   0.415755 0.907506 0.296623 -0.972715
C81   C     C_3   0.595165 0.157588 0.631980 0.069192
C82   C     C_3   0.674301 0.193736 0.643306 -0.328656
C83   C     C_3   0.676145 0.239896 0.699404 -0.969977
C84   C     C_3   0.630780 0.862737 0.605681 0.107585
C85   C     C_3   0.571097 0.911807 0.638478 -0.373086
C86   C     C_3   0.591384 0.917796 0.701607 -0.962421
C87   C     C_3   0.403772 0.157126 0.368242 0.069749
C88   C     C_3   0.324248 0.192834 0.357920 -0.328579
C89   C     C_R   0.484617 0.572514 0.298961 -0.340075
C90   C     C_3   0.321031 0.239073 0.302001 -0.969400
H1    H     H_    0.392137 0.714376 0.459699 0.149785
H2    H     H_    0.877459 0.370800 0.527303 0.135007
H3    H     H_    0.337047 0.199592 0.265841 0.261910
H4    H     H_    0.740107 0.629613 0.508144 0.156472
H5    H     H_    0.261095 0.370279 0.512907 0.158128
H6    H     H_    0.259700 0.629518 0.506153 0.157166
H7    H     H_    0.739356 0.370202 0.510733 0.155660
H8    H     H_    0.234939 0.612892 0.891822 0.181838
H9    H     H_    0.325622 0.645141 0.918021 0.101279
H10   H     H_    0.179880 0.620894 0.991031 0.249869
H11   H     H_    0.270273 0.659404 0.016297 0.242962
H12   H     H_    0.259260 0.775407 0.949449 0.264166
H13   H     H_    0.582263 0.287267 0.564956 0.156420
H14   H     H_    0.179249 0.769775 0.997604 0.277616
H15   H     H_    0.167871 0.737572 0.924676 0.267731
H16   H     H_    0.752292 0.623553 0.109992 0.181886
H17   H     H_    0.659775 0.650592 0.084528 0.102970
H18   H     H_    0.806710 0.639143 0.011310 0.249364
H19   H     H_    0.714002 0.671311 0.986338 0.242404
H20   H     H_    0.716548 0.786089 0.054797 0.266090
H21   H     H_    0.797365 0.787727 0.007267 0.277284
H22   H     H_    0.809918 0.754563 0.079798 0.268041
H23   H     H_    0.237167 0.424874 0.109623 0.186696
H24   H     H_    0.607899 0.714602 0.540298 0.149291
H25   H     H_    0.323613 0.389992 0.078208 0.104277
H26   H     H_    0.174008 0.428047 0.012151 0.250317
H27   H     H_    0.259683 0.384547 0.982668 0.247633
H28   H     H_    0.245592 0.265956 0.046696 0.265974
H29   H     H_    0.162933 0.280048 0.001575 0.276595
H30   H     H_    0.158768 0.308770 0.075601 0.268645
H31   H     H_    0.760179 0.439499 0.889658 0.187235
H32   H     H_    0.675631 0.399482 0.920782 0.104222
H33   H     H_    0.823098 0.445099 0.987221 0.250874
H34   H     H_    0.739824 0.396271 0.016232 0.248061
H35   H     H_    0.417742 0.286879 0.435058 0.157193
H36   H     H_    0.760128 0.279619 0.951084 0.266112
H37   H     H_    0.841894 0.297822 0.996407 0.276885
H38   H     H_    0.844601 0.327807 0.922665 0.268596
H39   H     H_    0.580664 0.332568 0.215603 0.239322
H40   H     H_    0.491067 0.273905 0.151288 0.240603
H41   H     H_    0.429557 0.359445 0.158765 0.256639
H42   H     H_    0.443439 0.291938 0.218075 0.230245
H43   H     H_    0.414729 0.333708 0.783455 0.239665
H44   H     H_    0.503075 0.276396 0.849042 0.240933
H45   H     H_    0.563698 0.362838 0.842871 0.254426
H46   H     H_    0.470183 0.625825 0.323007 0.196026
H47   H     H_    0.552705 0.295080 0.783185 0.230765
H48   H     H_    0.522946 0.307332 0.302919 0.215136
H49   H     H_    0.659115 0.353083 0.300899 0.225421
H50   H     H_    0.631506 0.298836 0.364088 0.231261
H51   H     H_    0.637872 0.406337 0.366191 0.246026
H52   H     H_    0.474103 0.308238 0.697009 0.215197
H53   H     H_    0.337916 0.353903 0.696929 0.225871
H54   H     H_    0.367180 0.299396 0.634144 0.230042
H55   H     H_    0.360885 0.406881 0.631977 0.247547
H56   H     H_    0.527958 0.672197 0.141685 0.148007
H57   H     H_    0.528634 0.626217 0.677129 0.192046
H58   H     H_    0.587671 0.658753 0.204155 0.140538
H59   H     H_    0.477878 0.799981 0.183015 0.239189
H60   H     H_    0.538840 0.786165 0.244417 0.225928
H61   H     H_    0.654326 0.789025 0.181082 0.267612
H62   H     H_    0.597987 0.879128 0.174805 0.270706
H63   H     H_    0.592707 0.803700 0.119811 0.260767
H64   H     H_    0.471362 0.731698 0.836837 0.170378
H65   H     H_    0.410960 0.652613 0.812824 0.140391
H66   H     H_    0.481104 0.783591 0.735646 0.240228
H67   H     H_    0.414381 0.707425 0.713480 0.219795
H68   H     H_    0.878204 0.628901 0.524746 0.136856
H69   H     H_    0.316625 0.762483 0.780708 0.265974
H70   H     H_    0.348219 0.836256 0.729842 0.268562
H71   H     H_    0.383368 0.839986 0.802133 0.262004
H72   H     H_    0.313494 0.882771 0.380064 0.178368
H73   H     H_    0.373210 0.796633 0.381402 0.115010
H74   H     H_    0.432161 0.971627 0.375742 0.259657
H75   H     H_    0.489050 0.882343 0.368532 0.208341
H76   H     H_    0.412598 0.844858 0.280870 0.275783
H77   H     H_    0.462474 0.939002 0.273896 0.265117
H78   H     H_    0.360921 0.938365 0.287148 0.269050
H79   H     H_    0.123148 0.370975 0.529444 0.135479
H80   H     H_    0.586290 0.108088 0.662782 0.160503
H81   H     H_    0.548772 0.201568 0.641060 0.123547
H82   H     H_    0.717389 0.144864 0.644873 0.228332
H83   H     H_    0.690447 0.234872 0.608247 0.218058
H84   H     H_    0.636362 0.291667 0.697331 0.267399
H85   H     H_    0.734825 0.262812 0.707353 0.273888
H86   H     H_    0.659619 0.200250 0.735253 0.262021
H87   H     H_    0.688714 0.884041 0.618019 0.180932
H88   H     H_    0.628004 0.798599 0.618328 0.111048
H89   H     H_    0.567738 0.973061 0.620404 0.264302
H90   H     H_    0.121764 0.628916 0.522797 0.137033
H91   H     H_    0.514033 0.883139 0.633934 0.204891
H92   H     H_    0.599004 0.857197 0.720155 0.274107
H93   H     H_    0.544740 0.948998 0.724679 0.265405
H94   H     H_    0.645088 0.952454 0.707355 0.267925
H95   H     H_    0.412280 0.107793 0.337130 0.158729
H96   H     H_    0.449809 0.201354 0.358873 0.123204
H97   H     H_    0.281373 0.143713 0.356675 0.228926
H98   H     H_    0.308615 0.233803 0.393298 0.219268
H99   H     H_    0.360558 0.291103 0.303815 0.267315
H100  H     H_    0.262078 0.261615 0.294775 0.274393
N1    N     N_R   0.494093 0.515773 0.852442 -0.326733
N2    N     N_R   0.499115 0.512889 0.147391 -0.329540
N3    N     N_R   0.500000 0.707230 0.500000 -0.120870
N4    N     N_R   0.500000 0.292770 0.500000 -0.118541
N5    N     N_2   0.536689 0.367559 0.200267 -0.277401
N6    N     N_2   0.457902 0.369350 0.799399 -0.276778
N7    N     N_2   0.542261 0.358905 0.322337 -0.291386
N8    N     N_2   0.455329 0.359658 0.677226 -0.291540
O1    O     O_R   0.389110 0.566570 0.500000 -0.624213
O2    O     O_2   0.365598 0.519587 0.151121 -0.521062
O3    O     O_2   0.360496 0.507242 0.851162 -0.549775
O4    O     O_2   0.632913 0.508344 0.148457 -0.548855
O5    O     O_3   0.286045 0.530645 0.943991 -0.600277
O6    O     O_3   0.706056 0.539890 0.056204 -0.599985
O7    O     O_3   0.287595 0.508325 0.058354 -0.598409
O8    O     O_3   0.705655 0.519418 0.941604 -0.597340
O9    O     O_3   0.467133 0.650093 0.215025 -0.622676
O10   O     O_3   0.526649 0.651149 0.785892 -0.618948
O11   O     O_3   0.377309 0.873884 0.452785 -0.629248
O12   O     O_R   0.610890 0.433430 0.500000 -0.622761
O13   O     O_3   0.592477 0.124529 0.576349 -0.637702
O14   O     O_3   0.623471 0.874045 0.546154 -0.628905
O15   O     O_3   0.407682 0.123859 0.423684 -0.637020
O16   O     O_R   0.610890 0.566570 0.500000 -0.623121
O17   O     O_R   0.389110 0.433430 0.500000 -0.623111
O18   O     O_R   0.499970 0.566560 0.416150 -0.622535
O19   O     O_R   0.500030 0.433440 0.583850 -0.586183
O20   O     O_R   0.500030 0.566560 0.583850 -0.625197
O21   O     O_R   0.499970 0.433440 0.416150 -0.584581
O22   O     O_2   0.627391 0.526599 0.848936 -0.520103
Zn1   Zn    Zn3+2 0.500000 0.588860 0.500000 0.941090
Zn2   Zn    Zn3+2 0.500000 0.411140 0.500000 0.954001

loop_
_geom_bond_atom_site_label_1
_geom_bond_atom_site_label_2
_ccdc_geom_bond_type
C69   H49   S    
C86   H94   S    
C87   C88   S    
C49   O5    S    
C76   H69   S    
C34   C56   A    
C8    C13   A    
C23   C45   A    
C83   H85   S    
C58   H19   S    
H52   N8    S    
C54   H11   S    
C12   O16   A    
C79   H74   S    
C39   O2    S    
C33   C36   S    
C81   C82   S    
C60   H23   S    
C87   H95   S    
C7    H68   S    
C74   O10   S    
C85   C86   S    
C53   H9    S    
C7    C11   A    
C55   H12   S    
C62   H29   S    
C70   H53   S    
C53   O5    S    
C13   H5    S    
O12   Zn2   S    
C65   H37   S    
C36   C37   T    
C35   C37   S    
C23   N5    S    
C10   C15   A    
C62   H30   S    
C60   O7    S    
C61   C62   S    
C28   O15   S    
C45   N7    S    
C15   C16   A    
C67   C89   A    
C59   H20   S    
C56   C78   A    
C74   H64   S    
C14   H6    S    
O18   Zn1   S    
C75   C76   S    
C71   O9    S    
C20   C67   S    
C63   H31   S    
C75   H66   S    
C9    C19   A    
C88   H97   S    
C76   H70   S    
C12   C16   S    
C28   C35   A    
C49   C51   A    
C63   O8    S    
C21   C78   S    
C1    O17   A    
C50   C52   A    
C26   O13   S    
O1    Zn1   S    
C31   H24   S    
C56   N8    S    
C90   H3    S    
C44   C47   A    
C77   O11   S    
N4    Zn2   S    
C75   H67   S    
C69   H50   S    
N3    Zn1   S    
C71   H58   S    
C10   H2    S    
C70   N8    S    
C89   H46   S    
C21   O19   A    
C83   H86   S    
C73   H61   S    
C69   N7    S    
C41   C43   A    
C14   C17   A    
C54   H10   S    
C76   H71   S    
C1    O1    A    
C42   C44   A    
C15   H7    S    
C80   H76   S    
H39   N5    S    
C44   C46   A    
C4    O10   S    
C87   H96   S    
C66   H42   S    
C77   C79   S    
C25   C29   A    
C46   C48   A    
C48   C51   A    
C8    C19   A    
C74   C75   S    
C63   C64   S    
C27   C31   A    
C77   H73   S    
C65   H38   S    
C38   O22   S    
C28   C32   A    
C84   C85   S    
C32   N4    A    
C31   N3    A    
C2    H57   S    
C64   H34   S    
C61   H27   S    
C55   H14   S    
C27   C33   A    
C6    C34   A    
C60   C61   S    
C32   H35   S    
C30   H13   S    
C2    C4    A    
C9    C14   A    
C45   C67   A    
C2    C78   A    
O16   Zn1   S    
C11   C16   A    
C59   H21   S    
C5    C23   A    
C82   H83   S    
C85   H89   S    
C7    C18   A    
C61   H26   S    
C51   O7    S    
C59   H22   S    
C87   O15   S    
C68   N6    S    
C70   H55   S    
C81   H80   S    
C79   H75   S    
C84   H88   S    
C38   C47   A    
C9    H90   S    
C82   H82   S    
C11   H4    S    
C4    C6    A    
C81   O13   S    
C88   C90   S    
C82   C83   S    
C72   H60   S    
C21   O20   A    
C73   H62   S    
C86   H93   S    
C20   O21   A    
C52   O8    S    
C53   C54   S    
C25   O11   S    
O17   Zn2   S    
C20   O18   A    
C29   H1    S    
C63   H32   S    
C8    H79   S    
O20   Zn1   S    
C86   H92   S    
C66   H41   S    
C90   H100  S    
C34   N6    S    
C77   H72   S    
C58   H18   S    
C66   N5    S    
C54   C55   S    
O19   Zn2   S    
C85   H91   S    
C80   H77   S    
C41   N2    A    
C57   H17   S    
C18   C22   S    
C70   H54   S    
C68   H45   S    
C5    N2    S    
C72   C73   S    
C3    C5    A    
C68   H47   S    
C84   O14   S    
C43   C50   A    
C26   C30   A    
C47   C52   A    
C50   O6    S    
C53   H8    S    
C64   H33   S    
C1    C17   S    
C13   C17   A    
C3    C89   A    
C6    N1    S    
C3    O9    S    
C64   C65   S    
C68   H44   S    
C19   C24   S    
C58   C59   S    
C12   O12   A    
C71   C72   S    
C65   H36   S    
O21   Zn2   S    
C39   N2    A    
C57   C58   S    
C30   N4    A    
C40   N1    A    
C10   C18   A    
H43   N6    S    
C29   N3    A    
C57   O6    S    
C40   C42   A    
C27   O14   S    
C55   H15   S    
C74   H65   S    
C57   H16   S    
C22   C24   T    
C81   H81   S    
C84   H87   S    
C43   C46   A    
C62   H28   S    
C42   C49   A    
C79   C80   S    
H48   N7    S    
C26   C35   A    
C88   H98   S    
C71   H56   S    
C40   O3    S    
C72   H59   S    
C83   H84   S    
C73   H63   S    
C38   N1    A    
C60   H25   S    
C41   O4    S    
C69   H51   S    
C80   H78   S    
C25   C33   A    
C39   C48   A    
C66   H40   S    
C90   H99   S    
