data_mof_unit_25612.cif
_audit_creation_date              2012-12-11T15:59:26-0500
_audit_creation_method            fapswitch 2.2
_symmetry_space_group_name_H-M    P1
_symmetry_Int_Tables_number       1
_space_group_crystal_system       triclinic
_cell_length_a                    10.717213
_cell_length_b                    10.742686
_cell_length_c                    17.048485
_cell_angle_alpha                 99.480178
_cell_angle_beta                  99.966056
_cell_angle_gamma                 61.00578
_cell_volume                      1683.45389224

loop_
_atom_site_label
_atom_site_type_symbol
_atom_type_description
_atom_site_fract_x
_atom_site_fract_y
_atom_site_fract_z
_atom_type_partial_charge
C1    C     C_R   0.356405 0.768964 0.397927 0.545604
C2    C     C_R   0.820239 0.350217 0.322707 0.002741
C3    C     C_R   0.356756 0.816969 0.157840 -0.004716
C4    C     C_R   0.366304 0.343589 0.358577 0.551009
C5    C     C_R   0.447047 0.854097 0.217507 0.014115
C6    C     C_R   0.431935 0.858619 0.298710 0.011641
C7    C     C_R   0.286987 0.736152 0.256591 -0.144426
C8    C     C_R   0.288106 0.746962 0.177693 -0.144577
C9    C     C_R   0.550056 0.888383 0.199400 -0.099474
C10   C     C_R   0.624517 0.938420 0.259666 -0.122549
C11   C     C_R   0.602744 0.951300 0.338939 -0.099046
C12   C     C_R   0.838824 0.210991 0.193813 0.027962
C13   C     C_R   0.503966 0.916266 0.358498 -0.096541
C14   C     C_R   0.348685 0.800923 0.317591 0.008499
C15   C     C_R   0.334332 0.337021 0.822407 -0.026327
C16   C     C_R   0.773927 0.378861 0.402339 0.556261
C17   C     C_R   0.456899 0.235395 0.784424 0.016150
C18   C     C_R   0.441233 0.208679 0.701228 0.017256
C19   C     C_R   0.221658 0.435692 0.695545 -0.148105
C20   C     C_R   0.218766 0.442330 0.777478 -0.047103
C21   C     C_R   0.590789 0.151813 0.827321 -0.092517
C22   C     C_R   0.695494 0.028615 0.790014 -0.107178
C23   C     C_R   0.864218 0.214976 0.278341 -0.007612
C24   C     C_R   0.667543 0.986654 0.709878 -0.001761
C25   C     C_R   0.540744 0.075814 0.665620 -0.078532
C26   C     C_R   0.332867 0.320333 0.656621 -0.017347
C27   C     C_1   0.817097 0.342218 0.709114 -0.021137
C28   C     C_R   0.357926 0.770266 0.627269 0.557985
C29   C     C_1   0.843635 0.314185 0.776925 -0.025690
C30   C     C_1   0.339129 0.811262 0.709355 -0.028164
C31   C     C_1   0.312812 0.838911 0.777354 -0.026661
C32   C     C_R   0.888852 0.309602 0.086171 0.526943
C33   C     C_R   0.291602 0.261156 0.122132 0.569983
C34   C     C_R   0.778953 0.472149 0.283526 -0.143211
C35   C     C_R   0.298637 0.887208 0.084101 0.539881
C36   C     C_R   0.885069 0.297847 0.859285 0.541510
C37   C     C_R   0.309306 0.295628 0.894044 0.541260
C38   C     C_R   0.278791 0.885037 0.857170 0.554841
C39   C     C_R   0.367635 0.344734 0.582951 0.539329
C40   C     C_R   0.773435 0.380642 0.629763 0.562172
C41   C     C_1   0.325196 0.317595 0.276717 -0.035702
C42   C     C_1   0.305936 0.292509 0.206117 -0.029514
C43   C     C_R   0.819461 0.331026 0.157598 -0.004767
C44   C     C_1   0.099089 0.561095 0.814002 0.251525
C45   C     C_R   0.780999 0.462157 0.202560 -0.152383
C46   C     C_1   0.770882 0.854875 0.672109 0.209120
C47   C     C_3   0.755669 0.090081 0.068079 -0.333079
C48   C     C_1   0.921716 0.824154 0.142704 0.144661
C49   C     C_1   0.994461 0.074124 0.397039 0.207104
C50   C     C_R   0.840752 0.085253 0.149478 0.032656
C51   C     C_R   0.907629 0.956851 0.186407 -0.010943
C52   C     C_R   0.955176 0.957268 0.267877 -0.154208
C53   C     C_R   0.932500 0.084389 0.314449 -0.016367
Cr1   Cr    Cr6+3 0.608100 0.610860 0.522250 1.044096
Cr2   Cr    Cr6+3 0.288890 0.599990 0.488420 1.043936
Cr3   Cr    Cr6+3 0.603040 0.289190 0.489390 1.025251
Cr4   Cr    Cr6+3 0.053960 0.052250 0.967380 1.012270
Cr5   Cr    Cr6+3 0.059890 0.373160 0.992710 1.076262
Cr6   Cr    Cr6+3 0.373370 0.061690 0.991710 0.999751
H1    H     H_    0.742631 0.577824 0.315213 0.160105
H2    H     H_    0.004178 0.858522 0.296173 0.129107
H3    H     H_    0.235569 0.677608 0.269678 0.146699
H4    H     H_    0.579793 0.871309 0.139714 0.151784
H5    H     H_    0.227366 0.708556 0.132278 0.159876
H6    H     H_    0.679757 0.048371 0.069861 0.143782
H7    H     H_    0.690833 0.200545 0.050095 0.124077
H8    H     H_    0.828509 0.021599 0.021982 0.148285
H9    H     H_    0.697835 0.969403 0.244786 0.134760
H10   H     H_    0.662496 0.988892 0.385442 0.142614
H11   H     H_    0.485606 0.934489 0.420708 0.128776
H12   H     H_    0.139411 0.523019 0.662476 0.170213
H13   H     H_    0.612943 0.179693 0.890292 0.121812
H14   H     H_    0.795745 0.963797 0.824381 0.143983
H15   H     H_    0.521099 0.042226 0.603239 0.126403
H16   H     H_    0.759713 0.556256 0.175723 0.152289
N1    N     N_1   0.003249 0.656315 0.843187 -0.282333
N2    N     N_1   0.853772 0.749041 0.641600 -0.291768
N3    N     N_1   0.932872 0.717943 0.107793 -0.291739
N4    N     N_1   0.044196 0.065838 0.463110 -0.288324
O1    O     O_R   0.749810 0.499790 0.438040 -0.517925
O2    O     O_R   0.411730 0.181020 0.091530 -0.534551
O3    O     O_R   0.365010 0.944360 0.063320 -0.533319
O4    O     O_R   0.477660 0.726260 0.439290 -0.513226
O5    O     O_R   0.159380 0.906670 0.876210 -0.498476
O6    O     O_R   0.930820 0.177420 0.886730 -0.508711
O7    O     O_R   0.910360 0.395420 0.895720 -0.493123
O8    O     O_R   0.186010 0.361730 0.919870 -0.477898
O9    O     O_R   0.400000 0.173010 0.914630 -0.520926
O10   O     O_R   0.354140 0.936940 0.899340 -0.493204
O11   O     O_3   0.162410 0.162370 0.983930 -0.273380
O12   O     O_R   0.298970 0.468800 0.557390 -0.497092
O13   O     O_R   0.260150 0.743000 0.412270 -0.513665
O14   O     O_R   0.297740 0.466550 0.394720 -0.503068
O15   O     O_R   0.488080 0.253500 0.386430 -0.523123
O16   O     O_R   0.722670 0.303800 0.421940 -0.491658
O17   O     O_R   0.751130 0.502220 0.613520 -0.483681
O18   O     O_R   0.478890 0.728510 0.601960 -0.497861
O19   O     O_R   0.261470 0.745430 0.587750 -0.493614
O20   O     O_R   0.489400 0.255930 0.561910 -0.529147
O21   O     O_R   0.723890 0.306050 0.584610 -0.491054
O22   O     O_3   0.500010 0.500010 0.500020 -0.259618
O23   O     O_R   0.171100 0.914680 0.053100 -0.503693
O24   O     O_R   0.941680 0.184840 0.050710 -0.509536
O25   O     O_R   0.922080 0.403420 0.072610 -0.502642
O26   O     O_R   0.196880 0.369150 0.083850 -0.478346

loop_
_geom_bond_atom_site_label_1
_geom_bond_atom_site_label_2
_ccdc_geom_bond_type
C28   O18   A    
Cr3   O16   S    
C27   C29   T    
C41   C42   T    
Cr1   O22   S    
C19   H12   S    
C19   C20   A    
C18   C26   A    
Cr6   O3    S    
Cr2   O14   S    
C35   O23   A    
Cr5   O8    S    
C7    C8    A    
Cr3   O15   S    
Cr4   O23   S    
C38   O10   A    
C33   C42   S    
Cr3   O22   S    
C12   C43   A    
C52   H2    S    
C30   C31   T    
C26   C39   S    
C4    C41   S    
C25   H15   S    
Cr6   O10   S    
C48   N3    T    
C44   N1    T    
C19   C26   A    
Cr6   O9    S    
C15   C37   S    
Cr2   O12   S    
C37   O9    A    
C48   C51   S    
C32   O25   A    
Cr1   O18   S    
C2    C16   S    
C9    C10   A    
C47   H7    S    
Cr1   O17   S    
C2    C34   A    
C21   C22   A    
C34   H1    S    
C18   C25   A    
C40   O17   A    
Cr5   O7    S    
C47   H8    S    
Cr1   O4    S    
C20   C44   S    
C35   O3    A    
C37   O8    A    
C23   C53   A    
C47   C50   S    
Cr1   O1    S    
C7    C14   A    
C15   C20   A    
Cr4   O24   S    
C32   O24   A    
Cr4   O11   S    
C21   H13   S    
C51   C52   A    
C33   O26   A    
C24   C25   A    
C3    C8    A    
C12   C23   A    
C50   C51   A    
C17   C21   A    
C49   N4    T    
C16   O1    A    
Cr6   O11   S    
C7    H3    S    
C5    C9    A    
Cr2   O13   S    
C6    C14   A    
Cr5   O11   S    
C39   O20   A    
C29   C36   S    
C3    C35   S    
C27   C40   S    
C17   C18   A    
Cr4   O5    S    
C34   C45   A    
C43   C45   A    
C8    H5    S    
C4    O15   A    
C1    O13   A    
C22   C24   A    
Cr5   O25   S    
Cr3   O21   S    
C52   C53   A    
C28   O19   A    
C15   C17   A    
C16   O16   A    
C38   O5    A    
C9    H4    S    
C39   O12   A    
Cr6   O2    S    
C3    C5    A    
C40   O21   A    
C46   N2    T    
C12   C50   A    
C11   H10   S    
C10   H9    S    
C36   O6    A    
C1    O4    A    
Cr2   O22   S    
Cr3   O20   S    
C31   C38   S    
C45   H16   S    
Cr5   O26   S    
C36   O7    A    
C28   C30   S    
C24   C46   S    
C6    C13   A    
C11   C13   A    
C5    C6    A    
C49   C53   S    
Cr2   O19   S    
C32   C43   S    
Cr4   O6    S    
C10   C11   A    
C4    O14   A    
C13   H11   S    
C2    C23   A    
C1    C14   S    
C22   H14   S    
C33   O2    A    
C47   H6    S    
