data_mof_unit_7890.cif
_audit_creation_date              2012-12-10T21:00:47-0500
_audit_creation_method            fapswitch 2.2
_symmetry_space_group_name_H-M    P1
_symmetry_Int_Tables_number       1
_space_group_crystal_system       triclinic
_cell_length_a                    18.140377
_cell_length_b                    18.18491
_cell_length_c                    18.35072
_cell_angle_alpha                 120.269441
_cell_angle_beta                  89.878229
_cell_angle_gamma                 120.020538
_cell_volume                      4266.24706448

loop_
_atom_site_label
_atom_site_type_symbol
_atom_type_description
_atom_site_fract_x
_atom_site_fract_y
_atom_site_fract_z
_atom_type_partial_charge
C1    C     C_R   0.110068 0.220228 0.609314 0.493688
C2    C     C_3   0.450440 0.897316 0.947350 0.056404
C3    C     C_3   0.445687 0.032293 0.015367 -0.116729
C4    C     C_3   0.554273 0.967681 0.984509 -0.100309
C5    C     C_3   0.447613 0.404280 0.482568 -0.144644
C6    C     C_3   0.552478 0.595945 0.517534 -0.177326
C7    C     C_3   0.551651 0.475125 0.516900 0.282866
C8    C     C_3   0.448430 0.525127 0.483203 0.230600
C9    C     C_3   0.550628 0.499733 0.448801 0.009513
C10   C     C_3   0.449437 0.500472 0.551273 0.015641
C11   C     C_3   0.446508 0.429275 0.413293 -0.145014
C12   C     C_R   0.890039 0.779772 0.390667 0.491372
C13   C     C_3   0.553541 0.570947 0.586793 -0.129778
C14   C     C_R   0.918585 0.138855 0.787686 -0.112567
C15   C     C_R   0.080956 0.863295 0.211543 -0.110419
C16   C     C_R   0.392872 0.781080 0.888220 0.504963
C17   C     C_R   0.607120 0.218913 0.111726 0.507163
C18   C     C_R   0.943913 0.088316 0.716964 -0.084544
C19   C     C_R   0.056040 0.913436 0.282946 -0.084714
C20   C     C_R   0.951255 0.105628 0.649973 0.051811
C21   C     C_R   0.048178 0.894433 0.348911 0.052560
C22   C     C_R   0.931623 0.173180 0.654363 -0.070301
C23   C     C_3   0.925933 0.402535 0.442207 -0.120857
C24   C     C_R   0.066895 0.825535 0.342752 -0.067059
C25   C     C_R   0.906350 0.223504 0.725171 -0.097322
C26   C     C_R   0.091602 0.775458 0.271169 -0.094900
C27   C     C_R   0.899678 0.206201 0.791656 -0.095807
C28   C     C_R   0.098746 0.794440 0.205713 -0.094651
C29   C     C_R   0.928826 0.944612 0.521914 -0.147649
C30   C     C_R   0.071432 0.055422 0.478019 -0.146608
C31   C     C_R   0.948725 0.892120 0.446833 0.027881
C32   C     C_R   0.051515 0.107875 0.553084 0.027696
C33   C     C_R   0.021133 0.947192 0.424531 -0.027749
C34   C     C_3   0.074323 0.597698 0.557795 -0.120057
C35   C     C_R   0.978952 0.052801 0.575177 -0.027955
C36   C     C_R   0.658214 0.641936 0.822930 -0.095414
C37   C     C_R   0.342454 0.360802 0.178672 -0.096050
C38   C     C_R   0.611013 0.580664 0.853350 -0.066951
C39   C     C_R   0.389173 0.420990 0.147214 -0.067911
C40   C     C_R   0.109830 0.499754 0.888654 0.504589
C41   C     C_R   0.889741 0.499755 0.110889 0.501305
C42   C     C_R   0.595711 0.624619 0.934910 0.055251
C43   C     C_R   0.404424 0.376143 0.065780 0.054404
C44   C     C_R   0.628641 0.730408 0.985954 -0.065762
C45   C     C_3   0.449599 0.965699 0.922067 -0.130587
C46   C     C_R   0.371931 0.270523 0.015903 -0.066055
C47   C     C_R   0.675412 0.791233 0.955074 -0.103379
C48   C     C_R   0.325713 0.210821 0.047893 -0.098781
C49   C     C_R   0.690093 0.747006 0.873564 -0.104605
C50   C     C_R   0.311063 0.255956 0.129252 -0.103467
C51   C     C_R   0.593647 0.558023 0.022123 -0.154100
C52   C     C_R   0.406329 0.441721 0.977665 -0.152463
C53   C     C_R   0.550079 0.498908 0.055273 0.023122
C54   C     C_R   0.449907 0.500912 0.944572 0.023892
C55   C     C_R   0.455253 0.439980 0.033026 -0.039475
C56   C     C_3   0.550357 0.034271 0.077793 -0.115051
C57   C     C_R   0.544741 0.559900 0.966878 -0.039642
C58   C     C_R   0.072545 0.733343 0.890963 0.174490
C59   C     C_R   0.903234 0.244070 0.086041 0.178839
C60   C     C_R   0.072152 0.692701 0.939094 -0.044413
C61   C     C_R   0.912126 0.294286 0.044827 -0.020929
C62   C     C_R   0.003644 0.588820 0.905429 0.033370
C63   C     C_R   0.986054 0.397921 0.084428 0.023112
C64   C     C_R   0.392380 0.500140 0.607832 0.557951
C65   C     C_R   0.607630 0.499921 0.392183 0.552003
C66   C     C_R   0.933275 0.526593 0.825113 -0.111302
C67   C     C_3   0.554194 0.037597 0.959988 -0.110142
C68   C     C_R   0.052334 0.451138 0.164827 -0.104129
C69   C     C_R   0.931610 0.567521 0.778538 -0.144588
C70   C     C_R   0.043936 0.401839 0.206179 -0.128648
C71   C     C_R   0.000784 0.670152 0.810978 -0.051859
C72   C     C_R   0.969487 0.299344 0.167608 -0.079078
C73   C     C_R   0.952376 0.543549 0.009402 -0.158019
C74   C     C_R   0.046245 0.454691 0.989159 -0.156964
C75   C     C_R   0.945822 0.497916 0.053965 0.014934
C76   C     C_R   0.052996 0.500600 0.944785 0.016534
C77   C     C_R   0.992341 0.451426 0.042647 -0.043673
C78   C     C_3   0.445780 0.962373 0.039869 -0.123169
C79   C     C_R   0.004849 0.544948 0.954458 -0.040499
C80   C     C_R   0.394073 0.499918 0.888462 0.508059
C81   C     C_R   0.605926 0.500061 0.111520 0.505381
C82   C     C_R   0.108993 0.500209 0.607552 0.521303
C83   C     C_R   0.891087 0.499868 0.392450 0.519948
C84   C     C_3   0.024216 0.437462 0.447799 -0.104178
C85   C     C_3   0.976024 0.562755 0.552197 -0.107037
C86   C     C_3   0.046322 0.535057 0.454458 -0.117673
C87   C     C_3   0.953925 0.465155 0.545513 -0.120877
C88   C     C_3   0.948849 0.500053 0.449583 0.061826
C89   C     C_3   0.549528 0.102664 0.052520 0.064510
C90   C     C_3   0.051383 0.500159 0.550409 0.063194
C91   C     C_3   0.190544 0.852233 0.864149 -0.298610
C92   C     C_3   0.805247 0.062405 0.956032 -0.323127
H1    H     H_    0.083488 0.564022 0.416441 0.118410
H2    H     H_    0.062374 0.810659 0.393357 0.092704
H3    H     H_    0.891882 0.275892 0.728485 0.096606
H4    H     H_    0.105291 0.721974 0.266467 0.099526
H5    H     H_    0.871650 0.900800 0.536839 0.126259
H6    H     H_    0.128571 0.099298 0.463101 0.129058
H7    H     H_    0.726316 0.794170 0.849732 0.104666
H8    H     H_    0.275285 0.209676 0.153945 0.112051
H9    H     H_    0.670096 0.608046 0.760136 0.168430
H10   H     H_    0.330616 0.395346 0.241364 0.181174
H11   H     H_    0.586118 0.499201 0.813420 0.124823
H12   H     H_    0.916699 0.435775 0.583236 0.113848
H13   H     H_    0.413800 0.502347 0.186284 0.127399
H14   H     H_    0.617313 0.765235 0.049024 0.101378
H15   H     H_    0.383303 0.235028 0.952987 0.100898
H16   H     H_    0.044697 0.385999 0.405324 0.142702
H17   H     H_    0.955504 0.614195 0.594602 0.139302
H18   H     H_    0.700248 0.872604 0.994364 0.093696
H19   H     H_    0.301333 0.129644 0.009693 0.099369
H20   H     H_    0.666500 0.603080 0.038721 0.149109
H21   H     H_    0.333484 0.396734 0.961134 0.149787
H22   H     H_    0.997547 0.700366 0.774115 0.114740
H23   H     H_    0.879804 0.244996 0.846160 0.104999
H24   H     H_    0.963578 0.262979 0.201316 0.099095
H25   H     H_    0.126273 0.740804 0.001416 0.085439
H26   H     H_    0.860080 0.254813 0.984036 0.096853
H27   H     H_    0.879656 0.446627 0.798877 0.103820
H28   H     H_    0.109618 0.531085 0.195978 0.111158
H29   H     H_    0.876433 0.519675 0.717228 0.122838
H30   H     H_    0.094872 0.443379 0.268638 0.135235
H31   H     H_    0.915495 0.577450 0.016367 0.147803
H32   H     H_    0.082509 0.420001 0.981639 0.148633
H33   H     H_    0.864232 0.322383 0.393896 0.121919
H34   H     H_    0.118189 0.755880 0.150562 0.108707
H35   H     H_    0.135990 0.677860 0.606203 0.117248
H36   H     H_    0.599537 0.069854 0.927843 0.117458
H37   H     H_    0.400489 0.930074 0.072016 0.112444
H38   H     H_    0.407519 0.936189 0.857355 0.110548
H39   H     H_    0.592384 0.063760 0.142519 0.118877
H40   H     H_    0.401513 0.059917 0.028715 0.117495
H41   H     H_    0.598371 0.939980 0.971362 0.123688
H42   H     H_    0.404798 0.326266 0.469712 0.144982
H43   H     H_    0.595417 0.674000 0.530487 0.119750
H44   H     H_    0.403161 0.371728 0.341816 0.141852
H45   H     H_    0.913777 0.125943 0.839491 0.098935
H46   H     H_    0.596875 0.628533 0.658276 0.140677
H47   H     H_    0.186710 0.881541 0.988606 0.239121
H48   H     H_    0.245554 0.936156 0.898261 0.121287
H49   H     H_    0.144269 0.826532 0.804070 0.142164
H50   H     H_    0.220709 0.807678 0.843375 0.184060
H51   H     H_    0.820982 0.115509 0.089047 0.240937
H52   H     H_    0.745925 0.985172 0.935776 0.132446
H53   H     H_    0.863652 0.057640 0.946812 0.140495
H54   H     H_    0.787660 0.079910 0.911668 0.144241
H55   H     H_    0.636434 0.398098 0.625566 0.357583
H56   H     H_    0.086423 0.877754 0.160660 0.106498
H57   H     H_    0.473488 0.652451 0.421578 0.331590
H58   H     H_    0.958749 0.036675 0.714920 0.107870
H59   H     H_    0.042012 0.966201 0.286358 0.108346
H60   H     H_    0.935868 0.186800 0.602964 0.092437
N1    N     N_2   0.143370 0.838323 0.924791 -0.526921
N2    N     N_2   0.825816 0.140839 0.048882 -0.513924
O1    O     O_3   0.251620 0.500000 0.748430 -0.447768
O2    O     O_R   0.570330 0.268390 0.136490 -0.541024
O3    O     O_R   0.134680 0.268390 0.572240 -0.556556
O4    O     O_R   0.865320 0.731610 0.427760 -0.556821
O5    O     O_R   0.306670 0.731630 0.863510 -0.555928
O6    O     O_R   0.693330 0.268370 0.136490 -0.531995
O7    O     O_R   0.135450 0.439270 0.865360 -0.544320
O8    O     O_R   0.864550 0.560730 0.134640 -0.544798
O9    O     O_R   0.429670 0.560710 0.692610 -0.540979
O10   O     O_R   0.570330 0.439290 0.307390 -0.543274
O11   O     O_R   0.308540 0.439240 0.865360 -0.556263
O12   O     O_3   0.748380 0.500000 0.251570 -0.449919
O13   O     O_R   0.691460 0.560760 0.134640 -0.556796
O14   O     O_R   0.133580 0.439310 0.571150 -0.521911
O15   O     O_R   0.866420 0.560690 0.428850 -0.522360
O16   O     O_R   0.430770 0.560690 0.864590 -0.535540
O17   O     O_R   0.569230 0.439310 0.135410 -0.537461
O18   O     O_R   0.133580 0.560760 0.692610 -0.549289
O19   O     O_R   0.866420 0.439240 0.307390 -0.542322
O20   O     O_2   0.610262 0.352432 0.453215 -0.283118
O21   O     O_2   0.718257 0.534185 0.582800 -0.300107
O22   O     O_3   0.589904 0.405366 0.608591 -0.556716
O23   O     O_R   0.134680 0.560740 0.864590 -0.541524
O24   O     O_2   0.281828 0.466947 0.418625 -0.258224
O25   O     O_2   0.390109 0.648477 0.547384 -0.284730
O26   O     O_3   0.408421 0.594429 0.391216 -0.535768
O27   O     O_R   0.865320 0.439260 0.135410 -0.540220
O28   O     O_R   0.306670 0.439270 0.571150 -0.501845
O29   O     O_R   0.693330 0.560730 0.428850 -0.500076
O30   O     O_R   0.135450 0.268370 0.694460 -0.530873
O31   O     O_R   0.864550 0.731630 0.305540 -0.532018
O32   O     O_R   0.429670 0.731610 0.863510 -0.538427
S1    S     S_3+6 0.621236 0.441377 0.539418 -0.007463
S2    S     S_3+6 0.378938 0.559325 0.461213 0.002893
Zn1   Zn    Zn3+2 0.207400 0.586780 0.791530 0.930494
Zn2   Zn    Zn3+2 0.792600 0.413220 0.208470 0.949035
Zn3   Zn    Zn3+2 0.208510 0.413230 0.792630 0.931115
Zn4   Zn    Zn3+2 0.791490 0.586770 0.207370 0.926398
Zn5   Zn    Zn3+2 0.383150 0.586740 0.791530 0.955677
Zn6   Zn    Zn3+2 0.616850 0.413260 0.208470 0.950031
Zn7   Zn    Zn3+2 0.207400 0.413250 0.618010 0.977367
Zn8   Zn    Zn3+2 0.792600 0.586750 0.381990 0.974187

loop_
_geom_bond_atom_site_label_1
_geom_bond_atom_site_label_2
_ccdc_geom_bond_type
C7    C13   S    
C74   H32   S    
C51   H20   S    
C14   C18   A    
O32   Zn5   S    
O2    Zn6   S    
C76   C79   A    
C80   O16   A    
O7    Zn3   S    
C6    C9    S    
O8    Zn4   S    
C47   C49   A    
C82   O14   A    
C52   H21   S    
C8    S2    S    
C15   C19   A    
O13   Zn4   S    
C38   H11   S    
C84   C90   S    
O31   Zn4   S    
O1    Zn5   S    
C53   C81   S    
C58   N1    S    
C78   H37   S    
O12   Zn8   S    
C91   N1    S    
C85   H17   S    
C64   O9    A    
C63   C77   S    
C15   H56   S    
O10   Zn6   S    
C58   C71   A    
C66   C69   A    
C41   C75   S    
H47   N1    S    
C58   C60   A    
O19   Zn2   S    
C67   C89   S    
C56   C78   S    
C60   C62   A    
C34   C86   S    
C61   C63   A    
C17   O6    A    
O5    Zn1   S    
O26   S2    S    
C84   H16   S    
C20   C35   S    
C1    O30   A    
C87   H12   S    
C52   C54   A    
C34   H35   S    
C73   H31   S    
O14   Zn7   S    
C45   C67   S    
C19   H59   S    
C31   C33   A    
C51   C57   A    
C14   C27   A    
C2    C16   S    
O12   Zn4   S    
C52   C55   A    
C59   C72   A    
C23   H33   S    
C91   H50   S    
C64   O28   A    
C53   C55   A    
C83   C88   S    
C92   H53   S    
C45   H38   S    
C22   H60   S    
C23   C87   S    
C41   O8    A    
C4    C56   S    
C16   O5    A    
C73   C75   A    
C41   O27   A    
C42   C44   A    
O17   Zn6   S    
O1    Zn3   S    
C42   C57   S    
C59   N2    S    
C28   H34   S    
O15   Zn8   S    
C54   C80   S    
C85   C87   S    
C2    C45   S    
C26   H4    S    
C5    H42   S    
C37   C39   A    
C3    C89   S    
C82   O18   A    
C59   C61   A    
C69   C71   A    
C23   C84   S    
C62   C66   A    
C86   C88   S    
C92   H54   S    
C3    H40   S    
C32   C35   A    
C62   C79   S    
C17   C89   S    
C5    C7    S    
H55   O22   S    
H51   N2    S    
C6    C8    S    
O25   S2    D    
C22   C25   A    
H57   O26   S    
O4    Zn8   S    
C40   C76   S    
C71   H22   S    
C36   H9    S    
O12   Zn2   S    
C34   C85   S    
C2    C4    S    
C34   C90   S    
C6    H43   S    
C2    C78   S    
C86   H1    S    
C24   H2    S    
O20   S1    D    
C49   H7    S    
C9    C11   S    
O27   Zn2   S    
C70   H30   S    
C18   H58   S    
C14   H45   S    
C69   H29   S    
C46   H15   S    
C74   C77   A    
O29   Zn8   S    
C81   O13   A    
O30   Zn3   S    
C60   H25   S    
C48   C50   A    
C91   H48   S    
C75   C77   A    
C74   C76   A    
C43   C55   S    
C56   C89   S    
C20   C22   A    
C70   C72   A    
C25   H3    S    
C66   H27   S    
C83   O19   A    
C12   C31   S    
C21   C24   A    
C1    C32   S    
C80   O11   A    
O22   S1    S    
C30   H6    S    
C65   O29   A    
C85   C88   S    
C7    S1    S    
C39   H13   S    
C29   C35   A    
C63   C68   A    
C30   C33   A    
C19   C21   A    
C61   H26   S    
O3    Zn7   S    
C26   C28   A    
C46   C48   A    
C8    C10   S    
C10   C64   S    
O12   Zn6   S    
C84   C86   S    
C73   C79   A    
C10   C13   S    
O16   Zn5   S    
C39   C43   A    
C44   C47   A    
C5    C11   S    
C44   H14   S    
O18   Zn1   S    
C25   C27   A    
C47   H18   S    
C72   H24   S    
C50   H8    S    
C82   C90   S    
C29   H5    S    
O23   Zn1   S    
C23   C88   S    
C12   O4    A    
C13   H46   S    
C36   C38   A    
O6    Zn2   S    
C40   O7    A    
C29   C31   A    
C16   O32   A    
C67   H36   S    
C68   H28   S    
C6    C13   S    
C30   C32   A    
C37   C50   A    
C3    C78   S    
C24   C26   A    
C15   C28   A    
C37   H10   S    
C8    C11   S    
C12   O31   A    
C83   O15   A    
C65   O10   A    
C1    O3    A    
O11   Zn3   S    
C3    C45   S    
C18   C20   A    
C81   O17   A    
C92   H52   S    
C43   C46   A    
C9    C65   S    
C56   H39   S    
O1    Zn7   S    
O21   S1    D    
C40   O23   A    
C38   C42   A    
C7    C9    S    
C5    C10   S    
C48   H19   S    
C21   C33   S    
C68   C70   A    
C87   C90   S    
O9    Zn5   S    
C92   N2    S    
O28   Zn7   S    
C51   C53   A    
C11   H44   S    
C17   O2    A    
O24   S2    D    
O1    Zn1   S    
C36   C49   A    
C4    C67   S    
C4    H41   S    
C91   H49   S    
C54   C57   A    
C27   H23   S    
