data_mof_unit_52446.cif
_audit_creation_date              2012-12-11T14:17:52-0500
_audit_creation_method            fapswitch 2.2
_symmetry_space_group_name_H-M    P1
_symmetry_Int_Tables_number       1
_space_group_crystal_system       triclinic
_cell_length_a                    11.112762
_cell_length_b                    11.200884
_cell_length_c                    18.739576
_cell_angle_alpha                 89.701417
_cell_angle_beta                  89.880515
_cell_angle_gamma                 119.959183
_cell_volume                      2020.83534014

loop_
_atom_site_label
_atom_site_type_symbol
_atom_type_description
_atom_site_fract_x
_atom_site_fract_y
_atom_site_fract_z
_atom_type_partial_charge
C1    C     C_R   0.518161 0.463707 0.149772 0.638710
C2    C     C_R   0.009002 0.398366 0.537214 0.362483
C3    C     C_R   0.388431 0.992341 0.537365 0.358391
C4    C     C_R   0.603665 0.610824 0.536576 0.360867
C5    C     C_R   0.746528 0.062858 0.566643 0.484723
C6    C     C_R   0.941684 0.686525 0.565140 0.484893
C7    C     C_R   0.320151 0.253719 0.569671 0.480263
C8    C     C_R   0.066617 0.746266 0.430414 0.476767
C9    C     C_R   0.683158 0.937296 0.433012 0.482098
C10   C     C_R   0.254521 0.312721 0.435192 0.484292
C11   C     C_R   0.838441 0.033450 0.532521 -0.023848
C12   C     C_R   0.546429 0.067611 0.145610 0.587526
C13   C     C_R   0.969287 0.805642 0.529496 -0.025067
C14   C     C_R   0.197935 0.161238 0.536757 -0.022568
C15   C     C_R   0.036445 0.838065 0.463453 -0.021375
C16   C     C_R   0.804335 0.965820 0.467062 -0.021967
C17   C     C_R   0.162993 0.193298 0.470834 -0.023357
C18   C     C_R   0.518078 0.457405 0.353541 0.607791
C19   C     C_R   0.541480 0.059953 0.353451 0.611642
C20   C     C_R   0.939941 0.481468 0.353263 0.605581
C21   C     C_R   0.458784 0.518648 0.646714 0.632462
C22   C     C_R   0.060933 0.542646 0.646433 0.629581
C23   C     C_R   0.940308 0.480101 0.148176 0.579215
C24   C     C_R   0.481868 0.940151 0.646622 0.632377
C25   C     C_R   0.450811 0.907424 0.934825 0.014835
C26   C     C_R   0.021024 0.515591 0.928968 0.041110
C27   C     C_R   0.475906 0.512795 0.931919 0.035735
C28   C     C_R   0.008073 0.497316 0.078444 0.036483
C29   C     C_R   0.508532 0.008095 0.073912 0.017416
C30   C     C_R   0.501864 0.522390 0.081340 0.067374
C31   C     C_R   0.378514 0.973852 0.962944 -0.014013
C32   C     C_R   0.975172 0.386032 0.961899 -0.030897
C33   C     C_R   0.609407 0.587522 0.962617 -0.017175
C34   C     C_R   0.452043 0.522538 0.855415 0.601217
C35   C     C_R   0.987204 0.381146 0.037209 -0.026664
C36   C     C_R   0.428559 0.041500 0.028236 -0.009815
C37   C     C_R   0.619875 0.607853 0.037635 -0.003908
C38   C     C_R   0.558210 0.923528 0.049269 -0.150308
C39   C     C_R   0.054883 0.623200 0.044871 -0.167902
C40   C     C_R   0.371310 0.464696 0.050688 -0.164921
C41   C     C_R   0.063537 0.631687 0.971944 -0.178276
C42   C     C_R   0.535118 0.879416 0.979319 -0.166738
C43   C     C_R   0.358222 0.460065 0.976801 -0.179513
C44   C     C_R   0.267315 0.987573 0.930463 0.364439
C45   C     C_R   0.064808 0.544489 0.853823 0.610247
C46   C     C_R   0.919284 0.261851 0.922803 0.407529
C47   C     C_R   0.732342 0.649122 0.920905 0.399889
C48   C     C_R   0.977424 0.260485 0.067723 0.375249
C49   C     C_R   0.406244 0.150160 0.043728 0.403302
C50   C     C_R   0.746467 0.715034 0.065371 0.374531
C51   C     C_R   0.217480 0.065660 0.962945 -0.150078
C52   C     C_R   0.895624 0.140387 0.956082 -0.148191
C53   C     C_R   0.856506 0.749289 0.950162 -0.158437
C54   C     C_R   0.929964 0.141395 0.027408 -0.167873
C55   C     C_R   0.288288 0.148735 0.019272 -0.127640
C56   C     C_R   0.451417 0.874893 0.859827 0.531549
C57   C     C_R   0.863231 0.783861 0.021612 -0.180196
C58   C     C_R   0.502038 0.001707 0.575022 0.007510
C59   C     C_R   0.001086 0.502954 0.574527 0.004623
C60   C     C_R   0.500978 0.498048 0.575394 0.008388
C61   C     C_R   0.002999 0.502371 0.424481 0.006737
C62   C     C_R   0.500236 0.998902 0.425207 0.008000
C63   C     C_R   0.497904 0.497222 0.425412 0.005654
C64   C     C_R   0.617205 0.020659 0.535678 -0.124136
C65   C     C_R   0.984213 0.599622 0.534752 -0.125018
C66   C     C_R   0.405805 0.381931 0.537221 -0.122224
C67   C     C_R   0.396540 0.008750 0.463281 0.360191
C68   C     C_R   0.024066 0.618198 0.462801 -0.120477
C69   C     C_R   0.596608 0.979991 0.464201 -0.122324
C70   C     C_R   0.384214 0.400277 0.465391 -0.121881
C71   C     C_R   0.993245 0.389930 0.463134 0.363984
C72   C     C_R   0.610817 0.602348 0.462469 0.363568
Cr1   Cr    Cr6+3 0.768550 0.541320 0.250660 1.204519
Cr2   Cr    Cr6+3 0.458680 0.227230 0.250660 1.174001
Cr3   Cr    Cr6+3 0.772770 0.231450 0.250660 1.217193
Cr4   Cr    Cr6+3 0.541320 0.768550 0.749340 1.180448
Cr5   Cr    Cr6+3 0.227230 0.458680 0.749340 1.175022
Cr6   Cr    Cr6+3 0.231450 0.772770 0.749340 1.217874
F1    F     F_    0.191028 0.918587 0.873268 -0.611700
F2    F     F_    0.035574 0.307972 0.571861 -0.606713
F3    F     F_    0.269347 0.961909 0.571614 -0.616345
F4    F     F_    0.692667 0.729211 0.569814 -0.610387
F5    F     F_    0.782964 0.131118 0.629742 -0.535918
F6    F     F_    0.871887 0.655150 0.628367 -0.536492
F7    F     F_    0.353865 0.219159 0.633182 -0.549319
F8    F     F_    0.135293 0.781335 0.366825 -0.569732
F9    F     F_    0.650676 0.868903 0.369950 -0.554356
F10   F     F_    0.216068 0.343551 0.372017 -0.554393
F11   F     F_    0.879823 0.255118 0.853758 -0.557087
F12   F     F_    0.734819 0.610805 0.852552 -0.559753
F13   F     F_    0.026028 0.260120 0.134094 -0.602682
F14   F     F_    0.514440 0.267621 0.068102 -0.635628
F15   F     F_    0.754140 0.765562 0.131935 -0.604405
F16   F     F_    0.308170 0.039438 0.429411 -0.618694
F17   F     F_    0.964247 0.271843 0.429810 -0.606733
F18   F     F_    0.728082 0.692949 0.427529 -0.607555
H1    H     H_    0.621925 0.898515 0.082745 0.193574
H2    H     H_    0.919165 0.049310 0.052067 0.168785
H3    H     H_    0.252073 0.212062 0.042328 0.153184
H4    H     H_    0.959930 0.864262 0.043310 0.139168
H5    H     H_    0.933361 0.060698 0.558971 0.159006
H6    H     H_    0.940420 0.872405 0.554914 0.158183
H7    H     H_    0.130301 0.067491 0.564387 0.169169
H8    H     H_    0.062295 0.931556 0.435832 0.168514
H9    H     H_    0.871542 0.937845 0.440652 0.161901
H10   H     H_    0.067336 0.126120 0.445401 0.155950
H11   H     H_    0.078646 0.714866 0.074846 0.149974
H12   H     H_    0.279256 0.413110 0.083835 0.178502
H13   H     H_    0.104318 0.731696 0.949340 0.184961
H14   H     H_    0.585615 0.825017 0.959224 0.117587
H15   H     H_    0.254593 0.412385 0.954698 0.131289
H16   H     H_    0.127809 0.067455 0.941716 0.148353
H17   H     H_    0.853863 0.045786 0.925986 0.164547
H18   H     H_    0.947428 0.801794 0.916642 0.209108
O1    O     O_R   0.910960 0.572410 0.171010 -0.492973
O2    O     O_R   0.528530 0.639750 0.824400 -0.477232
O3    O     O_R   0.111220 0.471470 0.824400 -0.474071
O4    O     O_R   0.360250 0.888780 0.824400 -0.406961
O5    O     O_R   0.909330 0.572400 0.331540 -0.452318
O6    O     O_R   0.427600 0.336930 0.331540 -0.452080
O7    O     O_R   0.663070 0.090670 0.331540 -0.447203
O8    O     O_R   0.572400 0.909330 0.668460 -0.443504
O9    O     O_R   0.336930 0.427600 0.668460 -0.446767
O10   O     O_R   0.090670 0.663070 0.668460 -0.437893
O11   O     O_R   0.638240 0.528520 0.324410 -0.435280
O12   O     O_R   0.427590 0.338550 0.171010 -0.457098
O13   O     O_R   0.471480 0.109720 0.324410 -0.443292
O14   O     O_R   0.890280 0.361760 0.324410 -0.433411
O15   O     O_R   0.528520 0.638240 0.675590 -0.423523
O16   O     O_R   0.109720 0.471480 0.675590 -0.423749
O17   O     O_R   0.361760 0.890280 0.675590 -0.426019
O18   O     O_3   0.666667 0.333333 0.250630 -0.348317
O19   O     O_3   0.333333 0.666667 0.749370 -0.398518
O20   O     O_R   0.661450 0.089040 0.171010 -0.478911
O21   O     O_R   0.572410 0.910960 0.828990 -0.464145
O22   O     O_R   0.338550 0.427590 0.828990 -0.498722
O23   O     O_R   0.089040 0.661450 0.828990 -0.443814
O24   O     O_R   0.639750 0.528530 0.175600 -0.429526
O25   O     O_R   0.471470 0.111220 0.175600 -0.469144
O26   O     O_R   0.888780 0.360250 0.175600 -0.430882

loop_
_geom_bond_atom_site_label_1
_geom_bond_atom_site_label_2
_ccdc_geom_bond_type
C25   C31   A    
C26   C32   A    
C51   H16   S    
Cr1   O5    S    
Cr2   O18   S    
C12   C29   S    
C61   C68   A    
C25   C56   S    
Cr3   O20   S    
C39   C41   A    
C46   F11   S    
C66   C70   A    
C52   H17   S    
C27   C33   A    
C48   C54   A    
C29   C36   A    
C10   F10   S    
C43   H15   S    
C62   C67   A    
Cr6   O4    S    
C9    C16   A    
C9    C69   A    
C20   O14   A    
Cr5   O3    S    
Cr3   O26   S    
C18   O11   A    
C5    F5    S    
C18   C63   S    
C71   F17   S    
Cr1   O24   S    
C19   C62   S    
C34   O2    A    
C46   C52   A    
C62   C69   A    
Cr3   O14   S    
C11   C16   A    
C20   C61   S    
Cr3   O18   S    
C26   C45   S    
C7    C14   A    
C28   C35   A    
C48   F13   S    
C29   C38   A    
C3    F3    S    
C67   F16   S    
Cr5   O22   S    
C15   H8    S    
Cr6   O10   S    
C8    F8    S    
C47   C53   A    
C61   C71   A    
Cr1   O18   S    
C60   C66   A    
C41   H13   S    
C22   O16   A    
C14   C17   A    
Cr5   O19   S    
C38   H1    S    
C35   C48   A    
C24   O8    A    
Cr4   O21   S    
C52   C54   A    
C6    C65   A    
C27   C34   S    
C58   C64   A    
C6    F6    S    
C31   C44   A    
C32   C35   A    
C23   O26   A    
C1    O12   A    
C21   C60   S    
C22   C59   S    
C53   C57   A    
C2    C59   A    
C28   C39   A    
C49   C55   A    
C57   H4    S    
C33   C37   A    
C30   C37   A    
C21   O9    A    
C39   H11   S    
Cr6   O17   S    
C3    C58   A    
Cr5   O9    S    
Cr4   O15   S    
Cr2   O13   S    
C63   C70   A    
C34   O22   A    
C65   C68   A    
C4    C60   A    
C45   O23   A    
C12   O25   A    
C30   C40   A    
Cr2   O12   S    
C11   H5    S    
C23   C28   S    
C21   O15   A    
C16   H9    S    
C10   C70   A    
C44   C51   A    
C8    C68   A    
C8    C15   A    
C13   C15   A    
C5    C11   A    
C33   C47   A    
C47   F12   S    
C49   F14   S    
C2    C71   A    
Cr6   O23   S    
C18   O6    A    
C4    C72   A    
C56   O21   A    
Cr2   O6    S    
C53   H18   S    
C45   O3    A    
C19   O7    A    
Cr3   O7    S    
C50   C57   A    
C32   C46   A    
C44   F1    S    
C3    C67   A    
C25   C42   A    
Cr4   O19   S    
C50   F15   S    
C22   O10   A    
C64   C69   A    
Cr2   O25   S    
Cr1   O1    S    
C40   H12   S    
Cr4   O8    S    
C40   C43   A    
C42   H14   S    
C17   H10   S    
C9    F9    S    
C6    C13   A    
C56   O4    A    
C37   C50   A    
C24   O17   A    
C14   H7    S    
C7    F7    S    
Cr1   O11   S    
C19   O13   A    
C1    C30   S    
Cr4   O2    S    
C51   C55   A    
Cr5   O16   S    
Cr6   O19   S    
C2    F2    S    
C1    O24   A    
C23   O1    A    
C72   F18   S    
C38   C42   A    
C27   C43   A    
C4    F4    S    
C63   C72   A    
C5    C64   A    
C24   C58   S    
C55   H3    S    
C31   C36   A    
C54   H2    S    
C12   O20   A    
C10   C17   A    
C13   H6    S    
C20   O5    A    
C59   C65   A    
C36   C49   A    
C26   C41   A    
C7    C66   A    
