data_mof_unit_25276.cif
_audit_creation_date              2012-12-10T17:15:16-0500
_audit_creation_method            fapswitch 2.2
_symmetry_space_group_name_H-M    P1
_symmetry_Int_Tables_number       1
_space_group_crystal_system       triclinic
_cell_length_a                    10.19617
_cell_length_b                    10.639759
_cell_length_c                    12.843209
_cell_angle_alpha                 87.885479
_cell_angle_beta                  90.778715
_cell_angle_gamma                 94.923659
_cell_volume                      1387.13025911

loop_
_atom_site_label
_atom_site_type_symbol
_atom_type_description
_atom_site_fract_x
_atom_site_fract_y
_atom_site_fract_z
_atom_type_partial_charge
C1    C     C_R   0.447907 0.267283 0.488363 0.943732
C2    C     C_R   0.672154 0.477651 0.032329 0.196992
C3    C     C_R   0.329775 0.484988 0.857586 0.081187
C4    C     C_R   0.667450 0.493744 0.140236 0.132818
C5    C     C_R   0.554085 0.425861 0.870759 0.159531
C6    C     C_R   0.428216 0.500424 0.124507 0.161225
C7    C     C_R   0.554369 0.448429 0.976790 -0.054230
C8    C     C_R   0.432058 0.459589 0.023651 -0.059552
C9    C     C_2   0.426117 0.134683 0.469682 -0.374499
C10   C     C_2   0.583455 0.868675 0.483704 -0.404506
C11   C     C_2   0.521673 0.073046 0.428055 0.172091
C12   C     C_R   0.554392 0.733647 0.499594 0.953668
C13   C     C_2   0.502120 0.938050 0.426574 0.173327
C14   C     C_3   0.919356 0.672163 0.540235 -0.345063
C15   C     C_3   0.042629 0.765005 0.553670 -0.399459
C16   C     C_3   0.009760 0.884715 0.606018 -0.804488
C17   C     C_3   0.107029 0.363872 0.574511 -0.378055
C18   C     C_3   0.020081 0.310037 0.666617 -0.406855
C19   C     C_3   0.094428 0.223787 0.739847 -0.765302
C20   C     C_2   0.074499 0.488067 0.518643 0.144879
C21   C     C_2   0.939035 0.532649 0.531577 0.113251
C22   C     C_R   0.472245 0.495180 0.698848 0.930622
C23   C     C_R   0.527189 0.501933 0.300346 0.937344
C24   C     C_R   0.542794 0.499507 0.187450 -0.238675
C25   C     C_R   0.450777 0.470208 0.809520 -0.236027
C26   C     C_R   0.317644 0.450833 0.962229 0.211049
H1    H     H_    0.669911 0.913618 0.522102 0.153483
H2    H     H_    0.868149 0.703751 0.468409 0.227552
H3    H     H_    0.856605 0.679380 0.609507 0.252806
H4    H     H_    0.128972 0.144896 0.696384 0.242861
H5    H     H_    0.181003 0.276940 0.775363 0.269318
H6    H     H_    0.028233 0.184123 0.803093 0.289572
H7    H     H_    0.985244 0.387047 0.712151 0.287459
H8    H     H_    0.933522 0.250309 0.638149 0.234146
H9    H     H_    0.108230 0.290132 0.515569 0.208559
H10   H     H_    0.205000 0.378029 0.608241 0.278483
H11   H     H_    0.334084 0.084791 0.495602 0.146811
H12   H     H_    0.852652 0.361162 0.518074 0.194648
H13   H     H_    0.131301 0.621342 0.409333 0.195832
H14   H     H_    0.932354 0.930963 0.560846 0.262601
H15   H     H_    0.975237 0.862220 0.686769 0.281811
H16   H     H_    0.099549 0.951228 0.609241 0.249713
H17   H     H_    0.119701 0.721607 0.600438 0.272478
H18   H     H_    0.083498 0.795025 0.476275 0.240364
I1    I     I_    0.267300 0.612025 0.159300 -0.162033
I2    I     I_    0.672979 0.284942 0.816188 -0.291407
I3    I     I_    0.851433 0.525764 0.223636 -0.208772
I4    I     I_    0.177617 0.588397 0.793530 -0.304875
I5    I     I_    0.141686 0.346884 0.016235 -0.192619
I6    I     I_    0.846653 0.542962 0.948560 -0.183328
I7    I     I_    0.335503 0.873626 0.335095 -0.279916
I8    I     I_    0.698085 0.155530 0.355473 -0.280136
N1    N     N_2   0.162330 0.550370 0.457540 -0.201093
N2    N     N_2   0.837670 0.449630 0.542460 -0.205943
O1    O     O_R   0.567930 0.307680 0.508550 -0.579426
O2    O     O_R   0.432070 0.692320 0.491450 -0.574231
O3    O     O_R   0.351090 0.340020 0.481290 -0.639573
O4    O     O_R   0.648910 0.659980 0.518710 -0.641625
O5    O     O_R   0.590490 0.486480 0.665020 -0.577856
O6    O     O_R   0.409510 0.513520 0.334980 -0.571600
O7    O     O_R   0.373660 0.518820 0.637760 -0.622878
O8    O     O_R   0.626340 0.481180 0.362240 -0.583170
Zn1   Zn    Zn3+2 0.644780 0.478400 0.518200 0.985231
Zn2   Zn    Zn3+2 0.355220 0.521600 0.481800 0.981746

loop_
_geom_bond_atom_site_label_1
_geom_bond_atom_site_label_2
_ccdc_geom_bond_type
C10   H1    S    
O7    Zn2   S    
C2    C4    A    
C23   C24   S    
O2    Zn2   S    
O8    Zn1   S    
C6    I1    S    
C1    O3    A    
C18   H8    S    
C5    I2    S    
O5    Zn1   S    
C2    C7    A    
H12   N2    S    
C21   N2    D    
O6    Zn2   S    
C6    C24   A    
C9    H11   S    
C17   C18   S    
C1    O1    A    
C19   H5    S    
C7    C8    A    
H13   N1    S    
C22   O7    A    
C9    C11   D    
C12   O2    A    
C10   C12   S    
C12   O4    A    
C16   H14   S    
C5    C25   A    
C19   H6    S    
C16   H15   S    
C14   C21   S    
C17   H9    S    
C17   H10   S    
C15   H18   S    
C23   O8    A    
C23   O6    A    
C4    C24   A    
C18   H7    S    
C11   C13   S    
N2    Zn1   S    
C8    C26   A    
C14   H3    S    
C15   H17   S    
C15   C16   S    
C16   H16   S    
C3    I4    S    
C3    C25   A    
C17   C20   S    
C1    C9    S    
C20   C21   S    
O3    Zn2   S    
C18   C19   S    
C26   I5    S    
C22   O5    A    
C5    C7    A    
C14   C15   S    
C6    C8    A    
C11   I8    S    
C2    I6    S    
C14   H2    S    
C13   I7    S    
C19   H4    S    
N1    Zn2   S    
C4    I3    S    
C3    C26   A    
O4    Zn1   S    
C20   N1    D    
C10   C13   D    
C22   C25   S    
O1    Zn1   S    
