data_mof_unit_7229.cif
_audit_creation_date              2013-03-05T15:40:39-0500
_audit_creation_method            fapswitch 2.2
_symmetry_space_group_name_H-M    P1
_symmetry_Int_Tables_number       1
_space_group_crystal_system       triclinic
_cell_length_a                    18.997263
_cell_length_b                    11.011661
_cell_length_c                    18.760104
_cell_angle_alpha                 89.442294
_cell_angle_beta                  89.632419
_cell_angle_gamma                 90.009858
_cell_volume                      3924.18601678

loop_
_atom_site_label
_atom_site_type_symbol
_atom_site_description
_atom_site_fract_x
_atom_site_fract_y
_atom_site_fract_z
_atom_type_partial_charge
O1    O     O_R   0.043230 0.549300 0.667990 -0.470274
O2    O     O_R   0.956770 0.549300 0.332010 -0.520435
O3    O     O_R   0.543230 0.049300 0.667990 -0.470470
O4    O     O_R   0.456770 0.049300 0.332010 -0.520265
O5    O     O_R   0.178620 0.457600 0.674100 -0.426303
O6    O     O_R   0.821380 0.457600 0.325900 -0.437412
O7    O     O_R   0.678620 0.957600 0.674100 -0.426697
O8    O     O_R   0.321380 0.957600 0.325900 -0.438032
C1    C     C_R   0.239879 0.467219 0.646777 0.554073
C2    C     C_R   0.759271 0.465081 0.352306 0.577433
C3    C     C_R   0.739879 0.967217 0.646778 0.553980
C4    C     C_R   0.259269 0.965060 0.352299 0.575036
O9    O     O_R   0.284680 0.542100 0.669460 -0.537246
O10   O     O_R   0.715320 0.542100 0.330540 -0.540428
O11   O     O_R   0.784680 0.042100 0.669460 -0.537011
O12   O     O_R   0.215320 0.042100 0.330540 -0.542547
O13   O     O_R   0.262860 0.790390 0.676650 -0.512541
O14   O     O_R   0.737140 0.790390 0.323350 -0.511968
O15   O     O_R   0.762860 0.290390 0.676650 -0.513552
O16   O     O_R   0.237140 0.290390 0.323350 -0.512909
C5    C     C_R   0.226901 0.872329 0.646575 0.569833
C6    C     C_R   0.772552 0.873404 0.352526 0.580731
C7    C     C_R   0.726910 0.372348 0.646584 0.567889
C8    C     C_R   0.272550 0.373405 0.352526 0.579775
O17   O     O_R   0.167460 0.907030 0.670940 -0.463429
O18   O     O_R   0.832540 0.907030 0.329060 -0.453070
O19   O     O_R   0.667460 0.407030 0.670940 -0.465516
O20   O     O_R   0.332540 0.407030 0.329060 -0.453400
O21   O     O_R   0.053950 0.750220 0.675100 -0.512683
O22   O     O_R   0.946050 0.750220 0.324900 -0.500587
O23   O     O_R   0.553950 0.250220 0.675100 -0.513384
O24   O     O_R   0.446050 0.250220 0.324900 -0.500465
C9    C     C_R   0.026406 0.656640 0.646964 0.530415
C10   C     C_R   0.972204 0.653942 0.354372 0.523371
C11   C     C_R   0.526405 0.156639 0.646965 0.530036
C12   C     C_R   0.472201 0.153941 0.354375 0.523638
O25   O     O_R   0.043300 0.547370 0.827390 -0.516038
O26   O     O_R   0.956700 0.547370 0.172610 -0.512438
O27   O     O_R   0.543300 0.047370 0.827390 -0.518913
O28   O     O_R   0.456700 0.047370 0.172610 -0.512937
O29   O     O_R   0.178690 0.455820 0.821860 -0.504796
O30   O     O_R   0.821310 0.455820 0.178140 -0.484493
O31   O     O_R   0.678690 0.955820 0.821860 -0.505820
O32   O     O_R   0.321310 0.955820 0.178140 -0.489355
C13   C     C_R   0.239269 0.463110 0.849656 0.549568
C14   C     C_R   0.762228 0.470686 0.147394 0.558025
C15   C     C_R   0.739291 0.962982 0.849617 0.550129
C16   C     C_R   0.260692 0.963676 0.150447 0.560587
O33   O     O_R   0.284750 0.540170 0.828860 -0.512867
O34   O     O_R   0.715250 0.540170 0.171140 -0.518349
O35   O     O_R   0.784750 0.040170 0.828860 -0.512749
O36   O     O_R   0.215250 0.040170 0.171140 -0.516459
O37   O     O_R   0.262920 0.788600 0.824420 -0.495147
O38   O     O_R   0.737080 0.788600 0.175580 -0.505405
O39   O     O_R   0.762920 0.288600 0.824420 -0.499447
O40   O     O_R   0.237080 0.288600 0.175580 -0.497296
C17   C     C_R   0.225807 0.869725 0.854607 0.553002
C18   C     C_R   0.774184 0.870503 0.145405 0.553745
C19   C     C_R   0.728418 0.375132 0.851633 0.557556
C20   C     C_R   0.274105 0.370753 0.145509 0.555536
O41   O     O_R   0.167530 0.905110 0.830340 -0.511187
O42   O     O_R   0.832470 0.905110 0.169660 -0.503417
O43   O     O_R   0.667530 0.405110 0.830340 -0.510392
O44   O     O_R   0.332470 0.405110 0.169660 -0.505524
O45   O     O_R   0.054010 0.748440 0.822860 -0.507759
O46   O     O_R   0.945990 0.748440 0.177140 -0.510836
O47   O     O_R   0.554010 0.248440 0.822860 -0.500062
O48   O     O_R   0.445990 0.248440 0.177140 -0.508869
C21   C     C_R   0.031513 0.651269 0.852415 0.540302
C22   C     C_R   0.972250 0.653177 0.150187 0.545994
C23   C     C_R   0.531417 0.151259 0.852354 0.542490
C24   C     C_R   0.472211 0.153148 0.150172 0.546181
Cr1   Cr    Cr6+3 0.113970 0.508630 0.747920 1.081332
Cr2   Cr    Cr6+3 0.886030 0.508630 0.252080 1.071715
Cr3   Cr    Cr6+3 0.613970 0.008630 0.747920 1.079592
Cr4   Cr    Cr6+3 0.386030 0.008630 0.252080 1.070577
Cr5   Cr    Cr6+3 0.269200 0.666740 0.749850 1.018325
Cr6   Cr    Cr6+3 0.730800 0.666740 0.250150 1.015781
Cr7   Cr    Cr6+3 0.769200 0.166740 0.749850 1.017576
Cr8   Cr    Cr6+3 0.230800 0.166740 0.250150 1.018093
Cr9   Cr    Cr6+3 0.112300 0.820070 0.749800 1.036799
Cr10  Cr    Cr6+3 0.887700 0.820070 0.250200 1.050339
Cr11  Cr    Cr6+3 0.612300 0.320070 0.749800 1.038749
Cr12  Cr    Cr6+3 0.387700 0.320070 0.250200 1.053184
O49   O     O_3   0.165160 0.665150 0.749190 -0.262855
O50   O     O_3   0.834840 0.665150 0.250810 -0.265191
O51   O     O_3   0.665160 0.165150 0.749190 -0.260981
O52   O     O_3   0.334840 0.165150 0.250810 -0.263940
C25   C     C_2   0.246818 0.900765 0.573293 -0.143983
C26   C     C_2   0.750624 0.908186 0.423675 -0.134350
C27   C     C_2   0.746852 0.400828 0.573318 -0.143460
C28   C     C_2   0.250616 0.408190 0.423672 -0.134337
C29   C     C_2   0.240432 0.905362 0.419102 -0.101734
C30   C     C_2   0.755510 0.910443 0.578865 -0.117814
C31   C     C_2   0.740450 0.405473 0.419137 -0.101865
C32   C     C_2   0.255510 0.410454 0.578862 -0.117736
C33   C     C_2   0.279458 0.822226 0.453336 0.172196
C34   C     C_2   0.709093 0.843056 0.542748 0.184528
C35   C     C_2   0.779475 0.322324 0.453349 0.171969
C36   C     C_2   0.209094 0.343061 0.542748 0.184369
C37   C     C_2   0.269259 0.809034 0.531137 -0.165321
C38   C     C_2   0.719782 0.824053 0.466305 -0.170689
C39   C     C_2   0.769320 0.309126 0.531153 -0.164973
C40   C     C_2   0.219775 0.324058 0.466304 -0.170683
H1    H     H_    0.278846 0.719559 0.554012 0.179966
H2    H     H_    0.702484 0.737550 0.445140 0.169245
H3    H     H_    0.778926 0.219650 0.554017 0.180106
H4    H     H_    0.202480 0.237549 0.445142 0.169287
H5    H     H_    0.195622 0.945659 0.446383 0.086374
H6    H     H_    0.804236 0.939315 0.553108 0.097019
H7    H     H_    0.695667 0.445827 0.446432 0.086232
H8    H     H_    0.304231 0.439339 0.553100 0.097081
H9    H     H_    0.236843 0.991072 0.552405 0.145925
H10   H     H_    0.767181 0.995344 0.443895 0.166121
H11   H     H_    0.736862 0.491137 0.552444 0.145862
H12   H     H_    0.267165 0.495354 0.443889 0.166053
C41   C     C_R   0.001785 0.658150 0.427575 -0.035790
C42   C     C_R   0.990067 0.670867 0.577464 -0.042554
C43   C     C_R   0.501771 0.158146 0.427583 -0.035713
C44   C     C_R   0.490056 0.170863 0.577471 -0.042335
C45   C     C_R   0.030020 0.876325 0.422873 -0.077393
C46   C     C_R   0.000592 0.894744 0.568185 -0.069998
C47   C     C_R   0.529998 0.376329 0.422885 -0.077281
C48   C     C_R   0.500562 0.394738 0.568196 -0.069973
C49   C     C_R   0.034663 0.988345 0.456338 -0.089665
C50   C     C_R   0.017938 0.998127 0.528366 -0.069668
C51   C     C_R   0.534628 0.488351 0.456351 -0.089483
C52   C     C_R   0.517896 0.498127 0.528378 -0.069653
C53   C     C_R   0.000329 0.778846 0.536513 0.004364
C54   C     C_R   0.010035 0.771179 0.461613 0.007351
C55   C     C_R   0.500309 0.278842 0.536522 0.004504
C56   C     C_R   0.510017 0.271178 0.461623 0.007196
H13   H     H_    0.050756 0.067749 0.425984 0.119561
H14   H     H_    0.019030 0.085848 0.553774 0.164574
H15   H     H_    0.550715 0.567759 0.425998 0.119859
H16   H     H_    0.518976 0.585847 0.553787 0.164475
H17   H     H_    0.044235 0.871930 0.367001 0.128313
H18   H     H_    0.985870 0.906830 0.623447 0.133984
H19   H     H_    0.544217 0.371939 0.367015 0.129245
H20   H     H_    0.485839 0.406816 0.623458 0.133668
C57   C     C_R   0.974228 0.562708 0.542003 0.018416
C58   C     C_R   0.994554 0.551523 0.470437 0.017597
C59   C     C_R   0.474214 0.062704 0.542013 0.018500
C60   C     C_R   0.494536 0.051517 0.470445 0.017607
C61   C     C_R   0.945119 0.461274 0.578275 -0.058961
C62   C     C_R   0.004755 0.433071 0.443779 -0.051026
C63   C     C_R   0.445104 0.961274 0.578287 -0.058922
C64   C     C_R   0.504725 0.933062 0.443786 -0.050855
C65   C     C_R   0.947011 0.346797 0.547359 -0.041055
C66   C     C_R   0.980397 0.332113 0.481712 -0.029021
C67   C     C_R   0.446981 0.846799 0.547369 -0.041137
C68   C     C_R   0.480357 0.832109 0.481717 -0.028917
H21   H     H_    0.031486 0.417810 0.393530 0.133018
H22   H     H_    0.923402 0.470030 0.631525 0.117776
H23   H     H_    0.531454 0.917791 0.393538 0.133227
H24   H     H_    0.423392 0.970033 0.631539 0.117889
H25   H     H_    0.926563 0.268663 0.576176 0.132272
H26   H     H_    0.987094 0.242787 0.459657 0.147181
H27   H     H_    0.426526 0.768670 0.576186 0.132225
H28   H     H_    0.487036 0.742783 0.459658 0.147287
C69   C     C_2   0.238883 0.896413 0.928707 -0.092470
C70   C     C_2   0.761653 0.897298 0.071027 -0.098915
C71   C     C_2   0.755200 0.426640 0.916638 -0.104381
C72   C     C_2   0.261490 0.398071 0.071221 -0.088705
C73   C     C_2   0.248072 0.897794 0.085306 -0.101435
C74   C     C_2   0.751869 0.895414 0.914887 -0.108620
C75   C     C_2   0.755366 0.438440 0.073174 -0.094127
C76   C     C_2   0.251793 0.396108 0.915086 -0.108702
C77   C     C_2   0.188850 0.917194 0.049240 -0.162944
C78   C     C_2   0.811632 0.912494 0.950227 -0.161155
C79   C     C_2   0.727630 0.523001 0.029082 -0.151698
C80   C     C_2   0.311482 0.413781 0.950451 -0.163041
C81   C     C_2   0.183495 0.890993 0.973800 -0.149482
C82   C     C_2   0.816791 0.887218 0.026046 -0.151818
C83   C     C_2   0.715265 0.502343 0.954053 -0.163360
C84   C     C_2   0.316686 0.388743 0.026254 -0.149486
H29   H     H_    0.144066 0.962172 0.073802 0.153769
H30   H     H_    0.856794 0.955868 0.924852 0.153941
H31   H     H_    0.708013 0.608777 0.049472 0.157425
H32   H     H_    0.356616 0.457190 0.925041 0.154924
H33   H     H_    0.130602 0.875212 0.954065 0.154000
H34   H     H_    0.869327 0.868405 0.046041 0.149604
H35   H     H_    0.668866 0.544540 0.930997 0.155174
H36   H     H_    0.369286 0.370331 0.046207 0.149389
H37   H     H_    0.291270 0.846431 0.062261 0.111521
H38   H     H_    0.708287 0.845299 0.938786 0.095676
H39   H     H_    0.775837 0.352336 0.054510 0.099053
H40   H     H_    0.208224 0.346062 0.939040 0.104048
H41   H     H_    0.292380 0.911172 0.946636 0.095517
H42   H     H_    0.708483 0.915231 0.052879 0.087216
H43   H     H_    0.803721 0.389949 0.938380 0.110850
H44   H     H_    0.208271 0.415661 0.053103 0.089114
C85   C     C_2   0.011360 0.654712 0.926865 -0.100721
C86   C     C_2   0.010724 0.665747 0.083642 -0.110175
C87   C     C_2   0.511049 0.154601 0.926741 -0.093355
C88   C     C_2   0.510447 0.165541 0.083507 -0.110365
C89   C     C_2   0.027047 0.566792 0.046693 -0.161315
C90   C     C_2   0.041201 0.572225 0.970688 -0.151649
C91   C     C_2   0.526516 0.066456 0.046553 -0.165165
C92   C     C_2   0.540562 0.071715 0.970544 -0.150587
H45   H     H_    0.025184 0.476971 0.071144 0.156089
H46   H     H_    0.074313 0.500174 0.949742 0.153036
H47   H     H_    0.524639 0.976667 0.071048 0.155210
H48   H     H_    0.573478 0.999380 0.949618 0.151598
H49   H     H_    0.016388 0.755962 0.060290 0.095447
H50   H     H_    0.978521 0.728158 0.946251 0.086621
H51   H     H_    0.516075 0.255707 0.060102 0.104898
H52   H     H_    0.478384 0.228281 0.946118 0.087774
N1    N     N_R   0.323950 0.737310 0.415850 0.078163
O53   O     O_R   0.362254 0.660736 0.451845 -0.413746
O54   O     O_R   0.315062 0.717867 0.348154 -0.330309
N2    N     N_R   0.652216 0.781001 0.577901 0.084305
O55   O     O_R   0.653382 0.663301 0.583217 -0.395592
O56   O     O_R   0.593938 0.838187 0.591075 -0.329457
N3    N     N_R   0.823869 0.237338 0.415810 0.078143
O57   O     O_R   0.862307 0.160904 0.451752 -0.413723
O58   O     O_R   0.814640 0.217528 0.348221 -0.329634
N4    N     N_R   0.152233 0.280985 0.577913 0.084558
O59   O     O_R   0.153462 0.163300 0.583331 -0.394897
O60   O     O_R   0.093938 0.338126 0.591076 -0.329354

loop_
_geom_bond_atom_site_label_1
_geom_bond_atom_site_label_2
_geom_bond_distance
_ccdc_geom_bond_type
C18   O42   1.260159 A    
Cr11  O51   1.979784 S    
O4    C12   1.265143 A    
O47   Cr11  1.919932 S    
C76   H40   1.086725 S    
O39   C19   1.266321 A    
C47   C56   1.411686 A    
O20   Cr12  2.052254 S    
C44   C55   1.422005 A    
C58   C62   1.414395 A    
C35   C39   1.476845 S    
C36   C40   1.464158 S    
C45   C54   1.411684 A    
C60   C64   1.414409 A    
C42   C57   1.403378 A    
C71   C83   1.329636 D    
Cr6   O50   1.976671 S    
C82   H34   1.087699 S    
O29   Cr1   1.944321 S    
C68   H28   1.078037 S    
O1    C9    1.283554 A    
C5    C25   1.454678 S    
O7    C3    1.272601 A    
C32   H8    1.087476 S    
C33   N1    1.445245 S    
C78   H30   1.086753 S    
O24   C12   1.291841 A    
C83   H35   1.086776 S    
C51   H15   1.081771 S    
C87   C92   1.346905 D    
O25   C21   1.260443 A    
N3    O58   1.301662 A    
O26   Cr2   2.041765 S    
C31   C35   1.339711 D    
C86   C89   1.332694 D    
C64   C68   1.391635 A    
C30   C34   1.343317 D    
C85   C90   1.346822 D    
C47   H19   1.082252 S    
O8    Cr4   1.924790 S    
C69   C81   1.346818 D    
O30   C14   1.275066 A    
C45   H17   1.082259 S    
O32   Cr4   1.952255 S    
C12   C43   1.488303 S    
C1    O9    1.263554 A    
C26   C38   1.349274 D    
C5    O17   1.275535 A    
N1    O54   1.302023 A    
C45   C49   1.392574 A    
C62   C66   1.391632 A    
C3    O11   1.263566 A    
O41   Cr9   2.075632 S    
O11   Cr7   2.068671 S    
C16   C73   1.448502 S    
C4    O12   1.257478 A    
O21   C9    1.276022 A    
C27   H11   1.082472 S    
C90   H46   1.087487 S    
C67   C68   1.392482 A    
C89   H45   1.086682 S    
C64   H23   1.082467 S    
C7    O19   1.275563 A    
O8    C4    1.279695 A    
O3    Cr3   2.065919 S    
Cr4   O52   1.979128 S    
C46   C53   1.413026 A    
O47   C23   1.273114 A    
O2    Cr2   2.072135 S    
C57   C61   1.412998 A    
C48   C52   1.393832 A    
C46   C50   1.393841 A    
C80   H32   1.086780 S    
C10   C41   1.488294 S    
C26   H10   1.082814 S    
O42   Cr10  2.062482 S    
C36   N4    1.432171 S    
C91   C92   1.449608 S    
O18   Cr10  2.052254 S    
O28   C24   1.268666 A    
C81   H33   1.087625 S    
O17   Cr9   2.038600 S    
C43   C60   1.422762 A    
C79   H31   1.087509 S    
C11   C44   1.486154 S    
C44   C59   1.403373 A    
C91   H47   1.086716 S    
C88   C91   1.332809 D    
O34   Cr6   2.067004 S    
Cr7   O51   1.976669 S    
C35   N3    1.445155 S    
O6    Cr2   1.924790 S    
O35   Cr7   2.047526 S    
O31   Cr3   1.944321 S    
O24   Cr12  1.945113 S    
O9    Cr5   2.068671 S    
O30   Cr2   1.952255 S    
C37   H1    1.086703 S    
C73   H37   1.086556 S    
C14   C75   1.446968 S    
O22   C10   1.291835 A    
C80   C84   1.449907 S    
O48   Cr12  1.931015 S    
Cr12  O52   1.979295 S    
O32   C16   1.269002 A    
C46   H18   1.081521 S    
C69   H41   1.085259 S    
C2    O10   1.257400 A    
C72   H44   1.085552 S    
C15   C74   1.447790 S    
O16   Cr8   1.947485 S    
O15   C7    1.262659 A    
C75   C79   1.348952 D    
C24   C88   1.447535 S    
C34   C38   1.464152 S    
C34   N2    1.432189 S    
C30   H6    1.087477 S    
O13   C5    1.262687 A    
O40   C20   1.271262 A    
C48   C55   1.413019 A    
O43   Cr11  2.075632 S    
O48   C24   1.269827 A    
O12   Cr8   2.049035 S    
C67   H27   1.082391 S    
O22   Cr10  1.945113 S    
O37   Cr5   1.950993 S    
N3    O57   1.300669 A    
O5    C1    1.272612 A    
C63   H24   1.083538 S    
C15   O35   1.268402 A    
C92   H48   1.087519 S    
O46   Cr10  1.931015 S    
O39   Cr7   1.950993 S    
O3    C11   1.283541 A    
C71   H43   1.086733 S    
C33   C37   1.476883 S    
C23   C87   1.446565 S    
N1    O53   1.300737 A    
C25   H9    1.082498 S    
C13   O33   1.267965 A    
C22   C86   1.448036 S    
C75   H39   1.085210 S    
C73   C77   1.332751 D    
C21   C85   1.446697 S    
C43   C56   1.413581 A    
C6    C26   1.450747 S    
O23   Cr11  1.955724 S    
O29   C13   1.269359 A    
Cr2   O50   1.979128 S    
O15   Cr7   1.928730 S    
C41   C54   1.413563 A    
C28   H12   1.082804 S    
C1    C32   1.453599 S    
Cr1   O49   1.979241 S    
C61   H22   1.083542 S    
C3    C30   1.453593 S    
Cr3   O51   1.979241 S    
O26   C22   1.269029 A    
C70   H42   1.085534 S    
N2    O56   1.297347 A    
O21   Cr9   1.955724 S    
C59   C63   1.412999 A    
O27   Cr3   2.047915 S    
C77   H29   1.086745 S    
C49   C50   1.391319 A    
C8    C28   1.450754 S    
O4    Cr4   2.072135 S    
C7    C27   1.454629 S    
C4    C29   1.452211 S    
C9    C42   1.486166 S    
C55   C56   1.419310 A    
C18   C70   1.444646 S    
C29   C33   1.339810 D    
C47   C51   1.392577 A    
C40   H4    1.087171 S    
O14   Cr6   1.947485 S    
C53   C54   1.419320 A    
O38   C18   1.270992 A    
C76   C80   1.332631 D    
C49   H13   1.081773 S    
C84   H36   1.087715 S    
C86   H49   1.086852 S    
O25   Cr1   2.047915 S    
O37   C17   1.273089 A    
C85   H50   1.085607 S    
C66   H26   1.078037 S    
C25   C37   1.356065 D    
C87   H52   1.085597 S    
C74   H38   1.086876 S    
C48   H20   1.081526 S    
C8    O20   1.272760 A    
C27   C39   1.356070 D    
O31   C15   1.269344 A    
O6    C2    1.279715 A    
O7    Cr3   1.932772 S    
C17   O41   1.260126 A    
C51   C52   1.391319 A    
C70   C82   1.346143 D    
C78   C82   1.450618 S    
C14   O34   1.257828 A    
C19   O43   1.268857 A    
O40   Cr8   1.932140 S    
O44   Cr12  2.062482 S    
N4    O60   1.297330 A    
C20   O44   1.259942 A    
O1    Cr1   2.065919 S    
C88   H51   1.086689 S    
O14   C6    1.265712 A    
C41   C58   1.422736 A    
Cr8   O52   1.976671 S    
C42   C53   1.422036 A    
C31   H7    1.087389 S    
C65   C66   1.392490 A    
Cr10  O50   1.979295 S    
O13   Cr5   1.928730 S    
C77   C81   1.451327 S    
O2    C10   1.265148 A    
N4    O59   1.299130 A    
O46   C22   1.269729 A    
C62   H21   1.082469 S    
C79   C83   1.448652 S    
C2    C31   1.452144 S    
O45   C21   1.272898 A    
C63   C67   1.393090 A    
C32   C36   1.343305 D    
O19   Cr11  2.038600 S    
C20   C72   1.444399 S    
C74   C78   1.332633 D    
O33   Cr5   2.047526 S    
C72   C84   1.346134 D    
O23   C11   1.276030 A    
O10   Cr6   2.049035 S    
O5    Cr1   1.932772 S    
C89   C90   1.449952 S    
C13   C76   1.447023 S    
Cr9   O49   1.979784 S    
C57   C58   1.401225 A    
C19   C71   1.445367 S    
C28   C40   1.349289 D    
Cr5   O49   1.976669 S    
O28   Cr4   2.041765 S    
C16   O36   1.267976 A    
C17   C69   1.446682 S    
N2    O55   1.299139 A    
C50   H14   1.081564 S    
C52   H16   1.081559 S    
C6    O18   1.272741 A    
C38   H2    1.087157 S    
O27   C23   1.260228 A    
O45   Cr9   1.919932 S    
C39   H3    1.086690 S    
O36   Cr8   2.067004 S    
C65   H25   1.082391 S    
O16   C8    1.265700 A    
C61   C65   1.393095 A    
C59   C60   1.401226 A    
C29   H5    1.087401 S    
O38   Cr6   1.932140 S    
