data_mof_unit_57852.cif
_audit_creation_date              2012-10-26T18:28:57-0400
_audit_creation_method            fapswitch 2.2
_symmetry_space_group_name_H-M    P1
_symmetry_Int_Tables_number       1
_space_group_crystal_system       triclinic
_cell_length_a                    11.731042
_cell_length_b                    13.015861
_cell_length_c                    15.904384
_cell_angle_alpha                 94.570626
_cell_angle_beta                  74.86334
_cell_angle_gamma                 101.304959
_cell_volume                      2297.65686687

loop_
_atom_site_label
_atom_site_type_symbol
_atom_type_description
_atom_site_fract_x
_atom_site_fract_y
_atom_site_fract_z
_atom_type_partial_charge
C1    C     C_R   0.525800 0.700891 0.493440 0.564342
C2    C     C_R   0.345309 0.008989 0.491010 0.039669
C3    C     C_R   0.654215 0.882324 0.489830 0.017283
C4    C     C_R   0.347899 0.117572 0.505036 0.014271
C5    C     C_R   0.454860 0.859994 0.464017 0.036415
C6    C     C_R   0.548347 0.138884 0.528632 0.044690
C7    C     C_R   0.450669 0.966995 0.485065 -0.046174
C8    C     C_R   0.552929 0.032712 0.504829 -0.039571
C9    C     C_R   0.939492 0.579881 0.593955 -0.134957
C10   C     C_R   0.060705 0.420237 0.405846 -0.149368
C11   C     C_R   0.821817 0.574832 0.585556 0.190671
C12   C     C_R   0.474484 0.298976 0.505912 0.565533
C13   C     C_R   0.178159 0.424946 0.414591 0.194192
C14   C     C_R   0.862228 0.468349 0.456805 0.080306
C15   C     C_R   0.137899 0.531926 0.542982 0.085903
C16   C     C_R   0.427382 0.493202 0.667663 0.551369
C17   C     C_R   0.572623 0.506896 0.332349 0.550352
C18   C     C_R   0.980594 0.471941 0.465270 -0.019245
C19   C     C_R   0.019583 0.528321 0.534451 -0.015657
C20   C     C_R   0.383967 0.486131 0.762859 0.005044
C21   C     C_R   0.616061 0.514048 0.237172 0.005974
C22   C     C_R   0.225580 0.481030 0.895239 -0.087106
C23   C     C_R   0.359022 0.509455 0.085017 -0.090860
C24   C     C_R   0.774204 0.517828 0.104765 -0.087049
C25   C     C_R   0.262995 0.482857 0.804840 -0.111445
C26   C     C_R   0.736805 0.516100 0.195155 -0.111716
C27   C     C_R   0.465965 0.484080 0.812007 -0.098136
C28   C     C_R   0.534309 0.517283 0.188077 -0.094962
C29   C     C_R   0.432148 0.485917 0.903754 0.024299
C30   C     C_R   0.567899 0.514536 0.096308 0.024690
C31   C     C_R   0.308776 0.484233 0.945912 0.033461
C32   C     C_R   0.691122 0.515349 0.054126 0.033293
C33   C     C_R   0.518375 0.493368 0.954091 0.010591
C34   C     C_R   0.640832 0.490348 0.915054 -0.090835
C35   C     C_R   0.481621 0.506996 0.045982 0.010893
C36   C     C_2   0.144212 0.479449 0.086412 0.579804
C37   C     C_2   0.855585 0.519355 0.913635 0.580890
C38   C     C_2   0.255016 0.370679 0.342509 0.608842
C39   C     C_2   0.744851 0.628367 0.658303 0.610941
C40   C     C_2   0.618182 0.193665 0.590223 0.615480
C41   C     C_2   0.386136 0.802052 0.402972 0.616282
C42   C     C_2   0.233588 0.158617 0.522697 0.651298
C43   C     C_2   0.766729 0.840194 0.477538 0.639788
C44   C     C_2   0.777445 0.062547 0.485003 0.625357
C45   C     C_R   0.272437 0.491781 0.037381 0.068995
C46   C     C_2   0.228251 0.939530 0.493262 0.635322
C47   C     C_R   0.727403 0.507596 0.962670 0.069268
C48   C     C_R   0.455554 0.183768 0.513941 -0.057739
C49   C     C_R   0.545941 0.815747 0.482471 -0.059201
C50   C     C_R   0.658834 0.991507 0.497743 0.040454
Cu1   Cu    Cu3+1 0.386820 0.492450 0.493500 1.063621
Cu2   Cu    Cu3+1 0.613180 0.507550 0.506500 1.063215
H1    H     H_    0.968468 0.624046 0.647873 0.160161
H2    H     H_    0.022309 0.606359 0.893220 0.336665
H3    H     H_    0.366901 0.267195 0.302851 0.345253
H4    H     H_    0.629183 0.728493 0.699362 0.344591
H5    H     H_    0.802218 0.514582 0.231935 0.158693
H6    H     H_    0.197406 0.483536 0.768029 0.159428
H7    H     H_    0.763947 0.295167 0.608874 0.349078
H8    H     H_    0.240505 0.699268 0.385694 0.344367
H9    H     H_    0.087330 0.171079 0.482785 0.354504
H10   H     H_    0.903106 0.822332 0.527066 0.343541
H11   H     H_    0.898490 0.174386 0.412435 0.345260
H12   H     H_    0.031896 0.376029 0.351883 0.145639
H13   H     H_    0.100995 0.880325 0.429467 0.354478
H14   H     H_    0.167360 0.576507 0.596337 0.144900
H15   H     H_    0.832777 0.423834 0.403419 0.145209
H16   H     H_    0.444023 0.519367 0.224050 0.160785
H17   H     H_    0.556673 0.483883 0.776132 0.159812
H18   H     H_    0.131733 0.481612 0.924801 0.176047
H19   H     H_    0.867868 0.516409 0.075177 0.175677
H20   H     H_    0.325758 0.523607 0.153581 0.175090
H21   H     H_    0.673894 0.475653 0.846530 0.174255
H22   H     H_    0.977829 0.391803 0.106770 0.336688
N1    N     N_R   0.216750 0.481110 0.483710 -0.246688
N2    N     N_R   0.783250 0.518890 0.516290 -0.246561
O1    O     O_R   0.419950 0.645670 0.495380 -0.479141
O2    O     O_R   0.060672 0.395344 0.065850 -0.674818
O3    O     O_2   0.886572 0.458985 0.852662 -0.500857
O4    O     O_R   0.939543 0.603092 0.934196 -0.674257
O5    O     O_2   0.252320 0.381936 0.267506 -0.554415
O6    O     O_R   0.321135 0.299817 0.358284 -0.632555
O7    O     O_2   0.750563 0.618871 0.732902 -0.551975
O8    O     O_R   0.674583 0.696250 0.643580 -0.628101
O9    O     O_2   0.580436 0.176559 0.667973 -0.476262
O10   O     O_R   0.726031 0.263331 0.560100 -0.656733
O11   O     O_2   0.425465 0.815183 0.324723 -0.473030
O12   O     O_R   0.580050 0.354330 0.504620 -0.477909
O13   O     O_R   0.277534 0.733732 0.434182 -0.655330
O14   O     O_2   0.201585 0.209010 0.590170 -0.471958
O15   O     O_R   0.161963 0.138325 0.463365 -0.606928
O16   O     O_2   0.803863 0.790810 0.410550 -0.487363
O17   O     O_R   0.830001 0.857218 0.542130 -0.598459
O18   O     O_2   0.838501 0.064779 0.536977 -0.430976
O19   O     O_R   0.817383 0.128643 0.414022 -0.657969
O20   O     O_2   0.174906 0.889369 0.558222 -0.474034
O21   O     O_R   0.180154 0.931201 0.420796 -0.601913
O22   O     O_R   0.611110 0.658410 0.506370 -0.432484
O23   O     O_R   0.388890 0.341590 0.493630 -0.433980
O24   O     O_R   0.350820 0.490050 0.621260 -0.510423
O25   O     O_R   0.649180 0.509950 0.378740 -0.510644
O26   O     O_R   0.541970 0.502800 0.632250 -0.499653
O27   O     O_R   0.458030 0.497200 0.367750 -0.500808
O28   O     O_2   0.112848 0.539702 0.147385 -0.502675

loop_
_geom_bond_atom_site_label_1
_geom_bond_atom_site_label_2
_ccdc_geom_bond_type
C41   O13   S    
C21   C26   A    
C23   C45   A    
C29   C33   A    
C27   C29   A    
C1    O1    A    
C14   C18   A    
C15   N1    A    
C2    C7    A    
C12   C48   S    
Cu1   O1    S    
C3    C49   A    
C7    C8    A    
H8    O13   S    
C2    C46   S    
C15   C19   A    
C37   O3    D    
C3    C43   S    
C6    C48   A    
C30   C35   A    
C28   H16   S    
C24   C26   A    
C39   O8    S    
C18   C19   A    
C11   N2    A    
C20   C25   A    
Cu1   O27   S    
H11   O19   S    
C42   O15   S    
C40   O10   S    
C17   O25   A    
C12   O23   A    
C33   C35   A    
C9    C19   A    
C13   N1    A    
C22   C25   A    
C14   H15   S    
C37   C47   S    
C27   H17   S    
C38   O6    S    
C5    C49   A    
C3    C50   A    
H4    O8    S    
H2    O4    S    
Cu1   O23   S    
C41   O11   D    
C37   O4    S    
Cu2   O25   S    
C22   C31   A    
C12   O12   A    
Cu1   Cu2   S    
Cu2   O12   S    
C5    C7    A    
C16   O24   A    
C6    C8    A    
C15   H14   S    
C17   C21   S    
C42   O14   D    
C14   N2    A    
C40   O9    D    
C2    C4    A    
C24   C32   A    
C16   C20   S    
Cu2   O26   S    
C33   C34   A    
C36   C45   S    
H3    O6    S    
C11   C39   S    
C9    C11   A    
C13   C38   S    
C16   O26   A    
C46   O21   S    
C23   C35   A    
C38   O5    D    
H22   O2    S    
C32   C47   A    
C6    C40   S    
C9    H1    S    
C25   H6    S    
C8    C50   A    
C4    C48   A    
C44   C50   S    
Cu1   O24   S    
C5    C41   S    
C23   H20   S    
C21   C28   A    
C10   H12   S    
Cu1   N1    S    
Cu2   N2    S    
C10   C13   A    
C1    O22   A    
C20   C27   A    
C43   O16   D    
C36   O28   D    
C28   C30   A    
C17   O27   A    
H7    O10   S    
H13   O21   S    
C29   C31   A    
C44   O19   S    
C36   O2    S    
C30   C32   A    
C4    C42   S    
C10   C18   A    
Cu2   O22   S    
C43   O17   S    
C26   H5    S    
C44   O18   D    
C34   H21   S    
C39   O7    D    
C46   O20   D    
C31   C45   A    
H10   O17   S    
C34   C47   A    
C1    C49   S    
C22   H18   S    
H9    O15   S    
C24   H19   S    
