data_mof_unit_28199.cif
_audit_creation_date              2012-12-10T17:06:14-0500
_audit_creation_method            fapswitch 2.2
_symmetry_space_group_name_H-M    P1
_symmetry_Int_Tables_number       1
_space_group_crystal_system       triclinic
_cell_length_a                    10.647299
_cell_length_b                    10.936621
_cell_length_c                    9.804873
_cell_angle_alpha                 109.794395
_cell_angle_beta                  99.135326
_cell_angle_gamma                 90.761501
_cell_volume                      1057.87981269

loop_
_atom_site_label
_atom_site_type_symbol
_atom_type_description
_atom_site_fract_x
_atom_site_fract_y
_atom_site_fract_z
_atom_type_partial_charge
C1    C     C_R   0.498547 0.254425 0.443005 0.869696
C2    C     C_R   0.514941 0.745846 0.557368 0.887277
C3    C     C_R   0.259445 0.500254 0.499894 0.873368
C4    C     C_R   0.740551 0.499899 0.500040 0.898662
C5    C     C_3   0.047433 0.400556 0.541228 -0.422334
C6    C     C_3   0.952352 0.599794 0.458169 -0.410087
C7    C     C_3   0.943447 0.388056 0.406749 0.424087
C8    C     C_3   0.056547 0.612454 0.592572 0.423148
C9    C     C_3   0.877045 0.500816 0.501252 -0.228026
C10   C     C_3   0.122869 0.499549 0.498242 -0.229369
C11   C     C_3   0.980820 0.515590 0.636167 0.377655
C12   C     C_3   0.019155 0.485115 0.363345 0.360181
C13   C     C_2   0.510897 0.116161 0.416912 -0.392184
C14   C     C_2   0.531180 0.885080 0.585559 -0.386387
C15   C     C_2   0.574595 0.072466 0.519494 0.343071
C16   C     C_2   0.572298 0.932824 0.489621 0.319778
C17   C     C_2   0.514509 0.505833 0.079738 0.017972
C18   C     C_2   0.490016 0.488197 0.918286 0.023557
Cu1   Cu    Cu3+1 0.522260 0.521810 0.644920 1.038923
Cu2   Cu    Cu3+1 0.477740 0.478190 0.355080 1.032069
H1    H     H_    0.088090 0.319818 0.574379 0.175746
H2    H     H_    0.909683 0.679133 0.423916 0.208024
H3    H     H_    0.507458 0.950969 0.687702 0.158660
H4    H     H_    0.465392 0.047400 0.310852 0.160851
H5    H     H_    0.414988 0.417114 0.845688 0.156863
H6    H     H_    0.594005 0.571365 0.150464 0.211041
H7    H     H_    0.626407 0.621475 0.934028 0.230259
H8    H     H_    0.369146 0.383750 0.067527 0.215639
N1    N     N_2   0.444270 0.445410 0.137360 -0.278407
N2    N     N_2   0.555730 0.554590 0.862640 -0.259910
O1    O     O_R   0.511880 0.332340 0.577400 -0.530705
O2    O     O_R   0.488120 0.667660 0.422600 -0.524686
O3    O     O_R   0.474280 0.295500 0.332650 -0.583091
O4    O     O_R   0.525720 0.704500 0.667350 -0.583672
O5    O     O_R   0.335640 0.518390 0.622350 -0.566496
O6    O     O_R   0.664360 0.481610 0.377650 -0.557634
O7    O     O_R   0.298050 0.481550 0.377590 -0.553841
O8    O     O_R   0.701950 0.518450 0.622410 -0.540001
O9    O     O_3   0.874771 0.273189 0.306457 -0.552177
C19   C     C_3   0.960284 0.177296 0.255240 0.107576
H9    H     H_    0.992811 0.132942 0.340357 0.131496
H10   H     H_    0.045843 0.218165 0.228542 0.133401
C20   C     C_3   0.893809 0.071465 0.114090 -0.371437
H11   H     H_    0.854382 0.116762 0.032098 0.260731
H12   H     H_    0.964915 0.003345 0.067009 0.165139
C21   C     C_3   0.786702 0.994202 0.142456 -0.627861
H13   H     H_    0.825948 0.945660 0.221154 0.267134
H14   H     H_    0.741285 0.918315 0.037583 0.231072
H15   H     H_    0.712915 0.059290 0.187974 0.282959
O10   O     O_3   0.126663 0.726842 0.692436 -0.577054
C22   C     C_3   0.045215 0.828374 0.738314 0.114256
H16   H     H_    0.075051 0.878421 0.858723 0.169564
H17   H     H_    0.942704 0.794188 0.721272 0.139200
C23   C     C_3   0.060792 0.927007 0.661413 -0.434266
H18   H     H_    0.160554 0.970937 0.693737 0.232461
H19   H     H_    0.041853 0.877093 0.540204 0.236416
C24   C     C_3   0.969667 0.034829 0.702064 -0.772536
H20   H     H_    0.869463 0.992461 0.668967 0.283703
H21   H     H_    0.982388 0.104001 0.643670 0.270715
H22   H     H_    0.989276 0.089076 0.822479 0.260728
Cl1   Cl    Cl    0.958578 0.538602 0.819440 -0.497599
Cl2   Cl    Cl    0.041087 0.465174 0.180594 -0.517552
Cl3   Cl    Cl    0.627237 0.835871 0.329052 -0.700593
Cl4   Cl    Cl    0.662444 0.174323 0.691048 -0.595173

loop_
_geom_bond_atom_site_label_1
_geom_bond_atom_site_label_2
_ccdc_geom_bond_type
C14   H3    S    
C22   H17   S    
C20   H11   S    
C4    O6    A    
C18   N2    D    
C16   Cl3   S    
C12   Cl2   S    
C23   H18   S    
Cu1   Cu2   S    
C13   C15   D    
C3    O5    A    
C15   Cl4   S    
C22   C23   S    
Cu1   O1    S    
C2    O4    A    
C6    C9    S    
C19   H10   S    
C17   C18   S    
C1    O3    A    
C5    C10   S    
C3    C10   S    
Cu1   O5    S    
C17   N1    D    
H7    N2    S    
Cu2   O7    S    
C20   H12   S    
C21   H15   S    
C24   H20   S    
C18   H5    S    
C10   C12   S    
C8    C11   S    
Cu2   O3    S    
C8    C10   S    
H8    N1    S    
Cu1   O8    S    
C4    O8    A    
C5    C11   S    
C23   H19   S    
Cu2   N1    S    
C9    C11   S    
C6    C12   S    
C7    C12   S    
C2    C14   S    
C20   C21   S    
C14   C16   D    
C24   H21   S    
C1    C13   S    
C17   H6    S    
C22   H16   S    
C6    H2    S    
C21   H14   S    
C8    O10   S    
C1    O1    A    
C5    H1    S    
C3    O7    A    
C2    O2    A    
Cu2   O2    S    
O9    C19   S    
C7    C9    S    
C7    O9    S    
C5    C7    S    
C19   H9    S    
C24   H22   S    
C6    C8    S    
O10   C22   S    
C4    C9    S    
C21   H13   S    
Cu1   N2    S    
C23   C24   S    
C19   C20   S    
C15   C16   S    
C13   H4    S    
C11   Cl1   S    
Cu1   O4    S    
Cu2   O6    S    
