data_mof_unit_33886.cif
_audit_creation_date              2012-12-10T20:38:25-0500
_audit_creation_method            fapswitch 2.2
_symmetry_space_group_name_H-M    P1
_symmetry_Int_Tables_number       1
_space_group_crystal_system       triclinic
_cell_length_a                    9.877398
_cell_length_b                    10.660155
_cell_length_c                    16.602619
_cell_angle_alpha                 90.227302
_cell_angle_beta                  85.037339
_cell_angle_gamma                 89.800338
_cell_volume                      1741.58608381

loop_
_atom_site_label
_atom_site_type_symbol
_atom_type_description
_atom_site_fract_x
_atom_site_fract_y
_atom_site_fract_z
_atom_type_partial_charge
C1    C     C_R   0.499657 0.739624 0.499597 0.883836
C2    C     C_R   0.530493 0.525944 0.259771 -0.032558
C3    C     C_R   0.389963 0.937190 0.531941 0.113427
C4    C     C_R   0.480672 0.504078 0.653528 0.871761
C5    C     C_R   0.497750 0.871028 0.492968 -0.100617
C6    C     C_R   0.595804 0.931874 0.441385 -0.254401
C7    C     C_R   0.595851 0.062104 0.438504 -0.012072
C8    C     C_R   0.499260 0.128306 0.490049 -0.147315
C9    C     C_R   0.392397 0.064857 0.531842 0.077462
C10   C     C_3   0.334226 0.074015 0.618131 -0.202000
C11   C     C_3   0.331587 0.931256 0.618032 -0.530605
C12   C     C_R   0.356423 0.504992 0.791832 0.000890
C13   C     C_R   0.922528 0.589445 0.542090 0.225274
C14   C     C_R   0.934791 0.420087 0.452050 -0.168213
C15   C     C_R   0.078635 0.419735 0.451853 0.003960
C16   C     C_R   0.500524 0.260399 0.497168 0.898883
C17   C     C_R   0.064922 0.589301 0.542188 0.198737
C18   C     C_3   0.057475 0.611606 0.631080 -0.492266
C19   C     C_3   0.903901 0.612603 0.630934 -0.513044
C20   C     C_R   0.519074 0.502189 0.346341 0.862391
C21   C     C_R   0.466595 0.543411 0.737945 -0.073264
C22   C     C_R   0.555811 0.635966 0.761692 -0.236640
C23   C     C_R   0.418955 0.552670 0.137484 -0.144930
C24   C     C_R   0.539035 0.687169 0.838704 -0.151185
C25   C     C_R   0.432456 0.646397 0.893006 0.178379
C26   C     C_R   0.339574 0.557813 0.869015 -0.199968
C27   C     C_1   0.693590 0.123968 0.382518 0.182305
C28   C     C_1   0.429740 0.126455 0.672753 0.225456
C29   C     C_1   0.155982 0.331169 0.400929 0.235281
C30   C     C_1   0.263820 0.407858 0.771058 0.154597
C31   C     C_R   0.416131 0.511348 0.216539 -0.195356
C32   C     C_R   0.649887 0.577947 0.221990 -0.192026
C33   C     C_R   0.652468 0.620040 0.142678 -0.172654
C34   C     C_R   0.535894 0.611008 0.100822 0.199944
C35   C     C_2   0.431321 0.675181 0.978844 -0.229746
C36   C     C_2   0.543137 0.649501 0.016030 -0.222774
H1    H     H_    0.637418 0.670520 0.720092 0.154963
H2    H     H_    0.739376 0.590362 0.254516 0.157265
H3    H     H_    0.640668 0.638153 0.980977 0.156194
H4    H     H_    0.258870 0.524616 0.912094 0.132117
H5    H     H_    0.329968 0.536716 0.105251 0.127069
H6    H     H_    0.333274 0.686094 0.013110 0.150001
H7    H     H_    0.611215 0.755887 0.856773 0.141886
H8    H     H_    0.672404 0.878424 0.404979 0.162405
H9    H     H_    0.401607 0.885278 0.658098 0.200711
H10   H     H_    0.226732 0.893208 0.623079 0.195058
H11   H     H_    0.744705 0.661162 0.114321 0.130895
H12   H     H_    0.231840 0.118371 0.624710 0.173073
H13   H     H_    0.885211 0.354535 0.414633 0.172271
H14   H     H_    0.096289 0.530899 0.664363 0.231075
H15   H     H_    0.323626 0.469848 0.244239 0.161560
H16   H     H_    0.099792 0.704064 0.646533 0.195470
H17   H     H_    0.854313 0.532964 0.664819 0.228732
H18   H     H_    0.858278 0.706299 0.645434 0.194955
N1    N     N_R   0.857140 0.500860 0.500530 -0.112059
N2    N     N_R   0.142780 0.500820 0.500530 -0.129109
N3    N     N_1   0.771487 0.172744 0.337006 -0.222657
N4    N     N_1   0.504819 0.167730 0.715545 -0.211378
N5    N     N_1   0.217599 0.259637 0.359759 -0.217366
N6    N     N_1   0.189540 0.329966 0.754610 -0.217712
O1    O     O_R   0.385310 0.683210 0.499990 -0.610996
O2    O     O_R   0.614650 0.683240 0.500000 -0.623092
O3    O     O_R   0.371780 0.500000 0.615800 -0.613024
O4    O     O_R   0.601120 0.500040 0.615800 -0.611569
O5    O     O_R   0.385350 0.316760 0.500000 -0.611980
O6    O     O_R   0.614690 0.316790 0.500010 -0.606738
O7    O     O_R   0.398880 0.499960 0.384200 -0.616382
O8    O     O_R   0.628220 0.500000 0.384200 -0.619583
Zn1   Zn    Zn3+2 0.346870 0.499980 0.499990 0.962615
Zn2   Zn    Zn3+2 0.653130 0.500020 0.500010 0.954384

loop_
_geom_bond_atom_site_label_1
_geom_bond_atom_site_label_2
_ccdc_geom_bond_type
C17   C18   S    
C6    C7    A    
C3    C9    A    
O4    Zn2   S    
C9    C10   S    
C4    O4    A    
C20   O7    A    
C34   C36   S    
C35   C36   D    
C23   H5    S    
C3    C11   S    
C13   C17   A    
C23   C34   A    
C12   C30   S    
C1    O2    A    
C19   H17   S    
C14   N1    A    
C18   H16   S    
C7    C8    A    
C8    C16   S    
C6    H8    S    
C21   C22   A    
C15   N2    A    
O7    Zn1   S    
C4    C21   S    
C22   H1    S    
C17   N2    A    
C26   H4    S    
O6    Zn2   S    
C25   C35   S    
C1    C5    S    
C18   H14   S    
C19   H18   S    
C4    O3    A    
C35   H6    S    
C12   C26   A    
C33   C34   A    
C15   C29   S    
C28   N4    T    
C32   H2    S    
C10   H12   S    
C5    C6    A    
C33   H11   S    
C22   C24   A    
C11   H9    S    
N1    Zn2   S    
C16   O6    A    
C10   C11   S    
C13   C19   S    
O1    Zn1   S    
C23   C31   A    
C14   H13   S    
O3    Zn1   S    
O5    Zn1   S    
C7    C27   S    
C24   C25   A    
O2    Zn2   S    
C2    C32   A    
C18   C19   S    
C27   N3    T    
C10   C28   S    
N2    Zn1   S    
C24   H7    S    
C14   C15   A    
C2    C31   A    
C11   H10   S    
C30   N6    T    
C16   O5    A    
C3    C5    A    
C25   C26   A    
O8    Zn2   S    
C2    C20   S    
C12   C21   A    
C20   O8    A    
C36   H3    S    
C29   N5    T    
C32   C33   A    
C31   H15   S    
C8    C9    A    
C13   N1    A    
C1    O1    A    
