data_mof_unit_22400.cif
_audit_creation_date              2012-12-11T14:27:03-0500
_audit_creation_method            fapswitch 2.2
_symmetry_space_group_name_H-M    P1
_symmetry_Int_Tables_number       1
_space_group_crystal_system       triclinic
_cell_length_a                    15.102832
_cell_length_b                    14.864975
_cell_length_c                    14.923259
_cell_angle_alpha                 109.838814
_cell_angle_beta                  109.794051
_cell_angle_gamma                 108.685887
_cell_volume                      2581.84285588

loop_
_atom_site_label
_atom_site_type_symbol
_atom_type_description
_atom_site_fract_x
_atom_site_fract_y
_atom_site_fract_z
_atom_type_partial_charge
C1    C     C_R   0.929803 0.746476 0.023661 0.616322
C2    C     C_R   0.214329 0.791652 0.308513 -0.150301
C3    C     C_R   0.975312 0.408397 0.221645 -0.117900
C4    C     C_R   0.778490 0.261350 0.688936 -0.104783
C5    C     C_R   0.314417 0.591118 0.061769 -0.239744
C6    C     C_R   0.052216 0.500506 0.324134 0.137717
C7    C     C_R   0.328467 0.499671 0.044838 -0.120029
C8    C     C_R   0.314070 0.843995 0.319882 -0.080301
C9    C     C_R   0.941116 0.135235 0.938510 0.119395
C10   C     C_3   0.532580 0.475306 0.960728 0.580518
C11   C     C_3   0.438958 0.492848 0.960229 -0.486700
C12   C     C_R   0.677477 0.234830 0.677847 -0.059332
C13   C     C_3   0.559482 0.424267 0.112003 -0.501603
C14   C     C_3   0.637765 0.620741 0.164005 -0.530283
C15   C     C_3   0.611572 0.506024 0.079349 0.198435
C16   C     C_R   0.089111 0.592078 0.790356 -0.274612
C17   C     C_3   0.433492 0.502781 0.064678 0.227482
C18   C     C_3   0.448052 0.412545 0.091967 0.607572
C19   C     C_3   0.533583 0.615563 0.162972 -0.520954
C20   C     C_2   0.395847 0.032365 0.457602 -0.236559
C21   C     C_2   0.407279 0.943280 0.419755 0.576799
C22   C     C_2   0.482156 0.128268 0.563910 -0.243392
C23   C     C_R   0.056185 0.502490 0.694554 0.004559
C24   C     C_2   0.577112 0.187102 0.574337 0.647470
C25   C     C_2   0.087439 0.426165 0.542380 -0.084936
C26   C     C_2   0.078693 0.506426 0.608549 -0.158868
C27   C     C_2   0.078828 0.416661 0.438451 -0.133547
C28   C     C_R   0.706021 0.411454 0.011507 -0.065903
C29   C     C_2   0.108204 0.505662 0.427938 -0.204518
C30   C     C_2   0.912533 0.951040 0.828132 0.758629
C31   C     C_2   0.913414 0.023041 0.912909 -0.327116
C32   C     C_2   0.941702 0.871782 0.848189 -0.499124
C33   C     C_2   0.885036 0.804394 0.873131 0.588865
C34   C     C_R   0.707034 0.503944 0.076453 0.005653
C35   C     C_R   0.002297 0.411032 0.698429 0.584825
C36   C     C_R   0.795349 0.592907 0.101332 -0.162332
C37   C     C_R   0.688550 0.255755 0.779732 -0.156604
C38   C     C_R   0.018754 0.741307 0.929408 -0.245669
C39   C     C_R   0.940996 0.766221 0.940880 -0.186389
C40   C     C_3   0.801107 0.793295 0.040852 -0.238017
C41   C     C_3   0.184566 0.262323 0.810784 -0.244820
C42   C     C_3   0.475158 0.349723 0.780766 -0.319484
C43   C     C_3   0.343184 0.233174 0.046500 -0.137774
C44   C     C_3   0.499298 0.844733 0.443864 -0.248394
C45   C     C_R   0.064296 0.591531 0.313446 -0.149883
C46   C     C_3   0.605550 0.126416 0.427100 -0.188274
C47   C     C_3   0.883215 0.874862 0.650207 -0.271155
C48   C     C_3   0.713439 0.662810 0.755699 -0.283420
C49   C     C_3   0.960002 0.228710 0.637592 -0.361388
C50   C     C_R   0.225421 0.408527 0.967443 0.613466
C51   C     C_R   0.306808 0.791723 0.219316 -0.117986
C52   C     C_R   0.912056 0.199089 0.999789 -0.159721
C53   C     C_R   0.998357 0.196393 0.905738 -0.017108
H1    H     H_    0.188803 0.821802 0.366353 0.096514
H2    H     H_    0.146685 0.676013 0.820972 0.134302
H3    H     H_    0.084132 0.357962 0.555389 0.157293
H4    H     H_    0.162276 0.587021 0.500415 0.130188
H5    H     H_    0.909044 0.005065 0.976640 0.121445
H6    H     H_    0.627115 0.248460 0.802562 0.115273
H7    H     H_    0.045134 0.745413 0.871613 0.144004
H8    H     H_    0.116197 0.675742 0.378878 0.097215
H9    H     H_    0.739451 0.711353 0.966606 0.154379
H10   H     H_    0.814045 0.861971 0.023766 0.195062
H11   H     H_    0.768682 0.806840 0.097663 0.139343
H12   H     H_    0.946179 0.323602 0.200410 0.093495
H13   H     H_    0.178360 0.318316 0.777685 0.080019
H14   H     H_    0.111428 0.180399 0.753550 0.148075
H15   H     H_    0.252290 0.248694 0.809808 0.226417
H16   H     H_    0.365479 0.822342 0.196165 0.082289
H17   H     H_    0.854105 0.170665 0.024590 0.105896
H18   H     H_    0.017474 0.164883 0.843210 0.182208
H19   H     H_    0.553869 0.387134 0.784451 0.147563
H20   H     H_    0.424831 0.384870 0.750362 0.135003
H21   H     H_    0.431237 0.260634 0.720529 0.177890
H22   H     H_    0.795553 0.260594 0.625266 0.180956
H23   H     H_    0.375766 0.675881 0.107778 0.130541
H24   H     H_    0.363761 0.427481 0.883215 0.177890
H25   H     H_    0.300120 0.253909 0.090833 0.135095
H26   H     H_    0.416248 0.235125 0.101182 0.093316
H27   H     H_    0.287829 0.148006 0.976017 0.162980
H28   H     H_    0.529982 0.686596 0.156685 0.188239
H29   H     H_    0.538616 0.626249 0.242358 0.173335
H30   H     H_    0.612597 0.453964 0.200393 0.129257
H31   H     H_    0.320511 0.031093 0.415849 0.115936
H32   H     H_    0.493582 0.813300 0.361980 0.134044
H33   H     H_    0.431554 0.784678 0.442815 0.148255
H34   H     H_    0.577434 0.532935 0.939230 -0.020411
H35   H     H_    0.575322 0.854742 0.502710 0.175685
H36   H     H_    0.478288 0.124578 0.633895 0.104196
H37   H     H_    0.646408 0.092394 0.472215 0.151277
H38   H     H_    0.660225 0.169527 0.403384 0.160449
H39   H     H_    0.530400 0.057550 0.350032 0.144990
H40   H     H_    0.080399 0.574477 0.595857 0.130317
H41   H     H_    0.030926 0.334671 0.366982 0.130403
H42   H     H_    0.806044 0.804835 0.624756 0.148101
H43   H     H_    0.948746 0.853220 0.665279 0.148288
H44   H     H_    0.870128 0.890899 0.580711 0.163614
H45   H     H_    0.450128 0.569595 0.957603 0.124447
H46   H     H_    0.023324 0.889073 0.866997 0.122380
H47   H     H_    0.651782 0.326946 0.982527 0.117345
H48   H     H_    0.728571 0.609679 0.789524 0.131165
H49   H     H_    0.726998 0.646681 0.684308 0.149011
H50   H     H_    0.627098 0.639784 0.724959 0.171651
H51   H     H_    0.987921 0.254017 0.725385 0.152162
H52   H     H_    0.016502 0.209890 0.613556 0.161356
H53   H     H_    0.881883 0.150907 0.588117 0.186698
H54   H     H_    0.828062 0.677304 0.161705 0.162341
H55   H     H_    0.550669 0.342817 0.064769 0.198115
H56   H     H_    0.699646 0.647784 0.248350 0.193509
H57   H     H_    0.670637 0.682939 0.141873 0.171895
H58   H     H_    0.445555 0.429526 0.169836 -0.040367
N1    N     N_R   0.993980 0.704500 0.053430 -0.086410
N2    N     N_R   0.053690 0.556380 0.849240 -0.056600
N3    N     N_R   0.790390 0.443640 0.997160 -0.056238
N4    N     N_R   0.998260 0.443670 0.792970 -0.112072
N5    N     N_R   0.845830 0.556350 0.053430 -0.050015
N6    N     N_R   0.792820 0.295510 0.849240 -0.029634
N7    N     N_R   0.051260 0.704510 0.997160 -0.052601
N8    N     N_R   0.001740 0.556330 0.207030 -0.040041
N9    N     N_R   0.154170 0.443650 0.946570 -0.119559
N10   N     N_R   0.207180 0.704490 0.150760 -0.024923
N11   N     N_R   0.948740 0.295490 0.002840 -0.047665
N12   N     N_R   0.006020 0.295500 0.946570 -0.067237
N13   N     N_R   0.149890 0.704480 0.207030 -0.030413
N14   N     N_R   0.946310 0.443620 0.150760 -0.045852
N15   N     N_R   0.209610 0.556360 0.002840 -0.063079
N16   N     N_R   0.850110 0.295520 0.792970 -0.047680
Ni1   Ni    Ni4+2 0.997880 0.629240 0.129060 0.230919
Ni2   Ni    Ni4+2 0.002120 0.370760 0.870940 0.203882
Ni3   Ni    Ni4+2 0.129260 0.629260 0.000000 0.192684
Ni4   Ni    Ni4+2 0.870740 0.370740 0.000000 0.203348
O1    O     O_3   0.900085 0.798135 0.095451 -0.652544
O2    O     O_3   0.198144 0.299526 0.917717 -0.609618
O3    O     O_3   0.491782 0.363452 0.884545 -0.597242
O4    O     O_3   0.369328 0.304406 0.005197 -0.567539
O5    O     O_3   0.504576 0.948156 0.480040 -0.626662
O6    O     O_3   0.580798 0.200922 0.487764 -0.626708
O7    O     O_3   0.913530 0.970926 0.743613 -0.645552
O8    O     O_3   0.777365 0.775016 0.837160 -0.639397
O9    O     O_3   0.945059 0.305531 0.608570 -0.646674

loop_
_geom_bond_atom_site_label_1
_geom_bond_atom_site_label_2
_ccdc_geom_bond_type
C44   O5    S    
C14   H56   S    
C30   C32   S    
C30   O7    S    
C6    C45   A    
C27   C29   D    
N3    Ni4   S    
C25   H3    S    
N10   Ni3   S    
C1    O1    S    
C49   H53   S    
C16   N2    A    
C49   H51   S    
C41   O2    S    
C41   H14   S    
C43   H25   S    
C33   C39   S    
C40   H10   S    
C13   C18   S    
C11   H45   S    
C50   N9    A    
C31   H5    S    
C10   C15   S    
C1    N1    A    
C30   C31   D    
N9    N15   A    
C46   H39   S    
N15   Ni3   S    
C43   H26   S    
C40   H9    S    
C23   C26   S    
C12   C37   A    
N10   N13   A    
C11   H24   S    
C52   N11   A    
C7    C17   S    
C5    N15   A    
C47   H43   S    
C35   N4    A    
C4    C12   A    
C19   H29   S    
C15   C34   S    
C48   O8    S    
N13   Ni1   S    
N8    Ni1   S    
C3    C6    A    
C26   H40   S    
C40   O1    S    
C28   C34   A    
N12   Ni2   S    
C36   H54   S    
C3    H12   S    
C9    C52   A    
C13   H55   S    
C44   H33   S    
C8    C21   S    
C41   H15   S    
C10   H34   S    
C42   H21   S    
N2    Ni3   S    
N9    Ni2   S    
C18   H58   S    
C2    H1    S    
C5    C7    A    
C9    C31   S    
C49   H52   S    
C46   H38   S    
C25   C26   D    
C48   H50   S    
C38   N7    A    
N16   Ni2   S    
N7    Ni3   S    
C35   O9    S    
N14   Ni4   S    
C48   H49   S    
C42   H19   S    
C17   C18   S    
C18   O4    S    
C43   O4    S    
N6    N16   A    
C8    C51   A    
C37   H6    S    
C28   N3    A    
C46   O6    S    
C38   H7    S    
N8    N14   A    
C20   C22   S    
C16   C23   A    
C23   C35   A    
C13   C15   S    
C53   N12   A    
C51   N10   A    
C22   C24   D    
C9    C53   A    
C45   N8    A    
C44   H32   S    
C53   H18   S    
N11   Ni4   S    
N4    Ni2   S    
C14   H57   S    
C12   C24   S    
C11   C17   S    
C42   H20   S    
C21   O5    S    
C4    N16   A    
C14   C19   S    
C2    C8    A    
C10   O3    S    
C7    C50   A    
C29   H4    S    
C50   O2    S    
C47   H44   S    
N3    N5    A    
C3    N14   A    
C41   H13   S    
C46   H37   S    
C2    N13   A    
C24   O6    S    
C25   C27   S    
C13   H30   S    
C40   H11   S    
C32   H46   S    
C42   O3    S    
C32   C33   D    
C5    H23   S    
C20   H31   S    
C43   H27   S    
C16   H2    S    
C44   H35   S    
N1    N7    A    
C28   H47   S    
C38   C39   A    
C33   O8    S    
C48   H48   S    
C47   O7    S    
C45   H8    S    
C17   C19   S    
C22   H36   S    
C34   C36   A    
N6    Ni4   S    
N1    Ni1   S    
C52   H17   S    
C10   C11   S    
C1    C39   A    
C4    H22   S    
C6    C29   S    
C37   N6    A    
C20   C21   D    
N5    Ni1   S    
C49   O9    S    
C47   H42   S    
C14   C15   S    
C27   H41   S    
C51   H16   S    
N11   N12   A    
C19   H28   S    
N2    N4    A    
C36   N5    A    
