data_mof_unit_43438.cif
_audit_creation_date              2012-12-10T20:51:46-0500
_audit_creation_method            fapswitch 2.2
_symmetry_space_group_name_H-M    P1
_symmetry_Int_Tables_number       1
_space_group_crystal_system       triclinic
_cell_length_a                    8.072345
_cell_length_b                    8.921276
_cell_length_c                    16.683107
_cell_angle_alpha                 89.12283
_cell_angle_beta                  94.286312
_cell_angle_gamma                 89.926989
_cell_volume                      1197.93991227

loop_
_atom_site_label
_atom_site_type_symbol
_atom_type_description
_atom_site_fract_x
_atom_site_fract_y
_atom_site_fract_z
_atom_type_partial_charge
C1    C     C_R   0.500039 0.217855 0.500053 0.927893
C2    C     C_R   0.582382 0.646594 0.141839 -0.287099
C3    C     C_R   0.545450 0.652277 0.897451 0.197319
C4    C     C_R   0.434464 0.615708 0.095348 0.187946
C5    C     C_R   0.690835 0.615275 0.862488 -0.301531
C6    C     C_R   0.300110 0.553663 0.131618 -0.290181
C7    C     C_R   0.684499 0.560283 0.784542 0.402040
C8    C     C_R   0.314734 0.512211 0.212625 0.421729
C9    C     C_1   0.500037 0.065145 0.500019 -0.216185
C10   C     C_1   0.499858 0.934782 0.499991 -0.229483
C11   C     C_3   0.746064 0.802856 0.285324 0.134612
C12   C     C_R   0.499934 0.782126 0.499956 0.904243
C13   C     C_3   0.925383 0.859149 0.293870 -0.409158
C14   C     C_3   0.027572 0.781305 0.363032 -0.653291
C15   C     C_3   0.206867 0.748160 0.685772 0.191413
C16   C     C_3   0.085928 0.849259 0.726357 -0.390535
C17   C     C_3   0.032960 0.983455 0.672507 -0.956107
C18   C     C_3   0.873052 0.371550 0.769769 0.167271
C19   C     C_3   0.983658 0.357433 0.848522 -0.364904
C20   C     C_3   0.068746 0.204686 0.857139 -0.964165
C21   C     C_3   0.185936 0.293218 0.246143 0.164334
C22   C     C_3   0.072152 0.230448 0.177024 -0.419883
C23   C     C_R   0.520612 0.507895 0.654278 0.901147
C24   C     C_3   0.892031 0.281087 0.180910 -0.751902
C25   C     C_R   0.478755 0.507635 0.345585 0.900905
C26   C     C_R   0.529925 0.554581 0.738547 -0.285297
C27   C     C_R   0.464853 0.540563 0.259232 -0.294247
C28   C     C_R   0.384919 0.609664 0.771724 0.393622
C29   C     C_R   0.596813 0.613662 0.223633 0.383910
C30   C     C_R   0.393513 0.654553 0.850984 -0.267428
H1    H     H_    0.686644 0.820439 0.342456 0.141744
H2    H     H_    0.973526 0.784551 0.739460 0.277429
H3    H     H_    0.145855 0.889880 0.784057 0.210023
H4    H     H_    0.142060 0.054709 0.661641 0.269314
H5    H     H_    0.940571 0.051414 0.702101 0.260462
H6    H     H_    0.974344 0.945185 0.614001 0.274037
H7    H     H_    0.688434 0.695663 0.115225 0.177596
H8    H     H_    0.279950 0.687204 0.876865 0.167220
H9    H     H_    0.808667 0.620495 0.897885 0.158401
H10   H     H_    0.185348 0.531795 0.095841 0.167684
H11   H     H_    0.944046 0.331097 0.719783 0.187093
H12   H     H_    0.678732 0.874106 0.237790 0.072655
H13   H     H_    0.762163 0.297199 0.771687 0.086977
H14   H     H_    0.080299 0.446124 0.850409 0.261078
H15   H     H_    0.907027 0.371874 0.900421 0.202859
H16   H     H_    0.974762 0.113707 0.854700 0.265309
H17   H     H_    0.142937 0.197086 0.915861 0.266000
H18   H     H_    0.153754 0.189739 0.808500 0.278267
H19   H     H_    0.142705 0.250441 0.303891 0.157643
H20   H     H_    0.314212 0.247519 0.242998 0.048881
H21   H     H_    0.117399 0.266338 0.118502 0.211499
H22   H     H_    0.077188 0.106013 0.180228 0.171263
H23   H     H_    0.984834 0.840017 0.236890 0.222248
H24   H     H_    0.845336 0.248390 0.239645 0.240986
H25   H     H_    0.812971 0.227228 0.132239 0.220115
H26   H     H_    0.881866 0.404584 0.172589 0.300966
H27   H     H_    0.924844 0.981729 0.304809 0.169129
H28   H     H_    0.971096 0.800463 0.420730 0.227535
H29   H     H_    0.155563 0.827443 0.367428 0.213499
H30   H     H_    0.034983 0.659102 0.352263 0.307147
H31   H     H_    0.150640 0.720622 0.624995 0.189036
H32   H     H_    0.324119 0.810544 0.676446 0.090761
N1    N     N_1   0.073640 0.500030 0.499990 -0.046740
N2    N     N_1   0.926360 0.499970 0.500010 -0.029031
N3    N     N_2   0.553891 0.665143 0.981652 -0.169296
N4    N     N_2   0.421708 0.629190 0.010816 -0.166383
O1    O     O_R   0.636850 0.285340 0.500000 -0.619529
O2    O     O_3   0.230713 0.611134 0.729343 -0.612355
O3    O     O_3   0.831651 0.523298 0.752015 -0.617843
O4    O     O_3   0.177968 0.451891 0.246550 -0.589931
O5    O     O_R   0.363150 0.714660 0.500000 -0.647277
O6    O     O_R   0.363100 0.285350 0.500000 -0.618962
O7    O     O_R   0.636900 0.714650 0.500000 -0.620993
O8    O     O_R   0.652140 0.498630 0.616140 -0.579230
O9    O     O_R   0.347860 0.501370 0.383860 -0.596293
O10   O     O_R   0.378390 0.498650 0.616130 -0.588072
O11   O     O_R   0.621610 0.501350 0.383870 -0.570905
O12   O     O_3   0.743991 0.648076 0.267344 -0.580509
Zn1   Zn    Zn3+2 0.682780 0.499990 0.500010 0.995785
Zn2   Zn    Zn3+2 0.317220 0.500010 0.499990 0.965718

loop_
_geom_bond_atom_site_label_1
_geom_bond_atom_site_label_2
_ccdc_geom_bond_type
C27   C29   A    
C19   C20   S    
C23   O10   A    
C21   H19   S    
C24   H25   S    
C14   H29   S    
C7    C26   A    
C2    C29   A    
C25   O11   A    
C28   O2    S    
C13   H27   S    
C24   H24   S    
C15   C16   S    
C30   H8    S    
C11   H12   S    
C18   C19   S    
C23   C26   S    
C21   H20   S    
C29   O12   S    
C16   C17   S    
C17   H6    S    
O9    Zn2   S    
C18   O3    S    
C11   H1    S    
C21   C22   S    
C3    N3    S    
C12   O7    A    
O5    Zn2   S    
C13   H23   S    
N1    Zn2   S    
O11   Zn1   S    
O7    Zn1   S    
C14   H28   S    
C1    O6    A    
C1    C9    S    
C4    C6    A    
C18   H11   S    
C5    C7    A    
C6    C8    A    
C25   O9    A    
C3    C30   A    
C2    C4    A    
C11   O12   S    
C16   H3    S    
C15   H31   S    
O1    Zn1   S    
C20   H18   S    
C10   C12   S    
C12   O5    A    
O8    Zn1   S    
C5    H9    S    
C25   C27   S    
N2    Zn1   S    
C22   C24   S    
C24   H26   S    
C17   H4    S    
C23   O8    A    
C19   H14   S    
C22   H22   S    
C9    C10   T    
C26   C28   A    
O10   Zn2   S    
C3    C5    A    
C7    O3    S    
C19   H15   S    
C16   H2    S    
C14   H30   S    
C8    O4    S    
C21   O4    S    
C28   C30   A    
O6    Zn2   S    
C18   H13   S    
C4    N4    S    
C11   C13   S    
C2    H7    S    
C15   O2    S    
C1    O1    A    
C15   H32   S    
C6    H10   S    
C20   H17   S    
N1    N2    T    
N3    N4    D    
C8    C27   A    
C17   H5    S    
C13   C14   S    
C20   H16   S    
C22   H21   S    
