data_mof_unit_16811.cif
_audit_creation_date              2012-12-10T17:47:50-0500
_audit_creation_method            fapswitch 2.2
_symmetry_space_group_name_H-M    P1
_symmetry_Int_Tables_number       1
_space_group_crystal_system       triclinic
_cell_length_a                    14.718487
_cell_length_b                    14.63307
_cell_length_c                    14.347898
_cell_angle_alpha                 77.87737
_cell_angle_beta                  102.530615
_cell_angle_gamma                 114.711109
_cell_volume                      2715.44248505

loop_
_atom_site_label
_atom_site_type_symbol
_atom_type_description
_atom_site_fract_x
_atom_site_fract_y
_atom_site_fract_z
_atom_type_partial_charge
C1    C     C_R   0.880065 0.312027 0.513340 0.857398
C2    C     C_R   0.495062 0.123650 0.509525 -0.250122
C3    C     C_R   0.610779 0.897699 0.566132 -0.145502
C4    C     C_R   0.392165 0.096961 0.506067 -0.142846
C5    C     C_R   0.721778 0.676150 0.350737 0.305278
C6    C     C_R   0.278016 0.323583 0.649124 0.314420
C7    C     C_R   0.801092 0.642547 0.374736 -0.026561
C8    C     C_R   0.198835 0.357402 0.625244 -0.026895
C9    C     C_R   0.713159 0.507609 0.487460 0.039189
C10   C     C_R   0.286692 0.492041 0.512294 0.013130
C11   C     C_R   0.629175 0.536034 0.466303 -0.095959
C12   C     C_R   0.119762 0.687865 0.484645 0.864414
C13   C     C_R   0.370750 0.463723 0.533692 -0.096944
C14   C     C_R   0.635687 0.622950 0.397330 0.114459
C15   C     C_R   0.364218 0.376841 0.602700 0.119778
C16   C     C_R   0.000095 0.499982 0.668872 0.796079
C17   C     C_R   0.999910 0.500027 0.331124 0.814594
C18   C     C_R   0.540251 0.482284 0.511704 0.116352
C19   C     C_R   0.459739 0.517535 0.488420 0.109039
C20   C     C_R   0.471067 0.605684 0.421063 -0.264069
C21   C     C_R   0.529046 0.394321 0.579308 -0.264823
C22   C     C_R   0.556606 0.656481 0.376268 -0.132793
C23   C     C_R   0.639360 0.075843 0.516867 -0.097804
C24   C     C_R   0.443413 0.343452 0.623987 -0.146516
C25   C     C_1   0.000203 0.499931 0.771257 -0.181525
C26   C     C_1   0.999811 0.500095 0.228738 -0.174445
C27   C     C_1   0.000168 0.499944 0.856666 0.002191
C28   C     C_1   0.999850 0.500094 0.143328 0.005241
C29   C     C_1   0.000063 0.499997 0.957302 0.016648
C30   C     C_1   0.999959 0.500049 0.042690 0.017323
C31   C     C_R   0.811577 0.203815 0.522782 -0.124762
C32   C     C_R   0.187814 0.795761 0.481306 -0.120558
C33   C     C_R   0.783357 0.025768 0.576846 0.424086
C34   C     C_R   0.360539 0.922478 0.493850 -0.093012
C35   C     C_R   0.219466 0.969813 0.495832 0.425854
C36   C     C_R   0.848957 0.128702 0.565500 -0.378036
C37   C     C_R   0.152831 0.868082 0.491498 -0.383836
C38   C     C_R   0.707602 0.175751 0.489706 0.329010
C39   C     C_R   0.289711 0.825414 0.472506 0.340461
C40   C     C_R   0.678147 0.999316 0.553005 0.082142
C41   C     C_R   0.323733 0.996914 0.497961 0.077465
C42   C     C_R   0.533893 0.050212 0.509780 0.093187
C43   C     C_R   0.466563 0.947157 0.512814 0.095326
C44   C     C_R   0.506984 0.871837 0.544142 -0.249074
Cu1   Cu    Cu3+1 0.081740 0.475690 0.523180 0.960246
Cu2   Cu    Cu3+1 0.918260 0.524310 0.476820 0.964020
H1    H     H_    0.637911 0.837369 0.593351 0.200826
H2    H     H_    0.439466 0.276593 0.675499 0.201500
H3    H     H_    0.283065 0.554167 0.458485 0.175794
H4    H     H_    0.716539 0.444997 0.540773 0.143070
H5    H     H_    0.131451 0.317599 0.659358 0.126037
H6    H     H_    0.868470 0.682399 0.340623 0.130621
H7    H     H_    0.372056 0.803418 0.397809 0.322134
H8    H     H_    0.616263 0.206338 0.380259 0.331891
H9    H     H_    0.895023 0.982127 0.626498 0.328742
H10   H     H_    0.110503 0.010889 0.499820 0.329976
H11   H     H_    0.792656 0.788102 0.258161 0.323713
H12   H     H_    0.366555 0.155459 0.509612 0.204047
H13   H     H_    0.206766 0.211251 0.741192 0.322051
H14   H     H_    0.415147 0.638332 0.401049 0.162467
H15   H     H_    0.585175 0.361920 0.599666 0.137582
H16   H     H_    0.073639 0.845439 0.496084 0.176946
H17   H     H_    0.929380 0.149893 0.588752 0.171212
H18   H     H_    0.458964 0.792435 0.558625 0.198795
H19   H     H_    0.544331 0.201404 0.518541 0.190243
H20   H     H_    0.560564 0.723385 0.324823 0.200508
N1    N     N_R   0.795420 0.560790 0.441960 -0.188610
N2    N     N_R   0.204580 0.439210 0.558040 -0.192231
O1    O     O_R   0.977910 0.338120 0.530560 -0.597302
O2    O     O_3   0.676114 0.244523 0.424328 -0.723458
O3    O     O_3   0.820133 0.950669 0.614055 -0.735683
O4    O     O_3   0.184977 0.042607 0.502046 -0.728306
O5    O     O_3   0.727193 0.760279 0.283183 -0.735816
O6    O     O_3   0.272376 0.239219 0.716420 -0.729865
O7    O     O_R   0.022090 0.661880 0.469440 -0.600247
O8    O     O_R   0.839850 0.379180 0.491410 -0.520718
O9    O     O_R   0.160150 0.620820 0.508590 -0.527726
O10   O     O_R   0.069040 0.479460 0.643530 -0.562779
O11   O     O_R   0.930960 0.520540 0.356470 -0.554922
O12   O     O_R   0.930990 0.520530 0.604380 -0.565354
O13   O     O_R   0.069010 0.479470 0.395620 -0.557462
O14   O     O_3   0.315681 0.761350 0.435227 -0.758924

loop_
_geom_bond_atom_site_label_1
_geom_bond_atom_site_label_2
_ccdc_geom_bond_type
C38   O2    S    
C11   C18   A    
C27   C29   S    
C18   C21   A    
C19   C20   A    
C1    C31   S    
C2    H19   S    
Cu2   O8    S    
C37   H16   S    
Cu1   Cu2   S    
C44   H18   S    
C23   C42   A    
C17   C26   S    
C35   C37   A    
C7    H6    S    
Cu2   O11   S    
C11   C14   A    
C4    C41   A    
H13   O6    S    
C23   C40   A    
C17   O11   A    
C33   C36   A    
C18   C19   A    
C32   C39   A    
H11   O5    S    
C22   H20   S    
C6    C15   A    
H10   O4    S    
Cu1   O10   S    
C20   H14   S    
C36   H17   S    
C21   H15   S    
C12   C32   S    
C34   C41   A    
Cu2   O7    S    
C6    O6    S    
C3    C44   A    
C33   C40   A    
C13   C19   A    
Cu1   O1    S    
C34   C39   A    
C24   H2    S    
C5    C7    A    
C6    C8    A    
C1    O1    A    
H7    O14   S    
C16   O12   A    
C2    C4    A    
C43   C44   A    
C9    N1    A    
C29   C30   T    
H8    O2    S    
C12   O9    A    
Cu1   N2    S    
C32   C37   A    
C9    C11   A    
C8    H5    S    
C5    C14   A    
C15   C24   A    
C20   C22   A    
C3    C40   A    
C8    N2    A    
C13   C15   A    
C12   O7    A    
C42   C43   A    
C16   O10   A    
C16   C25   S    
C1    O8    A    
Cu1   O13   S    
C9    H4    S    
C39   O14   S    
C10   C13   A    
C35   O4    S    
C10   N2    A    
C25   C27   T    
C23   C38   A    
C26   C28   T    
C31   C38   A    
C14   C22   A    
C28   C30   S    
Cu2   N1    S    
Cu2   O12   S    
C2    C42   A    
C3    H1    S    
C17   O13   A    
C5    O5    S    
C35   C41   A    
C33   O3    S    
C7    N1    A    
C21   C24   A    
C4    H12   S    
C31   C36   A    
Cu1   O9    S    
C34   C43   A    
C10   H3    S    
H9    O3    S    
