data_mof_unit_28984.cif
_audit_creation_date              2012-12-10T19:04:10-0500
_audit_creation_method            fapswitch 2.2
_symmetry_space_group_name_H-M    P1
_symmetry_Int_Tables_number       1
_space_group_crystal_system       triclinic
_cell_length_a                    10.625938
_cell_length_b                    10.823753
_cell_length_c                    9.546125
_cell_angle_alpha                 89.856002
_cell_angle_beta                  89.624105
_cell_angle_gamma                 90.226765
_cell_volume                      1097.88820529

loop_
_atom_site_label
_atom_site_type_symbol
_atom_type_description
_atom_site_fract_x
_atom_site_fract_y
_atom_site_fract_z
_atom_type_partial_charge
C1    C     C_R   0.502212 0.262350 0.500147 0.800723
C2    C     C_3   0.960789 0.497960 0.366954 -0.128587
C3    C     C_3   0.042363 0.397774 0.437134 -0.168149
C4    C     C_3   0.122431 0.500507 0.501780 0.023318
C5    C     C_R   0.509549 0.063142 0.626040 0.071714
C6    C     C_R   0.513945 0.129289 0.500390 -0.172601
C7    C     C_R   0.534646 0.064784 0.374605 -0.182888
C8    C     C_R   0.533753 0.935910 0.374311 -0.212634
C9    C     C_R   0.510900 0.870702 0.499555 -0.095987
C10   C     C_R   0.505194 0.936132 0.625201 0.107668
C11   C     C_3   0.414143 0.930822 0.746065 -0.088575
C12   C     C_R   0.259295 0.500231 0.500527 0.770675
C13   C     C_3   0.420737 0.071599 0.747687 0.413727
C14   C     C_R   0.554703 0.594938 0.072910 0.168081
C15   C     C_R   0.434298 0.413810 0.075148 -0.039511
C16   C     C_R   0.433998 0.414044 0.926243 -0.021400
C17   C     C_R   0.554664 0.594924 0.925575 0.203669
C18   C     C_3   0.689051 0.634565 0.918850 0.405459
C19   C     C_3   0.689058 0.634804 0.077944 -0.537159
C20   C     C_R   0.501127 0.737600 0.499790 0.824238
C21   C     C_R   0.740752 0.500152 0.499578 0.795569
C22   C     C_3   0.039489 0.502824 0.633860 -0.142177
C23   C     C_3   0.957094 0.400081 0.568982 -0.170913
C24   C     C_3   0.877699 0.500272 0.498866 0.015010
C25   C     C_3   0.957782 0.603027 0.563726 -0.163419
C26   C     C_3   0.043077 0.600743 0.431839 -0.167158
Cu1   Cu    Cu3+1 0.499990 0.499980 0.640670 0.972251
Cu2   Cu    Cu3+1 0.500010 0.500020 0.359330 0.947860
H1    H     H_    0.918759 0.317994 0.624939 0.142024
H2    H     H_    0.455346 0.886774 0.840581 0.235664
H3    H     H_    0.331747 0.120760 0.723135 0.070842
H4    H     H_    0.383063 0.342621 0.131450 0.147873
H5    H     H_    0.382001 0.343526 0.870994 0.171931
H6    H     H_    0.753146 0.565252 0.871231 0.100070
H7    H     H_    0.751175 0.562857 0.122751 0.168946
H8    H     H_    0.700018 0.728330 0.124263 0.222012
H9    H     H_    0.074342 0.504890 0.743223 0.141377
H10   H     H_    0.919957 0.686917 0.615500 0.166012
H11   H     H_    0.081406 0.682873 0.375958 0.136963
H12   H     H_    0.927254 0.495288 0.257263 0.132658
H13   H     H_    0.080133 0.313809 0.385491 0.129749
H14   H     H_    0.546173 0.113260 0.275918 0.192971
H15   H     H_    0.545485 0.888052 0.275592 0.178460
N1    N     N_R   0.500800 0.500930 0.147930 -0.186399
N2    N     N_R   0.500800 0.500890 0.852020 -0.229670
O1    O     O_R   0.500000 0.319640 0.618810 -0.563249
O2    O     O_R   0.500010 0.319680 0.381230 -0.587271
O3    O     O_R   0.316850 0.499950 0.618770 -0.598862
O4    O     O_R   0.316860 0.499990 0.381190 -0.581884
O5    O     O_R   0.499990 0.680320 0.618770 -0.553877
O6    O     O_R   0.500000 0.680360 0.381190 -0.588620
O7    O     O_R   0.683140 0.500010 0.618810 -0.581026
O8    O     O_R   0.683150 0.500050 0.381230 -0.585020
F1    F     F_    0.481017 0.115650 0.865664 -0.666485
F2    F     F_    0.701406 0.752088 0.862829 -0.654454
C27   C     C_3   0.283233 0.881066 0.708729 -0.948063
H16   H     H_    0.285859 0.779036 0.698519 0.267395
H17   H     H_    0.215631 0.904485 0.793655 0.255427
H18   H     H_    0.249236 0.921552 0.608802 0.235702

loop_
_geom_bond_atom_site_label_1
_geom_bond_atom_site_label_2
_ccdc_geom_bond_type
Cu1   O3    S    
C16   N2    A    
C4    C26   S    
C23   C24   S    
C27   H18   S    
Cu2   O2    S    
C6    C7    A    
C16   H5    S    
C4    C12   S    
C4    C22   S    
C9    C10   A    
C9    C20   S    
C5    C13   S    
Cu1   O5    S    
C12   O3    A    
Cu1   N2    S    
C12   O4    A    
C15   H4    S    
C2    C26   S    
C19   H7    S    
C24   C25   S    
Cu2   O8    S    
C21   O8    A    
C11   C13   S    
C14   C17   A    
C26   H11   S    
C18   F2    S    
C15   C16   A    
C23   H1    S    
C8    H15   S    
C5    C10   A    
C27   H17   S    
C17   N2    A    
C15   N1    A    
C17   C18   S    
C20   O6    A    
C2    C3    S    
C19   H8    S    
C18   H6    S    
C2    C24   S    
C5    C6    A    
C25   H10   S    
Cu2   O6    S    
C1    O1    A    
C21   C24   S    
C10   C11   S    
C3    C4    S    
C2    H12   S    
C7    C8    A    
Cu1   O7    S    
Cu1   O1    S    
Cu2   N1    S    
C14   N1    A    
C13   F1    S    
Cu2   O4    S    
C7    H14   S    
Cu1   Cu2   S    
C27   H16   S    
C22   C23   S    
C18   C19   S    
C20   O5    A    
C25   C26   S    
C22   H9    S    
C3    C23   S    
C14   C19   S    
C13   H3    S    
C21   O7    A    
C3    H13   S    
C11   C27   S    
C1    C6    S    
C11   H2    S    
C1    O2    A    
C8    C9    A    
C22   C25   S    
