data_mof_unit_20104.cif
_audit_creation_date              2012-12-11T16:26:11-0500
_audit_creation_method            fapswitch 2.2
_symmetry_space_group_name_H-M    P1
_symmetry_Int_Tables_number       1
_space_group_crystal_system       triclinic
_cell_length_a                    13.936519
_cell_length_b                    13.936522
_cell_length_c                    31.729246
_cell_angle_alpha                 90.000014
_cell_angle_beta                  89.999987
_cell_angle_gamma                 120.000233
_cell_volume                      5337.01077716

loop_
_atom_site_label
_atom_site_type_symbol
_atom_type_description
_atom_site_fract_x
_atom_site_fract_y
_atom_site_fract_z
_atom_type_partial_charge
C1    C     C_R   0.565287 0.445535 0.809966 0.559009
C2    C     C_R   0.880248 0.434713 0.690034 0.559008
C3    C     C_R   0.554464 0.119752 0.809966 0.559009
C4    C     C_R   0.565287 0.445535 0.690034 0.559010
C5    C     C_R   0.880248 0.434713 0.809966 0.559008
C6    C     C_R   0.554464 0.119752 0.690034 0.559009
C7    C     C_R   0.445535 0.565287 0.309966 0.559010
C8    C     C_R   0.434713 0.880248 0.190034 0.559009
C9    C     C_R   0.119752 0.554464 0.309966 0.559008
C10   C     C_R   0.445535 0.565287 0.190034 0.559010
C11   C     C_R   0.434713 0.880248 0.309966 0.559008
C12   C     C_R   0.119752 0.554464 0.190034 0.559008
C13   C     C_1   0.001266 0.537728 0.018968 0.113254
C14   C     C_1   0.536463 0.998735 0.481032 0.113254
C15   C     C_1   0.462272 0.463537 0.018968 0.113254
C16   C     C_1   0.001266 0.537728 0.481032 0.113254
C17   C     C_1   0.536462 0.998734 0.018968 0.113254
C18   C     C_1   0.462271 0.463537 0.481032 0.113254
C19   C     C_1   0.537728 0.001266 0.518968 0.113254
C20   C     C_1   0.998734 0.536463 0.981032 0.113254
C21   C     C_1   0.463537 0.462271 0.518968 0.113254
C22   C     C_1   0.537728 0.001265 0.981032 0.113254
C23   C     C_1   0.998735 0.536463 0.518968 0.113254
C24   C     C_1   0.463537 0.462271 0.981032 0.113254
C25   C     C_R   0.944791 0.479542 0.849768 -0.056481
C26   C     C_R   0.534750 0.055209 0.650232 -0.056481
C27   C     C_R   0.520458 0.465249 0.849768 -0.056481
C28   C     C_R   0.944791 0.479542 0.650232 -0.056481
C29   C     C_R   0.534750 0.055209 0.849768 -0.056481
C30   C     C_R   0.520458 0.465249 0.650232 -0.056481
C31   C     C_R   0.479542 0.944791 0.349768 -0.056481
C32   C     C_R   0.055209 0.534750 0.150232 -0.056481
C33   C     C_R   0.465249 0.520458 0.349768 -0.056481
C34   C     C_R   0.479542 0.944791 0.150231 -0.056481
C35   C     C_R   0.055209 0.534750 0.349768 -0.056481
C36   C     C_R   0.465249 0.520458 0.150232 -0.056481
C37   C     C_R   0.962471 0.581513 0.866781 0.054782
C38   C     C_R   0.619041 0.037528 0.633219 0.054783
C39   C     C_R   0.418487 0.380957 0.866781 0.054782
C40   C     C_R   0.962471 0.581513 0.633219 0.054782
C41   C     C_R   0.619041 0.037528 0.866781 0.054782
C42   C     C_R   0.418487 0.380958 0.633219 0.054782
C43   C     C_R   0.581513 0.962471 0.366781 0.054782
C44   C     C_R   0.037529 0.619041 0.133219 0.054783
C45   C     C_R   0.380958 0.418487 0.366781 0.054783
C46   C     C_R   0.581513 0.962471 0.133219 0.054782
C47   C     C_R   0.037528 0.619041 0.366781 0.054783
C48   C     C_R   0.380958 0.418487 0.133219 0.054782
C49   C     C_R   0.981200 0.601715 0.910380 0.072809
C50   C     C_R   0.620515 0.018800 0.589620 0.072809
C51   C     C_R   0.398285 0.379483 0.910380 0.072810
C52   C     C_R   0.981200 0.601715 0.589620 0.072810
C53   C     C_R   0.620515 0.018800 0.910380 0.072810
C54   C     C_R   0.398284 0.379484 0.589620 0.072810
C55   C     C_R   0.601715 0.981200 0.410380 0.072810
C56   C     C_R   0.018800 0.620515 0.089620 0.072810
C57   C     C_R   0.379484 0.398284 0.410380 0.072810
C58   C     C_R   0.601715 0.981199 0.089620 0.072810
C59   C     C_R   0.018800 0.620515 0.410380 0.072809
C60   C     C_R   0.379484 0.398284 0.089620 0.072810
C61   C     C_R   0.993859 0.526252 0.935788 -0.040442
C62   C     C_R   0.532392 0.006141 0.564212 -0.040442
C63   C     C_R   0.473749 0.467607 0.935788 -0.040442
C64   C     C_R   0.993860 0.526252 0.564212 -0.040442
C65   C     C_R   0.532392 0.006140 0.935788 -0.040442
C66   C     C_R   0.473748 0.467607 0.564212 -0.040442
C67   C     C_R   0.526252 0.993860 0.435788 -0.040442
C68   C     C_R   0.006141 0.532392 0.064212 -0.040442
C69   C     C_R   0.467608 0.473748 0.435788 -0.040442
C70   C     C_R   0.526251 0.993859 0.064212 -0.040442
C71   C     C_R   0.006141 0.532392 0.435788 -0.040442
C72   C     C_R   0.467608 0.473748 0.064212 -0.040442
C73   C     C_R   0.999927 0.438026 0.917256 0.244533
C74   C     C_R   0.438099 0.000073 0.582744 0.244532
C75   C     C_R   0.561974 0.561901 0.917256 0.244532
C76   C     C_R   0.999927 0.438026 0.582744 0.244532
C77   C     C_R   0.438098 0.000073 0.917256 0.244532
C78   C     C_R   0.561975 0.561901 0.582744 0.244532
C79   C     C_R   0.438026 0.999927 0.417256 0.244532
C80   C     C_R   0.000074 0.438099 0.082744 0.244532
C81   C     C_R   0.561901 0.561975 0.417256 0.244532
C82   C     C_R   0.438026 0.999926 0.082744 0.244532
C83   C     C_R   0.000074 0.438099 0.417256 0.244532
C84   C     C_R   0.561901 0.561975 0.082744 0.244532
C85   C     C_R   0.976044 0.414520 0.874338 0.225020
C86   C     C_R   0.438475 0.023956 0.625662 0.225020
C87   C     C_R   0.585480 0.561525 0.874338 0.225020
C88   C     C_R   0.976044 0.414520 0.625662 0.225020
C89   C     C_R   0.438475 0.023956 0.874338 0.225020
C90   C     C_R   0.585481 0.561524 0.625662 0.225020
C91   C     C_R   0.414520 0.976044 0.374338 0.225020
C92   C     C_R   0.023956 0.438475 0.125662 0.225020
C93   C     C_R   0.561525 0.585481 0.374338 0.225020
C94   C     C_R   0.414520 0.976044 0.125662 0.225020
C95   C     C_R   0.023956 0.438475 0.374338 0.225020
C96   C     C_R   0.561525 0.585481 0.125662 0.225020
Cr1   Cr    Cr6+3 0.504240 0.249200 0.750000 1.151980
Cr2   Cr    Cr6+3 0.744960 0.495760 0.750000 1.151981
Cr3   Cr    Cr6+3 0.750800 0.255040 0.750000 1.151980
Cr4   Cr    Cr6+3 0.249200 0.504240 0.250000 1.151981
Cr5   Cr    Cr6+3 0.495760 0.744960 0.250000 1.151981
Cr6   Cr    Cr6+3 0.255040 0.750800 0.250000 1.151980
O1    O     O_R   0.480350 0.140770 0.796330 -0.434670
O2    O     O_R   0.660420 0.519650 0.703670 -0.434669
O3    O     O_R   0.859230 0.339580 0.796330 -0.434669
O4    O     O_R   0.480350 0.140770 0.703670 -0.434669
O5    O     O_R   0.660420 0.519650 0.796330 -0.434669
O6    O     O_R   0.859230 0.339580 0.703670 -0.434669
O7    O     O_R   0.140770 0.480350 0.296330 -0.434669
O8    O     O_R   0.519650 0.660420 0.203670 -0.434669
O9    O     O_R   0.339580 0.859230 0.296330 -0.434669
O10   O     O_R   0.140770 0.480350 0.203670 -0.434669
O11   O     O_R   0.519650 0.660420 0.296330 -0.434669
O12   O     O_R   0.339580 0.859230 0.203670 -0.434669
O13   O     O_R   0.514930 0.348530 0.793250 -0.487633
O14   O     O_R   0.833600 0.485070 0.706750 -0.487633
O15   O     O_R   0.651470 0.166400 0.793250 -0.487633
O16   O     O_R   0.514930 0.348530 0.706750 -0.487633
O17   O     O_R   0.833600 0.485070 0.793250 -0.487633
O18   O     O_R   0.651470 0.166400 0.706750 -0.487633
O19   O     O_R   0.348530 0.514930 0.293250 -0.487633
O20   O     O_R   0.485070 0.833600 0.206750 -0.487633
O21   O     O_R   0.166400 0.651470 0.293250 -0.487633
O22   O     O_R   0.348530 0.514930 0.206750 -0.487633
O23   O     O_R   0.485070 0.833600 0.293250 -0.487633
O24   O     O_R   0.166400 0.651470 0.206750 -0.487633
O25   O     O_3   0.666667 0.333333 0.750000 -0.297970
O26   O     O_3   0.333333 0.666667 0.250000 -0.297971
I1    I     I_    0.976062 0.712120 0.826765 -0.005991
I2    I     I_    0.736057 0.023938 0.673235 -0.005991
I3    I     I_    0.287879 0.263940 0.826765 -0.005990
I4    I     I_    0.976062 0.712120 0.673235 -0.005991
I5    I     I_    0.736058 0.023938 0.826765 -0.005991
I6    I     I_    0.287879 0.263941 0.673235 -0.005990
I7    I     I_    0.712120 0.976063 0.326765 -0.005991
I8    I     I_    0.023937 0.736057 0.173235 -0.005991
I9    I     I_    0.263941 0.287879 0.326765 -0.005991
I10   I     I_    0.712120 0.976062 0.173235 -0.005991
I11   I     I_    0.023938 0.736057 0.326765 -0.005991
I12   I     I_    0.263941 0.287879 0.173235 -0.005990
I13   I     I_    0.013573 0.757206 0.061504 0.037928
I14   I     I_    0.743634 0.986428 0.438496 0.037928
I15   I     I_    0.242793 0.256365 0.061504 0.037928
I16   I     I_    0.013572 0.757206 0.438496 0.037928
I17   I     I_    0.743633 0.986426 0.061504 0.037928
I18   I     I_    0.242793 0.256365 0.438496 0.037928
I19   I     I_    0.757206 0.013573 0.561504 0.037927
I20   I     I_    0.986426 0.743633 0.938496 0.037927
I21   I     I_    0.256366 0.242792 0.561504 0.037928
I22   I     I_    0.757207 0.013573 0.938495 0.037927
I23   I     I_    0.986427 0.743634 0.561504 0.037928
I24   I     I_    0.256367 0.242790 0.938496 0.037927
Cl1   Cl    Cl    0.010266 0.315365 0.147621 -0.407751
Cl2   Cl    Cl    0.305099 0.989734 0.352379 -0.407750
Cl3   Cl    Cl    0.684635 0.694902 0.147621 -0.407750
Cl4   Cl    Cl    0.010266 0.315365 0.352379 -0.407751
Cl5   Cl    Cl    0.305099 0.989734 0.147621 -0.407750
Cl6   Cl    Cl    0.684635 0.694902 0.352379 -0.407750
Cl7   Cl    Cl    0.315364 0.010266 0.647621 -0.407751
Cl8   Cl    Cl    0.989735 0.305100 0.852379 -0.407750
Cl9   Cl    Cl    0.694901 0.684635 0.647621 -0.407749
Cl10  Cl    Cl    0.315364 0.010265 0.852379 -0.407751
Cl11  Cl    Cl    0.989734 0.305100 0.647621 -0.407750
Cl12  Cl    Cl    0.694901 0.684635 0.852379 -0.407750
Cl13  Cl    Cl    0.965529 0.319466 0.051837 -0.400698
Cl14  Cl    Cl    0.353938 0.034472 0.448163 -0.400697
Cl15  Cl    Cl    0.680534 0.646063 0.051837 -0.400697
Cl16  Cl    Cl    0.965529 0.319466 0.448163 -0.400697
Cl17  Cl    Cl    0.353938 0.034471 0.051837 -0.400698
Cl18  Cl    Cl    0.680534 0.646063 0.448163 -0.400697
Cl19  Cl    Cl    0.319466 0.965529 0.551837 -0.400697
Cl20  Cl    Cl    0.034472 0.353939 0.948162 -0.400697
Cl21  Cl    Cl    0.646063 0.680534 0.551837 -0.400697
Cl22  Cl    Cl    0.319466 0.965528 0.948163 -0.400697
Cl23  Cl    Cl    0.034472 0.353938 0.551837 -0.400697
Cl24  Cl    Cl    0.646062 0.680534 0.948163 -0.400697

loop_
_geom_bond_atom_site_label_1
_geom_bond_atom_site_label_2
_ccdc_geom_bond_type
C50   I19   S    
C44   I8    S    
C39   C51   A    
C68   C80   A    
C77   Cl22  S    
C82   C94   A    
C21   C66   S    
C18   C21   T    
C33   C45   A    
C89   Cl10  S    
C30   C90   A    
C35   C47   A    
C29   C89   A    
C58   I17   S    
Cr2   O17   S    
C5    O3    A    
C78   C90   A    
Cr3   O6    S    
C10   O22   A    
C45   C57   A    
C31   C43   A    
C5    O17   A    
C38   I2    S    
C11   O23   A    
C95   Cl4   S    
Cr6   O26   S    
C60   I15   S    
C96   Cl3   S    
C12   O24   A    
C60   C72   A    
C19   C62   S    
C3    O1    A    
Cr1   O16   S    
Cr5   O26   S    
Cr5   O11   S    
Cr4   O19   S    
C84   C96   A    
C20   C61   S    
C3    C29   S    
C44   C56   A    
C3    O15   A    
C25   C37   A    
Cr3   O18   S    
C2    O14   A    
C27   C39   A    
C74   Cl19  S    
C28   C88   A    
C78   Cl21  S    
Cr5   O23   S    
C14   C67   S    
C10   O8    A    
C92   Cl1   S    
C34   C46   A    
C85   Cl8   S    
Cr1   O13   S    
C53   C65   A    
C86   Cl7   S    
C76   C88   A    
C79   C91   A    
C8    O12   A    
C46   I10   S    
C18   C69   S    
C87   Cl12  S    
C40   I4    S    
C82   Cl17  S    
C11   C31   S    
Cr4   O7    S    
C55   I14   S    
C57   I18   S    
C12   C32   S    
C7    C33   S    
C4    O16   A    
Cr6   O9    S    
C16   C71   S    
C7    O19   A    
Cr3   O3    S    
C6    O18   A    
C48   C60   A    
C54   I21   S    
C71   C83   A    
C9    O7    A    
C66   C78   A    
Cr1   O1    S    
C49   C61   A    
C38   C50   A    
C48   I12   S    
C90   Cl9   S    
C11   O9    A    
C23   C64   S    
C67   C79   A    
C91   Cl2   S    
C52   C64   A    
C26   C38   A    
Cr3   O25   S    
C61   C73   A    
Cr5   O8    S    
C40   C52   A    
Cr2   O5    S    
C49   I20   S    
Cr4   O22   S    
C80   C92   A    
C27   C87   A    
C22   C65   S    
Cr6   O12   S    
Cr3   O15   S    
C65   C77   A    
C81   C93   A    
C36   C96   A    
Cr2   O14   S    
C26   C86   A    
C62   C74   A    
C77   C89   A    
C25   C85   A    
C64   C76   A    
C51   C63   A    
C8    C34   S    
C83   C95   A    
C74   C86   A    
C73   Cl20  S    
C43   I7    S    
C6    O4    A    
C41   C53   A    
C37   C49   A    
C72   C84   A    
C1    O5    A    
C5    C25   S    
C56   I13   S    
C43   C55   A    
C15   C24   T    
C51   I24   S    
Cr4   O10   S    
C16   C23   T    
C31   C91   A    
C53   I22   S    
C50   C62   A    
Cr1   O4    S    
Cr6   O21   S    
C80   Cl13  S    
C12   O10   A    
C63   C75   A    
C9    C35   S    
C45   I9    S    
C73   C85   A    
C75   C87   A    
Cr1   O25   S    
Cr2   O25   S    
C13   C20   T    
C29   C41   A    
C75   Cl24  S    
Cr4   O26   S    
C14   C19   T    
C76   Cl23  S    
C58   C70   A    
C34   C94   A    
Cr6   O24   S    
C33   C93   A    
C59   I16   S    
C55   C67   A    
C41   I5    S    
C54   C66   A    
C35   C95   A    
C24   C63   S    
C88   Cl11  S    
C83   Cl16  S    
C94   Cl5   S    
Cr5   O20   S    
C42   I6    S    
C7    O11   A    
C84   Cl15  S    
C56   C68   A    
C42   C54   A    
C8    O20   A    
C6    C26   S    
C39   I3    S    
C52   I23   S    
Cr2   O2    S    
C4    O2    A    
C2    O6    A    
C9    O21   A    
C15   C72   S    
C36   C48   A    
C79   Cl14  S    
C81   Cl18  S    
C93   Cl6   S    
C70   C82   A    
C4    C30   S    
C69   C81   A    
C32   C92   A    
C47   C59   A    
C17   C70   S    
C17   C22   T    
C32   C44   A    
C47   I11   S    
C1    C27   S    
C28   C40   A    
C30   C42   A    
C2    C28   S    
C1    O13   A    
C10   C36   S    
C57   C69   A    
C37   I1    S    
C46   C58   A    
C59   C71   A    
C13   C68   S    
