data_mof_unit_60629.cif
_audit_creation_date              2012-12-10T19:19:22-0500
_audit_creation_method            fapswitch 2.2
_symmetry_space_group_name_H-M    P1
_symmetry_Int_Tables_number       1
_space_group_crystal_system       triclinic
_cell_length_a                    15.995653
_cell_length_b                    14.754997
_cell_length_c                    23.613608
_cell_angle_alpha                 89.999421
_cell_angle_beta                  89.998159
_cell_angle_gamma                 90.000746
_cell_volume                      5573.1848634

loop_
_atom_site_label
_atom_site_type_symbol
_atom_type_description
_atom_site_fract_x
_atom_site_fract_y
_atom_site_fract_z
_atom_type_partial_charge
C1    C     C_R   0.340823 0.500000 0.500012 0.816095
C2    C     C_R   0.659177 0.500000 0.499988 0.816071
C3    C     C_R   0.547121 0.563777 0.238525 -0.065493
C4    C     C_R   0.452772 0.563705 0.761470 -0.065492
C5    C     C_R   0.550445 0.562713 0.297810 -0.054010
C6    C     C_R   0.449464 0.562648 0.702184 -0.053870
C7    C     C_R   0.499924 0.499984 0.328167 -0.204691
C8    C     C_R   0.500052 0.499980 0.671832 -0.204654
C9    C     C_R   0.449381 0.437224 0.297849 -0.050685
C10   C     C_R   0.550637 0.437264 0.702150 -0.050844
C11   C     C_R   0.452683 0.436094 0.238562 -0.064975
C12   C     C_R   0.547329 0.436126 0.761437 -0.064943
C13   C     C_R   0.499905 0.499913 0.208743 0.240194
C14   C     C_R   0.500045 0.499893 0.791253 0.240196
C15   C     C_R   0.956377 0.582183 0.502229 -0.157302
C16   C     C_R   0.043624 0.417816 0.497770 -0.157181
C17   C     C_R   0.043626 0.582183 0.502236 -0.157289
C18   C     C_R   0.956375 0.417816 0.497768 -0.157176
C19   C     C_R   0.912786 0.500000 0.499996 0.146893
C20   C     C_R   0.087215 0.500000 0.500006 0.146790
C21   C     C_1   0.823333 0.500000 0.499991 -0.046335
C22   C     C_1   0.176667 0.499999 0.500010 -0.046329
C23   C     C_1   0.251713 0.499999 0.500012 -0.163667
C24   C     C_1   0.748287 0.500001 0.499989 -0.163710
C25   C     C_R   0.499960 0.499998 0.390746 0.751082
C26   C     C_R   0.500032 0.499997 0.609252 0.751059
C27   C     C_R   0.549305 0.952091 0.538671 -0.136503
C28   C     C_R   0.450696 0.047921 0.461328 -0.137293
C29   C     C_R   0.450695 0.952090 0.461329 -0.136428
C30   C     C_R   0.549304 0.047922 0.538671 -0.137253
C31   C     C_R   0.500000 0.902872 0.500000 0.042893
C32   C     C_R   0.500000 0.097136 0.500000 0.038219
C33   C     C_1   0.500000 0.802742 0.500000 0.147468
C34   C     C_1   0.500000 0.197260 0.500000 0.147547
C35   C     C_R   0.574621 0.504187 0.880963 0.548363
C36   C     C_R   0.425324 0.504110 0.119033 0.548378
C37   C     C_R   0.425413 0.495473 0.880940 0.548743
C38   C     C_R   0.574540 0.495579 0.119056 0.548728
C39   C     C_R   0.423833 0.497962 0.940310 -0.016610
C40   C     C_R   0.576117 0.498064 0.059687 -0.016595
C41   C     C_R   0.499985 0.499815 0.970118 -0.016205
C42   C     C_R   0.499964 0.499819 0.029878 -0.016205
C43   C     C_R   0.576158 0.501671 0.940332 -0.016432
C44   C     C_R   0.423789 0.501585 0.059664 -0.016442
C45   C     C_R   0.348096 0.498294 0.970451 -0.148155
C46   C     C_R   0.651855 0.498486 0.029545 -0.148161
C47   C     C_R   0.348073 0.501147 0.029499 -0.148282
C48   C     C_R   0.651874 0.501331 0.970497 -0.148287
Cu1   Cu    Cu3+1 0.500000 0.589220 0.500000 0.987687
Cu2   Cu    Cu3+1 0.500000 0.410780 0.500000 0.988508
H1    H     H_    0.288616 0.497219 0.948543 0.195101
H2    H     H_    0.711335 0.497488 0.051453 0.195099
H3    H     H_    0.288578 0.502148 0.051390 0.195046
H4    H     H_    0.711369 0.502404 0.948606 0.195045
H5    H     H_    0.583469 0.612899 0.214928 0.197556
H6    H     H_    0.416373 0.612785 0.785065 0.197566
H7    H     H_    0.416332 0.386940 0.214993 0.197563
H8    H     H_    0.583722 0.387009 0.785006 0.197549
H9    H     H_    0.077026 0.646013 0.503973 0.148692
H10   H     H_    0.922975 0.353986 0.496035 0.148622
H11   H     H_    0.922978 0.646013 0.503959 0.148509
H12   H     H_    0.077023 0.353987 0.496036 0.148690
H13   H     H_    0.587970 0.083649 0.568994 0.149849
H14   H     H_    0.412027 0.916368 0.431009 0.143865
H15   H     H_    0.412030 0.083649 0.431006 0.149815
H16   H     H_    0.587973 0.916368 0.568991 0.143802
N1    N     N_R   0.500027 0.499844 0.852306 -0.459141
N2    N     N_R   0.499922 0.499862 0.147690 -0.459136
N3    N     N_1   0.500000 0.276710 0.500000 -0.148902
N4    N     N_1   0.500000 0.723290 0.500000 -0.149237
O1    O     O_R   0.380310 0.575320 0.500010 -0.569353
O2    O     O_R   0.619690 0.424680 0.499990 -0.569152
O3    O     O_R   0.619690 0.575320 0.499990 -0.569360
O4    O     O_R   0.380310 0.424680 0.500010 -0.569153
O5    O     O_R   0.499980 0.575360 0.417880 -0.575369
O6    O     O_R   0.500020 0.424640 0.582120 -0.574603
O7    O     O_R   0.500020 0.575360 0.582120 -0.575442
O8    O     O_R   0.499980 0.424640 0.417880 -0.574693
O9    O     O_2   0.647142 0.511920 0.852155 -0.529350
O10   O     O_2   0.352795 0.511759 0.147840 -0.529319
O11   O     O_2   0.352913 0.487749 0.852110 -0.528703
O12   O     O_2   0.647048 0.487946 0.147886 -0.528760
C49   C     C_2   0.610490 0.624457 0.326627 0.414031
H17   H     H_    0.630489 0.611744 0.369742 0.084065
O13   O     O_2   0.639866 0.689914 0.301992 -0.525699
C50   C     C_2   0.389369 0.624329 0.673360 0.413758
H18   H     H_    0.369469 0.611661 0.630219 0.084020
O14   O     O_2   0.359839 0.689683 0.698016 -0.525844
C51   C     C_2   0.389358 0.375497 0.326708 0.409554
H19   H     H_    0.369446 0.388193 0.369844 0.083168
O15   O     O_2   0.359903 0.310069 0.302089 -0.530137
C52   C     C_2   0.610702 0.375590 0.673291 0.409776
H20   H     H_    0.630622 0.388324 0.630161 0.083174
O16   O     O_2   0.640177 0.310164 0.697902 -0.529977

loop_
_geom_bond_atom_site_label_1
_geom_bond_atom_site_label_2
_ccdc_geom_bond_type
C38   C40   A    
C8    C26   S    
C41   C42   A    
C39   C41   A    
C48   H4    S    
C1    O1    A    
C42   C44   A    
C1    O4    A    
C28   C29   A    
C19   C21   S    
Cu2   N3    S    
Cu2   O4    S    
C5    C49   S    
C50   O14   D    
C45   H1    S    
C46   H2    S    
C17   C20   A    
C7    C9    A    
C18   C19   A    
Cu2   O2    S    
C3    H5    S    
C26   O6    A    
C14   N1    S    
Cu1   O5    S    
C51   O15   D    
C35   C43   A    
C43   C48   A    
C3    C13   A    
C44   C47   A    
C39   C45   A    
C12   H8    S    
C40   C42   A    
C29   H14   S    
C10   C52   S    
C30   H13   S    
C4    H6    S    
C27   C30   A    
C29   C31   A    
C41   C43   A    
C37   O11   S    
C16   H12   S    
C2    O2    A    
Cu2   O8    S    
C45   C47   A    
C46   C48   A    
C26   O7    A    
C31   C33   S    
C27   C31   A    
C25   O8    A    
C28   C32   A    
C4    C6    A    
C36   O10   S    
C9    C51   S    
C5    C7    A    
C50   H18   S    
C6    C8    A    
C25   O5    A    
C32   C34   S    
C15   C19   A    
Cu2   O6    S    
C49   H17   S    
C35   N1    A    
C16   C20   A    
C52   O16   D    
C15   H11   S    
C16   C18   A    
C9    C11   A    
C34   N3    T    
C2    O3    A    
C10   C12   A    
C33   N4    T    
C17   H9    S    
C18   H10   S    
C49   O13   D    
C38   N2    A    
C1    C23   S    
Cu1   N4    S    
C2    C24   S    
Cu1   O3    S    
C36   C44   A    
C40   C46   A    
C15   C17   A    
C20   C22   S    
C3    C5    A    
C6    C50   S    
C36   N2    A    
C7    C25   S    
C47   H3    S    
C28   H15   S    
C12   C14   A    
C37   C39   A    
C27   H16   S    
C30   C32   A    
C11   C13   A    
C37   N1    A    
C35   O9    S    
C52   H20   S    
Cu1   O7    S    
C4    C14   A    
C8    C10   A    
Cu1   Cu2   S    
Cu1   O1    S    
C21   C24   T    
C22   C23   T    
C51   H19   S    
C11   H7    S    
C38   O12   S    
C13   N2    S    
