data_mof_unit_20580.cif
_audit_creation_date              2012-12-10T17:01:35-0500
_audit_creation_method            fapswitch 2.2
_symmetry_space_group_name_H-M    P1
_symmetry_Int_Tables_number       1
_space_group_crystal_system       triclinic
_cell_length_a                    9.835389
_cell_length_b                    10.959209
_cell_length_c                    12.992863
_cell_angle_alpha                 90.057103
_cell_angle_beta                  75.705931
_cell_angle_gamma                 111.563333
_cell_volume                      1255.86297033

loop_
_atom_site_label
_atom_site_type_symbol
_atom_type_description
_atom_site_fract_x
_atom_site_fract_y
_atom_site_fract_z
_atom_type_partial_charge
C1    C     C_R   0.438036 0.252484 0.510379 0.817044
C2    C     C_R   0.562227 0.747781 0.490255 0.834905
C3    C     C_2   0.083277 0.511933 0.491530 -0.081588
C4    C     C_2   0.916746 0.488347 0.508696 -0.086446
C5    C     C_R   0.473379 0.495766 0.702784 0.809408
C6    C     C_R   0.526702 0.504508 0.297202 0.805100
C7    C     C_R   0.542361 0.507992 0.182857 -0.055687
C8    C     C_R   0.457872 0.492778 0.817103 -0.054035
C9    C     C_R   0.300124 0.460094 0.998141 -0.220385
C10   C     C_R   0.700209 0.541060 0.001811 -0.221173
C11   C     C_R   0.314930 0.463650 0.889040 -0.197211
C12   C     C_R   0.685356 0.537344 0.110927 -0.197309
C13   C     C_R   0.586152 0.518735 0.854837 -0.276273
C14   C     C_R   0.414150 0.482268 0.145096 -0.272590
C15   C     C_R   0.572242 0.515377 0.963869 0.178167
C16   C     C_R   0.428095 0.485761 0.036066 0.179086
C17   C     C_2   0.399852 0.109754 0.523071 -0.064387
C18   C     C_2   0.598991 0.890878 0.487017 -0.068438
C19   C     C_2   0.506807 0.068127 0.538095 -0.200652
C20   C     C_2   0.488193 0.929528 0.540210 -0.213209
Cu1   Cu    Cu3+1 0.647370 0.522180 0.481340 0.918107
Cu2   Cu    Cu3+1 0.352630 0.477820 0.518660 0.924838
H1    H     H_    0.303449 0.459351 0.200294 0.153620
H2    H     H_    0.696841 0.541621 0.799621 0.153147
H3    H     H_    0.785868 0.557748 0.138833 0.158070
H4    H     H_    0.214398 0.443210 0.861155 0.157828
H5    H     H_    0.189048 0.437254 0.052651 0.134541
H6    H     H_    0.811294 0.563937 0.947306 0.134617
H7    H     H_    0.378284 0.856991 0.582591 0.176372
H8    H     H_    0.616358 0.139284 0.542003 0.160613
H9    H     H_    0.833886 0.412166 0.570057 0.157976
H10   H     H_    0.166134 0.588267 0.430283 0.159492
H11   H     H_    0.950232 0.628234 0.396424 0.182603
H12   H     H_    0.049753 0.371813 0.603600 0.186227
N1    N     N_2   0.131210 0.444490 0.546730 -0.284456
N2    N     N_2   0.868790 0.555510 0.453270 -0.289148
O1    O     O_R   0.578710 0.332530 0.490040 -0.581992
O2    O     O_R   0.421290 0.667470 0.509960 -0.585701
O3    O     O_R   0.329810 0.295070 0.521560 -0.573853
O4    O     O_R   0.670190 0.704930 0.478440 -0.580156
O5    O     O_R   0.604230 0.515670 0.637800 -0.580216
O6    O     O_R   0.395770 0.484330 0.362200 -0.581278
O7    O     O_R   0.355330 0.478200 0.669330 -0.581693
O8    O     O_R   0.644670 0.521800 0.330670 -0.581572
C21   C     C_3   0.752826 0.993261 0.424370 -0.409443
C22   C     C_3   0.861244 0.940028 0.349566 -0.333305
C23   C     C_3   0.997746 0.052313 0.279277 -0.877195
H13   H     H_    0.960579 0.106575 0.226870 0.257014
H14   H     H_    0.060036 0.121940 0.329445 0.257336
H15   H     H_    0.075953 0.011458 0.228172 0.243834
H16   H     H_    0.905178 0.886227 0.396900 0.238460
H17   H     H_    0.800928 0.872439 0.297312 0.221997
H18   H     H_    0.730693 0.062193 0.374016 0.221073
H19   H     H_    0.811407 0.051016 0.481950 0.193947
C24   C     C_3   0.244138 0.015633 0.516864 -0.386411
C25   C     C_3   0.134875 0.968841 0.628688 -0.349340
C26   C     C_3   0.979171 0.872273 0.623418 -0.826189
H20   H     H_    0.926278 0.921725 0.580221 0.253385
H21   H     H_    0.989174 0.785846 0.582269 0.258575
H22   H     H_    0.904413 0.836850 0.705525 0.239930
H23   H     H_    0.180964 0.919612 0.678126 0.218000
H24   H     H_    0.121696 0.055199 0.668523 0.224101
H25   H     H_    0.196660 0.065918 0.469287 0.201639
H26   H     H_    0.252797 0.930013 0.473750 0.200278

loop_
_geom_bond_atom_site_label_1
_geom_bond_atom_site_label_2
_ccdc_geom_bond_type
C14   H1    S    
C5    C8    S    
C24   C25   S    
C4    N2    D    
C8    C13   A    
C22   H17   S    
C2    C18   S    
Cu1   O8    S    
C2    O2    A    
C1    C17   S    
C23   H13   S    
C3    N1    D    
C12   H3    S    
C20   H7    S    
C25   H24   S    
C24   H26   S    
C19   C20   S    
C5    O7    A    
C21   H18   S    
C23   H14   S    
Cu1   N2    S    
C6    O8    A    
C21   C22   S    
Cu2   N1    S    
C9    C11   A    
C26   H20   S    
Cu2   O6    S    
Cu1   O4    S    
C10   C12   A    
C8    C11   A    
Cu1   O5    S    
Cu2   O3    S    
Cu1   Cu2   S    
C17   C19   D    
C9    C16   A    
C21   H19   S    
Cu2   O7    S    
C6    C7    S    
C18   C20   D    
C10   C15   A    
C13   C15   A    
C3    H10   S    
C14   C16   A    
C7    C12   A    
C26   H21   S    
C4    H9    S    
C1    O3    A    
C15   C16   A    
Cu2   O2    S    
C18   C21   S    
C2    O4    A    
H11   N2    S    
Cu1   O1    S    
C25   C26   S    
C9    H5    S    
H12   N1    S    
C6    O6    A    
C10   H6    S    
C23   H15   S    
C17   C24   S    
C22   C23   S    
C26   H22   S    
C5    O5    A    
C11   H4    S    
C25   H23   S    
C19   H8    S    
C22   H16   S    
C7    C14   A    
C3    C4    S    
C13   H2    S    
C1    O1    A    
C24   H25   S    
