data_mof_unit_61760.cif
_audit_creation_date              2012-12-10T20:43:40-0500
_audit_creation_method            fapswitch 2.2
_symmetry_space_group_name_H-M    P1
_symmetry_Int_Tables_number       1
_space_group_crystal_system       triclinic
_cell_length_a                    10.83749
_cell_length_b                    19.167611
_cell_length_c                    19.211
_cell_angle_alpha                 94.322473
_cell_angle_beta                  91.996146
_cell_angle_gamma                 96.819123
_cell_volume                      3947.31211795

loop_
_atom_site_label
_atom_site_type_symbol
_atom_type_description
_atom_site_fract_x
_atom_site_fract_y
_atom_site_fract_z
_atom_type_partial_charge
C1    C     C_R   0.512743 0.690159 0.507359 0.964982
C2    C     C_R   0.509936 0.766228 0.502279 -0.340282
C3    C     C_R   0.622583 0.811684 0.503081 0.270990
C4    C     C_R   0.486376 0.309808 0.492278 0.858536
C5    C     C_R   0.621030 0.882399 0.489411 0.319277
C6    C     C_R   0.478258 0.507510 0.765815 -0.111471
C7    C     C_R   0.483773 0.445244 0.800400 0.287100
C8    C     C_R   0.474392 0.446767 0.873350 0.036770
C9    C     C_R   0.461484 0.510743 0.912058 0.258408
C10   C     C_R   0.451840 0.571440 0.877603 -0.275185
C11   C     C_R   0.461109 0.570666 0.805114 0.024411
C12   C     C_R   0.450239 0.203427 0.558637 -0.064841
C13   C     C_R   0.416308 0.464878 0.119353 0.123376
C14   C     C_R   0.413959 0.466381 0.192373 -0.284623
C15   C     C_R   0.528690 0.487622 0.088181 0.281784
C16   C     C_R   0.514148 0.492624 0.310897 0.813526
C17   C     C_R   0.521666 0.489532 0.234381 -0.039593
C18   C     C_R   0.634923 0.509610 0.202799 0.091771
C19   C     C_R   0.636962 0.507945 0.129818 -0.258125
C20   C     C_R   0.486597 0.506519 0.689090 0.885355
C21   C     C_R   0.835269 0.516316 0.516218 0.885783
C22   C     C_R   0.163766 0.485251 0.484520 0.858595
C23   C     C_R   0.441468 0.130157 0.562325 0.348311
C24   C     C_2   0.028073 0.479742 0.477274 -0.069137
C25   C     C_2   0.968572 0.520690 0.520779 -0.243951
C26   C     C_R   0.472642 0.232748 0.494461 -0.054360
C27   C     C_R   0.457551 0.086061 0.502763 0.241817
C28   C     C_R   0.475718 0.115293 0.438165 -0.238114
C29   C     C_R   0.482938 0.188418 0.433576 0.042346
C30   C     C_R   0.394996 0.863552 0.475566 0.323225
C31   C     C_R   0.395798 0.792558 0.488711 0.265993
C32   C     C_R   0.507790 0.908443 0.476169 0.017427
Cl1   Cl    Cl    0.495610 0.363655 0.753475 -0.624393
Cl2   Cl    Cl    0.253398 0.736215 0.483101 -0.459562
Cl3   Cl    Cl    0.253060 0.895714 0.454743 -0.401175
Cl4   Cl    Cl    0.766481 0.780996 0.522837 -0.431389
Cl5   Cl    Cl    0.414204 0.093213 0.642732 -0.516258
Cl6   Cl    Cl    0.761291 0.939760 0.490074 -0.411813
H1    H     H_    0.327547 0.450001 0.216580 0.171275
H2    H     H_    0.322752 0.392135 0.049488 0.204001
H3    H     H_    0.230847 0.426779 0.107822 0.184152
H4    H     H_    0.371495 0.653335 0.782680 0.216290
H5    H     H_    0.527622 0.672062 0.794073 0.202873
H6    H     H_    0.820901 0.546983 0.213529 0.194291
H7    H     H_    0.771732 0.485352 0.267103 0.180071
H8    H     H_    0.399215 0.347195 0.887881 0.233474
H9    H     H_    0.556626 0.362020 0.898936 0.238376
H10   H     H_    0.503163 0.178165 0.327561 0.202472
H11   H     H_    0.593377 0.245703 0.371113 0.173338
H12   H     H_    0.439805 0.620188 0.907559 0.175199
H13   H     H_    0.723227 0.523100 0.104949 0.158254
H14   H     H_    0.017567 0.557099 0.561437 0.161254
H15   H     H_    0.485134 0.081346 0.391471 0.187021
H16   H     H_    0.018981 0.410776 0.389092 0.212672
H17   H     H_    0.915648 0.389345 0.449365 0.189095
H18   H     H_    0.347468 0.234150 0.638806 0.244355
H19   H     H_    0.502685 0.240383 0.657710 0.281454
N1    N     N_2   0.455433 0.012786 0.510292 -0.040313
N2    N     N_3   0.473803 0.383292 0.908529 -0.424814
N3    N     N_3   0.503908 0.218084 0.367849 -0.416045
N4    N     N_2   0.509142 0.980387 0.464058 -0.090974
N5    N     N_2   0.454121 0.514887 0.985684 -0.130706
N6    N     N_2   0.537713 0.486643 0.014843 -0.155855
N7    N     N_3   0.959181 0.431629 0.424384 -0.458619
N8    N     N_3   0.435373 0.248604 0.619887 -0.372657
N9    N     N_3   0.306333 0.439236 0.076683 -0.422436
N10   N     N_3   0.456201 0.634753 0.771769 -0.406874
N11   N     N_3   0.747705 0.530228 0.244738 -0.391680
O1    O     O_3   0.500000 0.500000 0.500000 -0.521567
O2    O     O_R   0.783160 0.551820 0.473170 -0.598287
O3    O     O_R   0.222430 0.530340 0.530340 -0.625368
O4    O     O_R   0.771990 0.472690 0.551320 -0.647070
O5    O     O_R   0.222420 0.445150 0.445160 -0.652903
O6    O     O_R   0.435070 0.449940 0.339290 -0.649439
O7    O     O_R   0.419380 0.543640 0.654290 -0.628162
O8    O     O_R   0.586230 0.658380 0.469080 -0.606032
O9    O     O_R   0.559310 0.348040 0.537340 -0.612732
O10   O     O_R   0.435110 0.654980 0.544320 -0.597755
O11   O     O_R   0.419350 0.338590 0.449260 -0.627278
O12   O     O_R   0.586210 0.538520 0.349230 -0.610702
O13   O     O_R   0.559330 0.467910 0.657200 -0.592401
Zn1   Zn    Zn3+2 0.396020 0.434560 0.434560 0.984564
Zn2   Zn    Zn3+2 0.611960 0.561120 0.448760 1.048627
Zn3   Zn    Zn3+2 0.595990 0.448060 0.560420 1.023967
Zn4   Zn    Zn3+2 0.396040 0.556260 0.556260 1.038088

loop_
_geom_bond_atom_site_label_1
_geom_bond_atom_site_label_2
_ccdc_geom_bond_type
H8    N2    S    
O5    Zn1   S    
C7    C8    A    
C15   C19   A    
C12   C23   A    
H11   N3    S    
C30   Cl3   S    
C16   O6    A    
C28   C29   A    
C32   N4    S    
C18   C19   A    
C8    N2    S    
C30   C31   A    
C18   N11   S    
H18   N8    S    
C1    C2    S    
O1    Zn1   S    
C13   C14   A    
C14   H1    S    
O3    Zn4   S    
O7    Zn4   S    
C8    C9    A    
C23   C27   A    
C9    C10   A    
C5    C32   A    
N1    N4    D    
C24   N7    S    
H2    N9    S    
C20   O13   A    
C1    O10   A    
C7    Cl1   S    
C14   C17   A    
O6    Zn1   S    
O12   Zn2   S    
O8    Zn2   S    
C11   N10   S    
H10   N3    S    
C13   N9    S    
C21   O4    A    
C9    N5    S    
C24   C25   D    
C4    O11   A    
C6    C11   A    
C16   C17   S    
O9    Zn3   S    
C23   Cl5   S    
C20   O7    A    
C12   C26   A    
C2    C31   A    
C16   O12   A    
N5    N6    D    
O1    Zn2   S    
C29   N3    S    
H17   N7    S    
H7    N11   S    
C17   C18   A    
C31   Cl2   S    
O4    Zn3   S    
O2    Zn2   S    
C6    C7    A    
O10   Zn4   S    
C13   C15   A    
H4    N10   S    
C22   C24   S    
H6    N11   S    
C10   H12   S    
C22   O3    A    
O13   Zn3   S    
O1    Zn4   S    
C21   C25   S    
C1    O8    A    
H19   N8    S    
C3    C5    A    
C27   N1    S    
O11   Zn1   S    
C4    C26   S    
C28   H15   S    
H3    N9    S    
C6    C20   S    
C12   N8    S    
C21   O2    A    
C2    C3    A    
C25   H14   S    
C4    O9    A    
O1    Zn3   S    
C30   C32   A    
H16   N7    S    
C3    Cl4   S    
C10   C11   A    
H9    N2    S    
C19   H13   S    
C26   C29   A    
H5    N10   S    
C27   C28   A    
C15   N6    S    
C22   O5    A    
C5    Cl6   S    
