data_mof_unit_40776.cif
_audit_creation_date              2013-03-05T15:45:30-0500
_audit_creation_method            fapswitch 2.2
_symmetry_space_group_name_H-M    P1
_symmetry_Int_Tables_number       1
_space_group_crystal_system       triclinic
_cell_length_a                    27.739577
_cell_length_b                    10.729007
_cell_length_c                    10.005033
_cell_angle_alpha                 89.98794
_cell_angle_beta                  90.254267
_cell_angle_gamma                 89.97863
_cell_volume                      2977.64947475

loop_
_atom_site_label
_atom_site_type_symbol
_atom_site_description
_atom_site_fract_x
_atom_site_fract_y
_atom_site_fract_z
_atom_type_partial_charge
O1    O     O_R   0.499990 0.319060 0.613040 -0.617629
O2    O     O_R   0.500010 0.319100 0.386900 -0.612974
C1    C     C_R   0.501174 0.262616 0.499865 0.942685
O3    O     O_R   0.428750 0.500000 0.613050 -0.618712
O4    O     O_R   0.428760 0.500040 0.386920 -0.622775
C2    C     C_R   0.406023 0.499548 0.499657 0.890243
Zn1   Zn    Zn3+2 0.499990 0.499970 0.650990 0.949958
Zn2   Zn    Zn3+2 0.500010 0.500030 0.349010 0.947962
O5    O     O_R   0.499990 0.680900 0.613100 -0.615048
O6    O     O_R   0.500010 0.680940 0.386960 -0.611783
O7    O     O_R   0.571240 0.499960 0.613080 -0.619223
O8    O     O_R   0.571250 0.500000 0.386950 -0.619076
C3    C     C_R   0.498946 0.737387 0.499877 0.939349
C4    C     C_R   0.593970 0.499546 0.500351 0.871677
C5    C     C_R   0.178579 0.370036 0.468118 0.491488
O9    O     O_2   0.205513 0.266986 0.449437 -0.567876
N1    N     N_R   0.201507 0.480451 0.491978 -0.344599
C6    C     C_R   0.177002 0.588996 0.510002 0.555042
C7    C     C_R   0.278473 0.473158 0.376625 -0.154835
C8    C     C_R   0.328412 0.479382 0.377616 -0.214062
C9    C     C_R   0.327687 0.506166 0.618649 -0.285060
C10   C     C_R   0.277427 0.499096 0.618420 0.268298
C11   C     C_R   0.252920 0.482949 0.496199 0.302426
C12   C     C_R   0.101713 0.476529 0.488820 -0.096683
C13   C     C_R   0.127622 0.364513 0.465033 -0.028597
C14   C     C_R   0.101600 0.252551 0.440931 0.196897
C15   C     C_R   0.126769 0.589140 0.509523 -0.060978
C16   C     C_R   0.353355 0.495691 0.498617 -0.064122
H1    H     H_    0.346532 0.518963 0.712734 0.162888
C17   C     C_R   0.646626 0.495926 0.501516 -0.040870
C18   C     C_R   0.974274 0.370421 0.449293 0.021293
C19   C     C_R   0.975060 0.579555 0.546629 0.028762
C20   C     C_R   0.949225 0.474506 0.499864 0.068466
C21   C     C_R   0.947784 0.273415 0.389512 -0.223064
C22   C     C_R   0.897453 0.272777 0.387494 0.197342
C23   C     C_R   0.871891 0.373051 0.447573 -0.026474
C24   C     C_R   0.898192 0.473614 0.504655 -0.138809
C25   C     C_R   0.873619 0.573848 0.566693 -0.050620
C26   C     C_R   0.823117 0.576267 0.561197 0.507408
N2    N     N_R   0.798422 0.479454 0.505766 -0.360514
C27   C     C_R   0.821031 0.378426 0.452016 0.507759
C28   C     C_R   0.722398 0.498467 0.382772 -0.099975
C29   C     C_R   0.672350 0.504070 0.381276 -0.214804
C30   C     C_R   0.671603 0.482255 0.623061 -0.213545
C31   C     C_R   0.721597 0.476165 0.624159 -0.103377
C32   C     C_R   0.747007 0.484238 0.504131 0.321123
O10   O     O_2   0.793822 0.284327 0.404089 -0.565269
C33   C     C_R   0.025239 0.366750 0.459067 0.026597
C34   C     C_R   0.050738 0.476887 0.490980 0.035558
C35   C     C_R   0.025426 0.587616 0.524761 0.002557
C36   C     C_R   0.051274 0.255630 0.439370 -0.222339
H2    H     H_    0.653894 0.514853 0.286352 0.160151
H3    H     H_    0.742142 0.505387 0.289927 0.137565
H4    H     H_    0.965917 0.198575 0.338199 0.143268
H5    H     H_    0.032785 0.167863 0.427519 0.144379
O11   O     O_2   0.201448 0.696509 0.528574 -0.561100
C37   C     C_R   0.101510 0.700634 0.525445 -0.186440
H6    H     H_    0.347425 0.470985 0.283734 0.167552
H7    H     H_    0.259430 0.461451 0.282722 0.148882
H8    H     H_    0.120858 0.788151 0.529573 0.198539
C38   C     C_R   0.950247 0.669541 0.621329 -0.262281
C39   C     C_R   0.900312 0.668097 0.632249 0.234720
O12   O     O_2   0.798472 0.675611 0.607659 -0.526708
C40   C     C_R   0.051332 0.702024 0.532797 0.186842
H9    H     H_    0.969393 0.738082 0.679595 0.185862
H10   H     H_    0.652593 0.475416 0.717096 0.163501
H11   H     H_    0.740695 0.465118 0.718070 0.135905
C41   C     C_2   0.502216 0.932988 0.387164 -0.152520
C42   C     C_2   0.494515 0.868965 0.499425 -0.325856
H12   H     H_    0.510166 0.887046 0.292988 0.173814
H13   H     H_    0.483647 0.911905 0.592621 0.151900
C43   C     C_2   0.499408 0.066944 0.386884 -0.150880
C44   C     C_2   0.506043 0.131111 0.499698 -0.325419
H14   H     H_    0.492144 0.112704 0.291987 0.174360
H15   H     H_    0.516345 0.088297 0.593737 0.151506
C45   C     C_2   0.528869 0.568668 0.925191 -0.126925
N3    N     N_2   0.500520 0.501330 0.852150 -0.193172
H16   H     H_    0.553514 0.631893 0.875625 0.161691
H17   H     H_    0.479026 0.436301 0.897624 0.162737
C46   C     C_2   0.530728 0.563082 0.075412 -0.129472
N4    N     N_2   0.500540 0.501360 0.147810 -0.193663
H18   H     H_    0.558785 0.616008 0.125539 0.158002
H19   H     H_    0.472288 0.456797 0.101798 0.160883
N5    N     N_2   0.877698 0.760472 0.712764 -0.247266
H20   H     H_    0.894510 0.846225 0.709866 0.221462
C47   C     C_3   0.868277 0.720425 0.848253 -0.705468
H21   H     H_    0.902757 0.702492 0.901958 0.210448
H22   H     H_    0.846026 0.634318 0.848567 0.250549
H23   H     H_    0.848204 0.794521 0.901911 0.240813
N6    N     N_2   0.027082 0.819128 0.526366 -0.316772
H24   H     H_    0.026556 0.856774 0.431534 0.228064
C48   C     C_3   0.039486 0.909384 0.628678 -0.832966
H25   H     H_    0.012554 0.985949 0.627490 0.247718
H26   H     H_    0.075544 0.950283 0.609939 0.245379
H27   H     H_    0.039169 0.865319 0.729192 0.253740
N7    N     N_2   0.251564 0.511287 0.740234 -0.297958
H28   H     H_    0.268295 0.568477 0.809138 0.230928
C49   C     C_3   0.236896 0.394172 0.798918 -0.768316
H29   H     H_    0.215520 0.412471 0.890418 0.239762
H30   H     H_    0.269088 0.337923 0.826622 0.239246
H31   H     H_    0.214030 0.340390 0.728357 0.265292
C50   C     C_3   0.125450 0.127998 0.415198 -0.786603
H32   H     H_    0.098861 0.052720 0.395681 0.199756
H33   H     H_    0.148518 0.133801 0.325040 0.269689
H34   H     H_    0.146993 0.099239 0.503762 0.267352
C51   C     C_3   0.873108 0.163533 0.319376 -0.779370
H35   H     H_    0.899395 0.096895 0.275968 0.200878
H36   H     H_    0.851407 0.110284 0.392802 0.273078
H37   H     H_    0.850117 0.197024 0.235641 0.260858

loop_
_geom_bond_atom_site_label_1
_geom_bond_atom_site_label_2
_geom_bond_distance
_ccdc_geom_bond_type
C35   C40   1.424703 A    
C30   H10   1.083069 S    
C7    C8    1.386920 A    
C12   C15   1.408971 A    
C40   N6    1.426243 S    
C31   C32   1.397849 A    
Zn1   O7    2.014162 S    
N1    C11   1.426875 S    
C51   H36   1.110152 S    
C23   C24   1.421159 A    
N5    C47   1.446889 S    
C19   C38   1.403149 A    
C28   H3    1.082986 S    
O4    C2    1.294753 A    
O7    C4    1.294590 A    
C47   H22   1.111253 S    
C29   H2    1.083084 S    
C5    C13   1.415009 A    
C51   H35   1.110903 S    
C5    O9    1.347684 S    
C50   H34   1.110186 S    
C5    N1    1.365347 A    
C21   C22   1.396228 A    
C28   C32   1.398604 A    
C42   H13   1.084038 S    
O5    C3    1.284823 A    
N5    H20   1.032107 S    
C33   C36   1.407998 A    
C2    C16   1.461578 S    
C22   C23   1.423035 A    
C41   C42   1.334502 D    
N7    C49   1.446151 S    
C31   H11   1.083047 S    
C18   C20   1.410210 A    
C6    O11   1.350750 S    
Zn1   N3    2.012657 S    
C9    C10   1.396278 A    
C44   H15   1.084082 S    
C17   C30   1.404542 A    
C23   C27   1.412886 A    
C38   C39   1.390061 A    
C4    C17   1.461132 S    
O3    Zn1   2.010639 S    
N4    H19   1.025613 S    
N3    H17   1.025603 S    
Zn2   N4    2.013180 S    
C12   C13   1.420745 A    
C43   H14   1.086796 S    
C15   C37   1.395609 A    
C26   N2    1.361303 A    
C47   H21   1.111679 S    
C46   N4    1.292299 D    
C37   H8    1.082419 S    
C8    C16   1.402744 A    
C7    H7    1.083128 S    
C13   C14   1.421767 A    
C9    H1    1.083492 S    
O6    C3    1.282388 A    
C48   H27   1.111211 S    
C20   C24   1.416699 A    
C41   C43   1.439295 S    
O1    C1    1.284746 A    
N2    C32   1.427142 S    
C24   C25   1.417695 A    
N6    C48   1.449647 S    
Zn2   O8    2.010641 S    
N7    H28   1.031839 S    
C48   H26   1.109115 S    
N1    C6    1.360681 A    
C27   O10   1.347751 S    
C18   C21   1.406373 A    
C45   N3    1.292265 D    
C50   H33   1.110017 S    
C19   C35   1.417787 A    
C46   H18   1.084758 S    
N2    C27   1.363885 A    
C9    C16   1.403353 A    
O8    C4    1.295439 A    
C21   H4    1.078644 S    
C49   H30   1.111655 S    
C18   C33   1.417222 A    
C34   C35   1.421360 A    
C17   C29   1.404162 A    
O3    C2    1.295462 A    
C28   C29   1.389606 A    
C8    H6    1.083025 S    
C30   C31   1.388327 A    
C7    C11   1.397223 A    
C37   C40   1.394245 A    
C12   C34   1.414284 A    
Zn1   O5    1.977790 S    
C39   N5    1.424447 S    
C33   C34   1.413280 A    
O1    Zn1   1.977852 S    
C10   N7    1.422999 S    
O2    Zn2   1.977791 S    
C6    C15   1.393416 A    
C45   C46   1.504802 S    
C45   H16   1.084740 S    
C43   C44   1.334309 D    
C47   H23   1.110295 S    
O4    Zn2   2.014159 S    
C49   H31   1.109122 S    
C26   O12   1.349814 S    
C19   C20   1.414444 A    
O2    C1    1.282597 A    
C22   C51   1.513660 S    
C14   C36   1.396410 A    
C14   C50   1.513517 S    
N6    H24   1.031158 S    
C25   C26   1.401978 A    
C3    C42   1.417012 S    
C48   H25   1.110198 S    
C36   H5    1.078738 S    
C50   H32   1.110711 S    
C1    C44   1.417326 S    
C38   H9    1.077220 S    
Zn2   O6    1.977851 S    
C49   H29   1.110419 S    
C41   H12   1.086902 S    
C10   C11   1.407212 A    
C25   C39   1.413328 A    
C51   H37   1.110256 S    
