data_mof_unit_19219.cif
_audit_creation_date              2012-12-10T18:59:14-0500
_audit_creation_method            fapswitch 2.2
_symmetry_space_group_name_H-M    P1
_symmetry_Int_Tables_number       1
_space_group_crystal_system       triclinic
_cell_length_a                    10.75184
_cell_length_b                    10.844461
_cell_length_c                    9.570979
_cell_angle_alpha                 90.617554
_cell_angle_beta                  90.356589
_cell_angle_gamma                 90.372007
_cell_volume                      1115.84569893

loop_
_atom_site_label
_atom_site_type_symbol
_atom_type_description
_atom_site_fract_x
_atom_site_fract_y
_atom_site_fract_z
_atom_type_partial_charge
C1    C     C_R   0.497276 0.262468 0.498960 0.788543
C2    C     C_R   0.065509 0.386031 0.552289 0.113922
C3    C     C_R   0.128823 0.489439 0.498019 -0.067730
C4    C     C_R   0.064025 0.587410 0.439750 -0.204073
C5    C     C_R   0.935722 0.587125 0.440299 -0.217450
C6    C     C_R   0.870892 0.488891 0.499137 -0.053997
C7    C     C_R   0.513019 0.066060 0.621641 0.087423
C8    C     C_R   0.498073 0.128916 0.496249 -0.230331
C9    C     C_R   0.485491 0.060803 0.369999 0.428892
C10   C     C_R   0.492470 0.932777 0.372716 -0.293542
C11   C     C_R   0.500109 0.870667 0.500230 -0.199272
C12   C     C_R   0.262634 0.497443 0.499514 0.769829
C13   C     C_R   0.511767 0.938465 0.624494 0.079537
C14   C     C_3   0.428595 0.937234 0.749677 -0.218446
C15   C     C_3   0.433899 0.076901 0.748584 -0.481190
C16   C     C_R   0.608905 0.501135 0.074821 0.268170
C17   C     C_R   0.392153 0.490656 0.073183 -0.072815
C18   C     C_R   0.392105 0.490746 0.925065 -0.081771
C19   C     C_R   0.609765 0.499050 0.927348 0.229455
C20   C     C_3   0.711253 0.594838 0.925817 -0.267618
C21   C     C_3   0.707069 0.598126 0.084561 -0.520986
C22   C     C_R   0.498606 0.737440 0.500575 0.823155
C23   C     C_R   0.737252 0.496462 0.500054 0.776442
C24   C     C_R   0.129877 0.282908 0.604055 -0.288129
C25   C     C_R   0.065265 0.181567 0.655704 -0.228063
C26   C     C_R   0.935434 0.179404 0.654280 0.512636
C27   C     C_R   0.869981 0.281194 0.604229 -0.258228
C28   C     C_R   0.934073 0.385308 0.552302 0.053024
Cu1   Cu    Cu3+1 0.499990 0.499980 0.640670 0.944064
Cu2   Cu    Cu3+1 0.500010 0.500020 0.359330 0.958144
H1    H     H_    0.113198 0.665555 0.396247 0.139271
H2    H     H_    0.342335 0.119458 0.726869 0.176647
H3    H     H_    0.486280 0.120545 0.837005 0.225931
H4    H     H_    0.304275 0.483857 0.126565 0.152569
H5    H     H_    0.304096 0.484220 0.870585 0.163052
H6    H     H_    0.683750 0.681804 0.874560 0.185497
H7    H     H_    0.792266 0.563995 0.137886 0.201415
H8    H     H_    0.671400 0.686353 0.128162 0.223739
H9    H     H_    0.230279 0.279263 0.604017 0.149981
H10   H     H_    0.116020 0.103651 0.696126 0.146298
H11   H     H_    0.769442 0.277208 0.605619 0.151632
H12   H     H_    0.886583 0.664941 0.396762 0.136646
H13   H     H_    0.483335 0.882441 0.274773 0.207513
H14   H     H_    0.334581 0.898086 0.727375 0.142823
N1    N     N_R   0.500790 0.500930 0.147930 -0.177462
N2    N     N_R   0.500790 0.500890 0.852020 -0.193688
O1    O     O_R   0.500000 0.319640 0.618810 -0.582295
O2    O     O_R   0.500010 0.319680 0.381230 -0.532530
O3    O     O_R   0.319640 0.499980 0.618820 -0.587816
O4    O     O_R   0.319650 0.500020 0.381230 -0.596167
O5    O     O_R   0.499990 0.680320 0.618770 -0.577428
O6    O     O_R   0.500000 0.680360 0.381190 -0.580488
O7    O     O_R   0.680350 0.499980 0.618770 -0.581289
O8    O     O_R   0.680360 0.500020 0.381180 -0.581643
C29   C     C_1   0.487533 0.886186 0.874992 0.312312
N3    N     N_1   0.532669 0.847409 0.975154 -0.318709
C30   C     C_1   0.830830 0.546690 0.876274 0.304032
N4    N     N_1   0.926020 0.509696 0.839714 -0.287764
O9    O     O_3   0.872529 0.080458 0.710461 -0.574926
C31   C     C_3   0.855478 0.989278 0.605460 0.044391
H15   H     H_    0.941545 0.973045 0.543433 0.126565
H16   H     H_    0.779124 0.016982 0.533563 0.153265
C32   C     C_3   0.820170 0.867887 0.673594 -0.745147
H17   H     H_    0.740982 0.881691 0.745657 0.257642
H18   H     H_    0.792979 0.798898 0.592299 0.187690
H19   H     H_    0.900399 0.831973 0.734042 0.242727
O10   O     O_3   0.459540 0.116514 0.243932 -0.547373
C33   C     C_3   0.328848 0.127368 0.230292 0.096012
H20   H     H_    0.294863 0.204654 0.296942 0.145905
H21   H     H_    0.278646 0.041116 0.259781 0.121449
C34   C     C_3   0.295717 0.154057 0.079057 -0.783783
H22   H     H_    0.195424 0.176721 0.070208 0.205358
H23   H     H_    0.314464 0.071409 0.013458 0.245087
H24   H     H_    0.351626 0.232851 0.040556 0.253463

loop_
_geom_bond_atom_site_label_1
_geom_bond_atom_site_label_2
_ccdc_geom_bond_type
C8    C9    A    
C5    H12   S    
C32   H18   S    
C16   C21   S    
C1    C8    S    
Cu2   N1    S    
C19   C20   S    
C29   N3    T    
C12   O3    A    
C19   N2    A    
C7    C8    A    
Cu1   O3    S    
Cu2   O8    S    
C26   C27   A    
Cu1   O1    S    
C31   C32   S    
Cu2   O2    S    
C17   N1    A    
C16   C19   A    
C25   H10   S    
C5    C6    A    
C24   H9    S    
C31   H16   S    
C3    C12   S    
C6    C28   A    
C21   H8    S    
C33   H20   S    
C18   H5    S    
C7    C15   S    
C14   C29   S    
Cu2   O4    S    
C32   H19   S    
O9    C31   S    
C13   C14   S    
C18   N2    A    
C9    C10   A    
C23   O7    A    
O10   C33   S    
C15   H2    S    
C24   C25   A    
C34   H23   S    
C1    O1    A    
C25   C26   A    
C31   H15   S    
C9    O10   S    
Cu1   Cu2   S    
C27   H11   S    
C17   C18   A    
C2    C24   A    
C17   H4    S    
C3    C4    A    
C23   O8    A    
C14   H14   S    
Cu1   O5    S    
Cu2   O6    S    
C10   H13   S    
C4    C5    A    
C16   N1    A    
C34   H24   S    
C12   O4    A    
C1    O2    A    
C11   C22   S    
Cu1   N2    S    
C2    C3    A    
C34   H22   S    
C11   C13   A    
C30   N4    T    
Cu1   O7    S    
C33   C34   S    
C6    C23   S    
C22   O6    A    
C4    H1    S    
C10   C11   A    
C32   H17   S    
C20   H6    S    
C7    C13   A    
C21   H7    S    
C20   C21   S    
C33   H21   S    
C27   C28   A    
C14   C15   S    
C26   O9    S    
C2    C28   A    
C20   C30   S    
C15   H3    S    
C22   O5    A    
