data_mof_unit_30670.cif
_audit_creation_date              2012-12-10T19:22:00-0500
_audit_creation_method            fapswitch 2.2
_symmetry_space_group_name_H-M    P1
_symmetry_Int_Tables_number       1
_space_group_crystal_system       triclinic
_cell_length_a                    8.73772
_cell_length_b                    17.734032
_cell_length_c                    16.451379
_cell_angle_alpha                 89.786263
_cell_angle_beta                  97.970227
_cell_angle_gamma                 90.155728
_cell_volume                      2524.57488308

loop_
_atom_site_label
_atom_site_type_symbol
_atom_type_description
_atom_site_fract_x
_atom_site_fract_y
_atom_site_fract_z
_atom_type_partial_charge
C1    C     C_R   0.499764 0.355236 0.500180 0.826756
C2    C     C_R   0.500266 0.644764 0.499823 0.830112
C3    C     C_1   0.500883 0.966221 0.499441 0.124824
C4    C     C_1   0.500583 0.033786 0.500734 0.119846
C5    C     C_R   0.602311 0.548280 0.835644 0.351547
C6    C     C_R   0.397395 0.451726 0.164410 0.258391
C7    C     C_R   0.598267 0.546780 0.749308 0.000538
C8    C     C_R   0.401530 0.453280 0.250737 0.005397
C9    C     C_R   0.402983 0.453547 0.736586 0.068638
C10   C     C_R   0.597136 0.546347 0.263361 0.078625
C11   C     C_R   0.402172 0.453229 0.822225 -0.265921
C12   C     C_R   0.597813 0.546627 0.177706 -0.272042
C13   C     C_R   0.502107 0.500765 0.873184 -0.010394
C14   C     C_R   0.497620 0.499162 0.126797 -0.003759
C15   C     C_1   0.500257 0.500105 0.962763 0.166217
C16   C     C_1   0.499276 0.499803 0.037208 0.134805
C17   C     C_R   0.203300 0.499984 0.479116 0.897399
C18   C     C_R   0.796699 0.500014 0.520884 0.896766
C19   C     C_2   0.037750 0.500030 0.467432 -0.354968
C20   C     C_2   0.962249 0.499967 0.532567 -0.350886
C21   C     C_R   0.499013 0.846395 0.571496 -0.147826
C22   C     C_R   0.502802 0.153598 0.428694 -0.145291
C23   C     C_R   0.498879 0.767905 0.572341 -0.158975
C24   C     C_R   0.502487 0.232086 0.427792 -0.160312
C25   C     C_R   0.500773 0.727685 0.499204 -0.123020
C26   C     C_R   0.499616 0.272316 0.500836 -0.101628
C27   C     C_R   0.503223 0.767237 0.425209 -0.232569
C28   C     C_R   0.496710 0.232779 0.574801 -0.256803
C29   C     C_R   0.503525 0.846097 0.423851 0.447394
C30   C     C_R   0.497314 0.153918 0.576266 0.394135
C31   C     C_R   0.501207 0.885581 0.497775 -0.029570
C32   C     C_R   0.500282 0.114426 0.502398 -0.010468
Cu1   Cu    Cu3+1 0.499990 0.499980 0.580420 0.967610
Cu2   Cu    Cu3+1 0.500010 0.500020 0.419580 0.964835
H1    H     H_    0.977757 0.500140 0.404932 0.180918
H2    H     H_    0.022243 0.499858 0.595067 0.183936
H3    H     H_    0.497138 0.738792 0.630200 0.185372
H4    H     H_    0.504581 0.261190 0.369956 0.184443
H5    H     H_    0.504952 0.736637 0.368544 0.207839
H6    H     H_    0.493800 0.263412 0.631335 0.187349
H7    H     H_    0.674263 0.583149 0.720237 0.170351
H8    H     H_    0.325395 0.417009 0.279831 0.169135
H9    H     H_    0.325378 0.416459 0.698363 0.146436
H10   H     H_    0.674918 0.583384 0.301548 0.141059
H11   H     H_    0.323676 0.415893 0.848512 0.210590
H12   H     H_    0.676395 0.583881 0.151367 0.187103
N1    N     N_R   0.499960 0.499970 0.701210 -0.203643
N2    N     N_R   0.500040 0.500030 0.298790 -0.199375
O1    O     O_R   0.499990 0.391240 0.567930 -0.586538
O2    O     O_R   0.500010 0.608760 0.432070 -0.587025
O3    O     O_R   0.500000 0.391270 0.432120 -0.586179
O4    O     O_R   0.500000 0.608730 0.567880 -0.585706
O5    O     O_R   0.274830 0.499990 0.552240 -0.580728
O6    O     O_R   0.725170 0.500010 0.447760 -0.582190
O7    O     O_R   0.274840 0.500020 0.416420 -0.586163
O8    O     O_R   0.725160 0.499980 0.583580 -0.582491
H13   H     H_    0.497327 0.876649 0.628498 0.208030
H14   H     H_    0.505041 0.123333 0.371745 0.205305
S1    S     S_3+6 0.506808 0.893962 0.329543 0.026852
O9    O     O_2   0.365244 0.942525 0.312190 -0.259552
O10   O     O_2   0.648253 0.943187 0.335950 -0.266700
O11   O     O_3   0.510037 0.832230 0.252415 -0.519673
H15   H     H_    0.512016 0.863812 0.202781 0.402946
S2    S     S_3+6 0.493477 0.106016 0.670551 0.047460
O12   O     O_2   0.348266 0.059635 0.665099 -0.223097
O13   O     O_2   0.630285 0.054185 0.686606 -0.266485
O14   O     O_3   0.497098 0.167128 0.748775 -0.472230
H16   H     H_    0.604944 0.185889 0.758783 0.360451
S3    S     S_3+6 0.732659 0.609485 0.895102 0.017501
O15   O     O_2   0.833713 0.649975 0.842125 -0.265942
O16   O     O_2   0.642214 0.666163 0.936576 -0.264451
O17   O     O_3   0.843739 0.558774 0.966987 -0.526824
H17   H     H_    0.903471 0.596598 0.002562 0.376172
S4    S     S_3+6 0.266449 0.390651 0.105062 0.036262
O18   O     O_2   0.356297 0.334351 0.062790 -0.206871
O19   O     O_2   0.166523 0.349321 0.157984 -0.263678
O20   O     O_3   0.153870 0.440850 0.033355 -0.481227
H18   H     H_    0.104546 0.479358 0.064554 0.351853

loop_
_geom_bond_atom_site_label_1
_geom_bond_atom_site_label_2
_ccdc_geom_bond_type
C30   S2    S    
C27   C29   A    
C19   C20   D    
O20   H18   S    
Cu1   O4    S    
C21   C31   A    
Cu2   O3    S    
C22   C32   A    
C8    H8    S    
C28   H6    S    
Cu1   O1    S    
C15   C16   T    
C18   C20   S    
S3    O16   D    
C5    S3    S    
C2    O2    A    
C29   S1    S    
C27   H5    S    
S4    O20   S    
C24   H4    S    
C17   O7    A    
C5    C13   A    
C18   O8    A    
Cu1   O8    S    
C23   C25   A    
C9    H9    S    
S1    O9    D    
C10   C12   A    
C6    S4    S    
Cu1   O5    S    
Cu2   O2    S    
S1    O10   D    
S4    O18   D    
C10   H10   S    
O14   H16   S    
S2    O14   S    
C12   H12   S    
C5    C7    A    
C6    C8    A    
C23   H3    S    
C7    N1    A    
S3    O17   S    
C8    N2    A    
C21   H13   S    
O11   H15   S    
C6    C14   A    
C1    O3    A    
Cu1   Cu2   S    
C3    C31   S    
C9    C11   A    
C4    C32   S    
C2    O4    A    
C12   C14   A    
Cu2   O6    S    
C13   C15   S    
C10   N2    A    
C1    C26   S    
Cu1   N1    S    
C22   C24   A    
C11   H11   S    
Cu2   N2    S    
S4    O19   D    
C3    C4    T    
C17   O5    A    
S1    O11   S    
C24   C26   A    
O17   H17   S    
C22   H14   S    
C9    N1    A    
C25   C27   A    
C26   C28   A    
S2    O12   D    
C21   C23   A    
C29   C31   A    
C19   H1    S    
C30   C32   A    
C11   C13   A    
C28   C30   A    
C17   C19   S    
C2    C25   S    
C14   C16   S    
C7    H7    S    
S3    O15   D    
C18   O6    A    
C20   H2    S    
Cu2   O7    S    
C1    O1    A    
S2    O13   D    
