data_mof_unit_35837.cif
_audit_creation_date              2012-12-11T14:43:40-0500
_audit_creation_method            fapswitch 2.2
_symmetry_space_group_name_H-M    P1
_symmetry_Int_Tables_number       1
_space_group_crystal_system       triclinic
_cell_length_a                    20.867701
_cell_length_b                    7.098775
_cell_length_c                    16.344344
_cell_angle_alpha                 90.673013
_cell_angle_beta                  92.466601
_cell_angle_gamma                 91.146895
_cell_volume                      2418.25075623

loop_
_atom_site_label
_atom_site_type_symbol
_atom_type_description
_atom_site_fract_x
_atom_site_fract_y
_atom_site_fract_z
_atom_type_partial_charge
O1    O     O_R   0.564840 0.505290 0.579830 -0.514668
O2    O     O_R   0.435160 0.005290 0.420170 -0.514226
O3    O     O_R   0.556720 0.179930 0.409350 -0.541405
O4    O     O_R   0.443280 0.679930 0.590650 -0.533215
C1    C     C_R   0.570220 0.345245 0.380831 0.697319
C2    C     C_R   0.429447 0.844490 0.618987 0.735904
O5    O     O_R   0.572280 0.175810 0.578530 -0.547481
O6    O     O_R   0.427720 0.675810 0.421470 -0.554759
O7    O     O_R   0.450830 0.001920 0.590540 -0.533497
O8    O     O_R   0.549170 0.501920 0.409460 -0.539840
C3    C     C_R   0.590098 0.346837 0.604739 0.725183
C4    C     C_R   0.409963 0.841372 0.394641 0.734799
O9    O     O_3   0.460130 0.338030 0.503750 -0.367041
O10   O     O_3   0.539870 0.838030 0.496250 -0.374422
V1    V     V_3+5 0.507400 0.064560 0.499310 1.440351
V2    V     V_3+5 0.492600 0.564560 0.500690 1.440823
C5    C     C_R   0.144057 0.927333 0.167130 -0.055568
C6    C     C_R   0.858196 0.397098 0.831022 -0.050262
C7    C     C_R   0.355374 0.838918 0.331963 -0.113778
C8    C     C_R   0.643487 0.368022 0.668208 -0.128291
C9    C     C_R   0.297380 0.685878 0.215015 -0.166080
C10   C     C_R   0.688918 0.534224 0.789995 -0.224308
C11   C     C_R   0.350978 0.697631 0.269309 0.142230
C12   C     C_R   0.636729 0.494833 0.734816 0.187983
C13   C     C_R   0.305518 0.971032 0.336377 0.097659
C14   C     C_R   0.702951 0.277413 0.659605 0.077105
C15   C     C_R   0.251407 0.958363 0.280124 0.102867
C16   C     C_R   0.754992 0.317291 0.716293 0.156256
C17   C     C_R   0.247257 0.812390 0.220155 0.063218
C18   C     C_R   0.747932 0.448313 0.781139 0.068825
C19   C     C_R   0.193397 0.796075 0.164981 -0.212930
C20   C     C_R   0.799761 0.489484 0.837347 -0.209596
C21   C     C_R   0.148698 0.073048 0.226102 -0.156812
C22   C     C_R   0.864825 0.266774 0.766787 -0.188464
C23   C     C_R   0.201089 0.087601 0.282233 -0.173177
C24   C     C_R   0.814330 0.228752 0.709699 -0.138038
H1    H     H_    0.190883 0.685188 0.118679 0.116926
H2    H     H_    0.793873 0.587411 0.887763 0.113963
H3    H     H_    0.111404 0.176700 0.228859 0.118324
H4    H     H_    0.909376 0.192831 0.761047 0.119221
H5    H     H_    0.295070 0.576172 0.168173 0.145675
H6    H     H_    0.683325 0.632347 0.840398 0.122791
H7    H     H_    0.201876 0.202216 0.326477 0.117554
H8    H     H_    0.821838 0.127351 0.661218 0.157354
C25   C     C_R   0.380858 0.831289 0.838439 0.169604
C26   C     C_R   0.617306 0.393283 0.161806 0.175566
H9    H     H_    0.469186 0.816300 0.775048 0.121991
H10   H     H_    0.528880 0.374313 0.225310 0.121391
H11   H     H_    0.296446 0.834855 0.960110 0.141053
H12   H     H_    0.701232 0.427831 0.040324 0.137066
C27   C     C_R   0.389153 0.851538 0.690917 -0.086037
C28   C     C_R   0.610267 0.356593 0.308823 -0.079095
C29   C     C_R   0.079524 0.933538 0.731978 -0.162987
C30   C     C_R   0.921543 0.389492 0.267711 -0.163575
C31   C     C_R   0.114481 0.934290 0.661059 0.216545
C32   C     C_R   0.886918 0.371449 0.338481 0.214485
C33   C     C_R   0.181090 0.913640 0.666606 -0.171058
C34   C     C_R   0.819788 0.368378 0.332966 -0.167393
C35   C     C_R   0.214501 0.891703 0.743106 0.051001
C36   C     C_R   0.785515 0.383278 0.256649 0.049376
C37   C     C_R   0.177843 0.890311 0.815065 0.067531
C38   C     C_R   0.821796 0.403228 0.184884 0.068375
C39   C     C_R   0.282989 0.872049 0.750414 0.053294
C40   C     C_R   0.716562 0.378505 0.249353 0.053228
C41   C     C_R   0.313214 0.851203 0.829764 0.126062
C42   C     C_R   0.685461 0.395508 0.170310 0.124674
C43   C     C_R   0.275411 0.850348 0.898977 -0.198180
C44   C     C_R   0.722912 0.414932 0.101258 -0.199903
C45   C     C_R   0.209372 0.869477 0.891789 -0.186010
C46   C     C_R   0.789429 0.418348 0.108374 -0.185403
C47   C     C_R   0.322586 0.871933 0.681627 -0.225124
C48   C     C_R   0.677332 0.357986 0.317907 -0.220469
C49   C     C_R   0.417684 0.831747 0.768803 -0.166785
C50   C     C_R   0.580824 0.374609 0.231325 -0.171845
C51   C     C_R   0.110180 0.911419 0.808822 -0.123410
C52   C     C_R   0.889994 0.405985 0.191089 -0.122021
H13   H     H_    0.303473 0.885727 0.619787 0.105981
H14   H     H_    0.697048 0.344813 0.379482 0.097572
H15   H     H_    0.027977 0.950877 0.727511 0.102354
H16   H     H_    0.973554 0.390150 0.272111 0.102680
H17   H     H_    0.205197 0.916079 0.609691 0.116031
H18   H     H_    0.796014 0.353809 0.389782 0.122253
H19   H     H_    0.183075 0.867900 0.947488 0.107713
H20   H     H_    0.815433 0.433341 0.052810 0.106158
O11   O     O_R   0.950790 0.256670 0.090520 -0.532545
O12   O     O_R   0.049210 0.756670 0.909480 -0.533149
O13   O     O_R   0.927720 0.590370 0.921470 -0.538906
O14   O     O_R   0.072280 0.090370 0.078530 -0.541312
C53   C     C_R   0.910449 0.418889 0.894918 0.686728
C54   C     C_R   0.090056 0.924175 0.104834 0.681924
O15   O     O_R   0.943270 0.586180 0.090640 -0.537156
O16   O     O_R   0.056730 0.086180 0.909360 -0.536969
O17   O     O_R   0.064850 0.759970 0.079840 -0.536945
O18   O     O_R   0.935150 0.259970 0.920160 -0.536719
C55   C     C_R   0.930196 0.417240 0.118889 0.692611
C56   C     C_R   0.069900 0.918023 0.881073 0.693712
O19   O     O_3   0.039850 0.428050 0.996240 -0.371400
O20   O     O_3   0.960150 0.928050 0.003760 -0.368594
V3    V     V_3+5 0.992610 0.701540 0.000700 1.423147
V4    V     V_3+5 0.007390 0.201540 0.999300 1.424319
C57   C     C_3   0.081181 0.958197 0.578600 -0.797248
H21   H     H_    0.028600 0.973464 0.583522 0.207644
H22   H     H_    0.100520 0.086075 0.549011 0.208349
H23   H     H_    0.089573 0.833333 0.539222 0.210078
C58   C     C_3   0.921166 0.354078 0.420725 -0.789961
H24   H     H_    0.974107 0.358250 0.415797 0.204834
H25   H     H_    0.907717 0.471953 0.461392 0.212196
H26   H     H_    0.907252 0.218471 0.448867 0.212110
N1    N     N_3   0.401119 0.566060 0.257460 -0.673762
H27   H     H_    0.402091 0.469919 0.305356 0.247422
H28   H     H_    0.445072 0.639277 0.256868 0.222049
N2    N     N_3   0.576341 0.583615 0.746193 -0.655067
H29   H     H_    0.579956 0.678773 0.795579 0.213730
H30   H     H_    0.543385 0.478530 0.761767 0.214200
N3    N     N_3   0.309563 0.112989 0.399800 -0.660271
H31   H     H_    0.269749 0.098128 0.436065 0.216026
H32   H     H_    0.309064 0.245637 0.372681 0.231899
N4    N     N_3   0.711961 0.150348 0.592249 -0.684866
H33   H     H_    0.700714 0.219269 0.537455 0.216231
H34   H     H_    0.681019 0.033951 0.597379 0.255269
C59   C     C_3   0.414987 0.808505 0.921014 -0.806269
H35   H     H_    0.396743 0.679607 0.950878 0.213418
H36   H     H_    0.467603 0.794544 0.915844 0.207509
H37   H     H_    0.406984 0.933647 0.960385 0.212846
C60   C     C_3   0.582258 0.411866 0.079579 -0.808674
H38   H     H_    0.594882 0.293979 0.038429 0.208819
H39   H     H_    0.529343 0.407742 0.084838 0.218015
H40   H     H_    0.595473 0.548326 0.051668 0.207569

loop_
_geom_bond_atom_site_label_1
_geom_bond_atom_site_label_2
_ccdc_geom_bond_type
C42   C44   A    
C39   C41   A    
C57   H21   S    
C15   C17   A    
C26   C60   S    
O1    C3    A    
C47   H13   S    
O2    C4    A    
C2    O7    A    
N2    H30   S    
O3    V1    S    
C37   C51   A    
O5    C3    A    
C58   H25   S    
C21   H3    S    
C5    C21   A    
O12   V3    S    
C10   C12   A    
C36   C38   A    
C29   H15   S    
C26   C42   A    
C28   C50   A    
C34   H18   S    
C52   C55   S    
C33   C35   A    
C41   C43   A    
C34   C36   A    
N3    H31   S    
O16   C56   A    
C38   C46   A    
C25   C49   A    
C53   O18   A    
N4    H33   S    
C59   H37   S    
C48   H14   S    
N1    H28   S    
C8    C12   A    
N3    H32   S    
C12   N2    S    
C60   H40   S    
C1    C28   S    
C20   H2    S    
C2    C27   S    
C23   H7    S    
O17   V3    S    
C30   H16   S    
O5    V1    S    
O6    V2    S    
C38   C52   A    
C29   C51   A    
C27   C47   A    
N2    H29   S    
O19   V3    S    
C51   C56   S    
O13   V3    S    
C29   C31   A    
C9    C11   A    
C11   N1    S    
C58   H26   S    
C30   C32   A    
C3    C8    S    
C35   C37   A    
H10   C50   S    
H9    C49   S    
O4    C2    A    
C15   C23   A    
C9    C17   A    
C19   H1    S    
C43   C45   A    
C40   C42   A    
O4    V2    S    
C7    C11   A    
C45   H19   S    
O18   V4    S    
O6    C4    A    
C28   C48   A    
O1    V2    S    
O2    V1    S    
C6    C22   A    
C59   H35   S    
O14   V4    S    
O12   C56   A    
C9    H5    S    
C44   C46   A    
O14   C54   A    
C57   H23   S    
O20   V4    S    
C31   C33   A    
C25   C41   A    
C60   H38   S    
C5    C19   A    
C30   C52   A    
C24   H8    S    
C6    C20   A    
C26   C50   A    
O19   V4    S    
C46   H20   S    
O16   V4    S    
C54   O17   A    
C37   C45   A    
C10   C18   A    
C6    C53   S    
C14   C16   A    
C5    C54   S    
C27   C49   A    
C39   C47   A    
O3    C1    A    
H11   C43   S    
C13   C15   A    
C14   N4    S    
C58   H24   S    
C31   C57   S    
C35   C39   A    
C36   C40   A    
C25   C59   S    
C13   N3    S    
O7    V1    S    
C1    O8    A    
C17   C19   A    
O11   V4    S    
O8    V2    S    
N1    H27   S    
C18   C20   A    
O11   C55   A    
C10   H6    S    
C8    C14   A    
C4    C7    S    
C16   C18   A    
C21   C23   A    
C32   C34   A    
C22   C24   A    
C40   C48   A    
C7    C13   A    
C33   H17   S    
N4    H34   S    
C32   C58   S    
C59   H36   S    
O15   C55   A    
C16   C24   A    
C57   H22   S    
O20   V3    S    
O9    V2    S    
C60   H39   S    
O13   C53   A    
O10   V1    S    
C22   H4    S    
O15   V3    S    
H12   C44   S    
