data_mof_unit_30995.cif
_audit_creation_date              2012-12-10T18:18:22-0500
_audit_creation_method            fapswitch 2.2
_symmetry_space_group_name_H-M    P1
_symmetry_Int_Tables_number       1
_space_group_crystal_system       triclinic
_cell_length_a                    13.998995
_cell_length_b                    15.022061
_cell_length_c                    15.505068
_cell_angle_alpha                 89.905529
_cell_angle_beta                  66.732984
_cell_angle_gamma                 90.014503
_cell_volume                      2995.44016848

loop_
_atom_site_label
_atom_site_type_symbol
_atom_type_description
_atom_site_fract_x
_atom_site_fract_y
_atom_site_fract_z
_atom_type_partial_charge
C1    C     C_R   0.500076 0.673531 0.499861 0.892477
C2    C     C_R   0.500504 0.769361 0.499313 -0.110110
C3    C     C_R   0.587028 0.184974 0.498225 -0.242588
C4    C     C_R   0.411196 0.814993 0.506311 -0.246053
C5    C     C_R   0.587816 0.093068 0.497432 0.131887
C6    C     C_R   0.409934 0.906887 0.508512 0.134136
C7    C     C_R   0.497496 0.046317 0.504895 0.032487
C8    C     C_R   0.500213 0.953639 0.501205 0.032793
C9    C     C_R   0.404972 0.092437 0.515378 0.090008
C10   C     C_R   0.592914 0.907549 0.490236 0.089167
C11   C     C_R   0.678952 0.048013 0.486806 -0.315900
C12   C     C_R   0.499696 0.326454 0.500673 0.897966
C13   C     C_R   0.318588 0.951938 0.519801 -0.316638
C14   C     C_R   0.683872 0.955579 0.480661 0.002746
C15   C     C_R   0.313783 0.044402 0.525695 0.002119
C16   C     C_R   0.434266 0.502030 0.677023 0.879624
C17   C     C_R   0.565767 0.499712 0.322879 0.875367
C18   C     C_R   0.179628 0.437191 0.550929 -0.061971
C19   C     C_R   0.819680 0.564003 0.450854 -0.059303
C20   C     C_R   0.224078 0.562904 0.449305 -0.060496
C21   C     C_R   0.776145 0.436734 0.550196 -0.065048
C22   C     C_R   0.123837 0.564631 0.448344 0.014450
C23   C     C_R   0.395268 0.587502 0.095814 -0.222113
C24   C     C_R   0.876109 0.435466 0.551827 0.012432
C25   C     C_R   0.050526 0.500158 0.500260 0.085165
C26   C     C_R   0.949254 0.500226 0.500344 0.085986
C27   C     C_R   0.078427 0.435633 0.552109 0.012186
C28   C     C_R   0.921100 0.565166 0.449101 0.010153
C29   C     C_R   0.095277 0.628967 0.397016 -0.218686
C30   C     C_R   0.904563 0.371295 0.603380 -0.220008
C31   C     C_R   0.994661 0.629369 0.397587 -0.187408
C32   C     C_R   0.004839 0.371433 0.603600 -0.187313
C33   C     C_R   0.392110 0.515966 0.779392 -0.106210
C34   C     C_R   0.628856 0.517834 0.888614 -0.225587
C35   C     C_R   0.609371 0.504815 0.219485 -0.106997
C36   C     C_R   0.269103 0.575387 0.927325 -0.231366
C37   C     C_R   0.743910 0.488341 0.062749 -0.228820
C38   C     C_R   0.291879 0.551031 0.833837 0.165404
C39   C     C_R   0.713665 0.483319 0.160247 0.166925
C40   C     C_R   0.463141 0.503640 0.821003 -0.293127
C41   C     C_R   0.540306 0.531620 0.179419 -0.295014
C42   C     C_R   0.444914 0.536557 0.910017 0.094584
C43   C     C_R   0.569112 0.534247 0.082442 0.092983
C44   C     C_R   0.344864 0.569504 0.965026 0.137405
C45   C     C_R   0.321768 0.596539 0.056950 -0.220420
C46   C     C_R   0.672280 0.510722 0.023911 0.137292
C47   C     C_R   0.523358 0.535115 0.946173 0.077142
C48   C     C_R   0.495676 0.553003 0.042644 0.078650
C49   C     C_3   0.794028 0.451829 0.196111 -0.395737
C50   C     C_3   0.853341 0.530523 0.213038 -0.817369
C51   C     C_3   0.208348 0.565521 0.796176 -0.402707
C52   C     C_3   0.224380 0.653458 0.742612 -0.799515
C53   C     C_2   0.786586 0.914216 0.461735 0.369223
C54   C     C_2   0.211054 0.085856 0.544899 0.369716
C55   C     C_R   0.702223 0.507009 0.927080 -0.224426
C56   C     C_R   0.408282 0.185042 0.511518 -0.208992
C57   C     C_R   0.590174 0.814930 0.492381 -0.206880
C58   C     C_R   0.498336 0.230617 0.503524 -0.111190
H1    H     H_    0.245882 0.623420 0.099677 0.147784
H2    H     H_    0.024874 0.321266 0.643885 0.175390
H3    H     H_    0.461441 0.545915 0.225808 0.167380
H4    H     H_    0.534173 0.468352 0.781756 0.162253
H5    H     H_    0.192900 0.601744 0.970099 0.135989
H6    H     H_    0.823048 0.471418 0.016729 0.134888
H7    H     H_    0.371939 0.610751 0.166954 0.140984
H8    H     H_    0.657411 0.514067 0.813090 0.153965
H9    H     H_    0.342250 0.222642 0.512396 0.209582
H10   H     H_    0.656483 0.777241 0.490663 0.209332
H11   H     H_    0.656632 0.220916 0.492198 0.160437
H12   H     H_    0.781868 0.491953 0.881032 0.149181
H13   H     H_    0.341687 0.779020 0.512106 0.161070
H14   H     H_    0.747928 0.085434 0.480015 0.140736
H15   H     H_    0.249548 0.914515 0.526797 0.140612
H16   H     H_    0.798873 0.579895 0.260393 0.267600
H17   H     H_    0.906731 0.506674 0.245334 0.243526
H18   H     H_    0.900104 0.563771 0.145376 0.246659
H19   H     H_    0.758679 0.410363 0.260145 0.220196
H20   H     H_    0.851100 0.407223 0.143679 0.192635
H21   H     H_    0.214312 0.710122 0.791368 0.247676
H22   H     H_    0.303230 0.657500 0.685900 0.268287
H23   H     H_    0.202604 0.388415 0.590545 0.147523
H24   H     H_    0.166088 0.659538 0.710896 0.241307
H25   H     H_    0.204263 0.508749 0.752167 0.220398
H26   H     H_    0.130398 0.567664 0.854971 0.190156
H27   H     H_    0.839151 0.945587 0.488557 0.066269
H28   H     H_    0.157801 0.054032 0.519174 0.066097
H29   H     H_    0.796032 0.614077 0.413079 0.148326
H30   H     H_    0.281675 0.611745 0.409722 0.130395
H31   H     H_    0.718828 0.387441 0.589140 0.132784
H32   H     H_    0.150664 0.679018 0.356571 0.141900
H33   H     H_    0.849299 0.321037 0.643522 0.145761
H34   H     H_    0.974465 0.679728 0.357594 0.175886
N1    N     N_R   0.249980 0.499930 0.499960 -0.100075
N2    N     N_R   0.750020 0.500070 0.500040 -0.099785
O1    O     O_R   0.419720 0.632140 0.499980 -0.632427
O2    O     O_2   0.181760 0.151720 0.594387 -0.598159
O3    O     O_R   0.580280 0.367860 0.500020 -0.630092
O4    O     O_R   0.580270 0.632160 0.499970 -0.620900
O5    O     O_R   0.419730 0.367840 0.500030 -0.621198
O6    O     O_R   0.373870 0.499980 0.632250 -0.612376
O7    O     O_R   0.626130 0.500020 0.367750 -0.608294
O8    O     O_R   0.534420 0.500000 0.632240 -0.612109
O9    O     O_R   0.465580 0.500000 0.367760 -0.611819
O10   O     O_2   0.816692 0.849062 0.411271 -0.598640
Zn1   Zn    Zn3+2 0.392800 0.499980 0.500010 0.939485
Zn2   Zn    Zn3+2 0.607200 0.500020 0.499990 0.940942

loop_
_geom_bond_atom_site_label_1
_geom_bond_atom_site_label_2
_ccdc_geom_bond_type
C20   N1    A    
C23   C45   A    
C22   C29   A    
C2    C4    A    
C41   H3    S    
C34   H8    S    
C2    C57   A    
C7    C8    A    
C21   H31   S    
O6    Zn1   S    
C3    H11   S    
C24   C26   A    
C5    C11   A    
C19   H29   S    
C50   H16   S    
C8    C10   A    
C11   C14   A    
C21   N2    A    
C53   O10   D    
C18   H23   S    
C40   H4    S    
C49   H20   S    
C1    C2    S    
C17   O7    A    
C12   O5    A    
O1    Zn1   S    
N1    Zn1   S    
N2    Zn2   S    
C49   H19   S    
C22   C25   A    
C46   C55   A    
C36   H5    S    
C43   C48   A    
C54   O2    D    
C12   C58   S    
C40   C42   A    
C34   C55   A    
C41   C43   A    
C42   C44   A    
C29   H32   S    
O5    Zn1   S    
C33   C40   A    
C51   C52   S    
C15   C54   S    
C10   C57   A    
C4    C6    A    
C10   C14   A    
C54   H28   S    
C11   H14   S    
C16   O6    A    
C6    C8    A    
C38   C51   S    
C25   C26   A    
C35   C39   A    
C50   H18   S    
C16   C33   S    
C47   C48   A    
C1    O1    A    
O9    Zn1   S    
C9    C56   A    
C52   H24   S    
C19   C28   A    
C12   O3    A    
C19   N2    A    
O3    Zn2   S    
C16   O8    A    
C39   C49   S    
C20   C22   A    
C31   H34   S    
C13   C15   A    
C36   C44   A    
C32   H2    S    
C57   H10   S    
C52   H21   S    
C51   H25   S    
C37   H6    S    
C44   C45   A    
C5    C7    A    
O7    Zn2   S    
C7    C9    A    
C45   H1    S    
C23   C48   A    
C27   C32   A    
C28   C31   A    
C18   C27   A    
C13   H15   S    
C30   H33   S    
C3    C5    A    
C1    O4    A    
C25   C27   A    
C56   H9    S    
C26   C28   A    
C33   C38   A    
O4    Zn2   S    
C23   H7    S    
C36   C38   A    
C17   O9    A    
C29   C31   A    
C50   H17   S    
C6    C13   A    
C30   C32   A    
C20   H30   S    
C56   C58   A    
O8    Zn2   S    
C42   C47   A    
C9    C15   A    
C35   C41   A    
C43   C46   A    
C24   C30   A    
C55   H12   S    
C3    C58   A    
C14   C53   S    
C37   C39   A    
C49   C50   S    
C21   C24   A    
C18   N1    A    
C53   H27   S    
C34   C47   A    
C17   C35   S    
C37   C46   A    
C52   H22   S    
C51   H26   S    
C4    H13   S    
