data_mof_unit_39275.cif
_audit_creation_date              2012-12-10T21:42:40-0500
_audit_creation_method            fapswitch 2.2
_symmetry_space_group_name_H-M    P1
_symmetry_Int_Tables_number       1
_space_group_crystal_system       triclinic
_cell_length_a                    10.753006
_cell_length_b                    16.068473
_cell_length_c                    16.624316
_cell_angle_alpha                 86.870022
_cell_angle_beta                  89.362093
_cell_angle_gamma                 93.767229
_cell_volume                      2861.62744777

loop_
_atom_site_label
_atom_site_type_symbol
_atom_type_description
_atom_site_fract_x
_atom_site_fract_y
_atom_site_fract_z
_atom_type_partial_charge
C1    C     C_R   0.495755 0.488080 0.653787 0.938631
C2    C     C_R   0.471163 0.444475 0.218332 -0.322548
C3    C     C_R   0.374928 0.535192 0.856345 -0.242509
C4    C     C_R   0.430603 0.442855 0.140268 -0.250561
C5    C     C_R   0.388396 0.459524 0.901013 0.189194
C6    C     C_R   0.384294 0.514412 0.101799 0.183253
C7    C     C_R   0.435185 0.391672 0.864001 0.338590
C8    C     C_R   0.376189 0.587041 0.143938 0.354373
C9    C     C_R   0.481249 0.402222 0.784182 0.437247
C10   C     C_R   0.432283 0.592098 0.220627 0.344880
C11   C     C_R   0.456689 0.762374 0.452401 -0.110775
C12   C     C_R   0.497861 0.511725 0.346019 0.954359
C13   C     C_R   0.574629 0.240209 0.527587 -0.115086
C14   C     C_R   0.457508 0.849777 0.453944 0.309799
C15   C     C_R   0.575330 0.152679 0.524900 0.303809
C16   C     C_R   0.740332 0.501098 0.500388 0.870641
C17   C     C_R   0.259666 0.498838 0.501663 0.889822
C18   C     C_R   0.523045 0.890665 0.516062 0.118402
C19   C     C_R   0.482862 0.109906 0.479478 0.095394
C20   C     C_R   0.580873 0.841863 0.576142 0.367165
C21   C     C_R   0.395280 0.157043 0.437992 0.349015
C22   C     C_R   0.577618 0.754002 0.570076 -0.191531
C23   C     C_R   0.127130 0.497097 0.504567 -0.103071
C24   C     C_R   0.395548 0.243380 0.446597 -0.148890
C25   C     C_R   0.803664 0.775464 0.402500 0.422497
C26   C     C_R   0.217367 0.247663 0.635304 0.430756
C27   C     C_R   0.838542 0.692474 0.408430 0.499321
C28   C     C_R   0.175411 0.327141 0.617124 0.496006
C29   C     C_R   0.901898 0.663372 0.478031 -0.120916
C30   C     C_R   0.099654 0.340151 0.548550 -0.115609
C31   C     C_R   0.931561 0.718752 0.538454 -0.362172
C32   C     C_R   0.060972 0.271447 0.503634 -0.391490
C33   C     C_R   0.903515 0.802528 0.529942 0.511787
C34   C     C_R   0.872779 0.503205 0.502599 -0.094559
C35   C     C_R   0.098958 0.190481 0.524060 0.560439
C36   C     C_R   0.837334 0.830205 0.463079 -0.427467
C37   C     C_R   0.177413 0.180275 0.589601 -0.435854
C38   C     C_R   0.074706 0.573105 0.487166 -0.261284
C39   C     C_R   0.925070 0.427434 0.521402 -0.255092
C40   C     C_3   0.658267 0.330300 0.776589 0.062143
C41   C     C_3   0.751679 0.381704 0.720628 -0.397002
C42   C     C_3   0.885586 0.363925 0.741033 -0.919618
C43   C     C_3   0.503501 0.734025 0.213405 0.117014
C44   C     C_3   0.628073 0.714518 0.173939 -0.310941
C45   C     C_R   0.052182 0.423109 0.524513 0.053743
C46   C     C_3   0.692405 0.792841 0.131876 -0.916536
C47   C     C_3   0.682076 0.113205 0.638161 0.115168
C48   C     C_3   0.804942 0.078887 0.665430 -0.283244
C49   C     C_3   0.815712 0.075409 0.756934 -1.011214
C50   C     C_3   0.272572 0.877015 0.391619 0.088212
C51   C     C_3   0.233463 0.848617 0.308797 -0.394883
C52   C     C_3   0.093397 0.827198 0.306129 -0.935045
C53   C     C_3   0.652430 0.839142 0.710667 0.131897
C54   C     C_3   0.523894 0.820422 0.751660 -0.433181
C55   C     C_3   0.535301 0.774689 0.833868 -0.927260
C56   C     C_R   0.947937 0.578027 0.488025 0.050339
C57   C     C_3   0.352519 0.106583 0.314555 0.108172
C58   C     C_3   0.341057 0.184662 0.258501 -0.403533
C59   C     C_3   0.380201 0.169448 0.172382 -0.957430
C60   C     C_3   0.065861 0.879898 0.579726 0.082076
C61   C     C_3   0.108620 0.932092 0.649582 -0.302112
C62   C     C_3   0.249945 0.949912 0.647081 -0.990008
C63   C     C_3   0.015456 0.130281 0.407440 0.124356
C64   C     C_3   0.872919 0.129672 0.407257 -0.342820
C65   C     C_3   0.823599 0.141630 0.322058 -0.983602
C66   C     C_3   0.370437 0.252977 0.881829 0.156575
C67   C     C_R   0.467149 0.478424 0.739963 -0.163035
C68   C     C_3   0.336592 0.189321 0.951448 -0.384283
C69   C     C_3   0.258045 0.114291 0.922901 -0.961910
C70   C     C_3   0.208815 0.668651 0.147375 0.063679
C71   C     C_3   0.099293 0.613686 0.116944 -0.375008
C72   C     C_3   0.977963 0.630449 0.159824 -0.914817
C73   C     C_R   0.471517 0.518028 0.259640 -0.175146
C74   C     C_R   0.413491 0.544166 0.776582 -0.312486
H1    H     H_    0.813217 0.894667 0.458061 0.183663
H2    H     H_    0.866516 0.370909 0.535825 0.168636
H3    H     H_    0.503231 0.387420 0.246296 0.197491
H4    H     H_    0.400450 0.602803 0.743386 0.197274
H5    H     H_    0.437850 0.385470 0.109811 0.198870
H6    H     H_    0.337382 0.588151 0.883434 0.192104
H7    H     H_    0.678340 0.263468 0.775998 0.159994
H8    H     H_    0.671410 0.348334 0.839970 0.153907
H9    H     H_    0.733846 0.366434 0.657360 0.235922
H10   H     H_    0.739632 0.449310 0.726130 0.199854
H11   H     H_    0.904849 0.376171 0.804962 0.268452
H12   H     H_    0.207635 0.118799 0.605208 0.183617
H13   H     H_    0.950200 0.405450 0.702121 0.272215
H14   H     H_    0.902579 0.297972 0.730186 0.261466
H15   H     H_    0.523315 0.785053 0.254786 0.202785
H16   H     H_    0.440079 0.760333 0.168114 0.162995
H17   H     H_    0.690328 0.688927 0.220409 0.302978
H18   H     H_    0.612235 0.667334 0.128131 0.198710
H19   H     H_    0.631666 0.818559 0.084300 0.254911
H20   H     H_    0.780864 0.777038 0.103205 0.257931
H21   H     H_    0.713898 0.841184 0.175809 0.287342
H22   H     H_    0.602784 0.073158 0.665937 0.166274
H23   H     H_    0.648497 0.274628 0.557535 0.148500
H24   H     H_    0.679092 0.177491 0.659389 0.121163
H25   H     H_    0.811715 0.015107 0.643813 0.285408
H26   H     H_    0.884000 0.119506 0.638470 0.224300
H27   H     H_    0.814688 0.139160 0.779474 0.262240
H28   H     H_    0.904854 0.048760 0.774429 0.269432
H29   H     H_    0.737408 0.035303 0.785339 0.268810
H30   H     H_    0.227483 0.935582 0.403063 0.183383
H31   H     H_    0.236421 0.829233 0.439031 0.099242
H32   H     H_    0.259926 0.898948 0.262063 0.218698
H33   H     H_    0.282663 0.792445 0.294866 0.233008
H34   H     H_    0.409033 0.730428 0.404948 0.194242
H35   H     H_    0.067390 0.773526 0.349211 0.260254
H36   H     H_    0.067095 0.809586 0.244659 0.267570
H37   H     H_    0.041314 0.881714 0.321746 0.265165
H38   H     H_    0.709432 0.879351 0.750419 0.170347
H39   H     H_    0.705239 0.782521 0.706221 0.136926
H40   H     H_    0.479645 0.880116 0.759477 0.233977
H41   H     H_    0.462142 0.780965 0.713988 0.213204
H42   H     H_    0.577629 0.714156 0.827169 0.268098
H43   H     H_    0.441305 0.762025 0.861962 0.271753
H44   H     H_    0.593740 0.813401 0.874162 0.263120
H45   H     H_    0.624911 0.714125 0.612135 0.161997
H46   H     H_    0.295901 0.053931 0.289720 0.167641
H47   H     H_    0.450791 0.088081 0.315307 0.151229
H48   H     H_    0.243002 0.202646 0.259019 0.226456
H49   H     H_    0.401693 0.237311 0.279846 0.215467
H50   H     H_    0.477987 0.151149 0.170541 0.267374
H51   H     H_    0.373904 0.227755 0.134114 0.266764
H52   H     H_    0.317933 0.119433 0.147693 0.264912
H53   H     H_    0.720591 0.861203 0.340760 0.324309
H54   H     H_    0.318774 0.178259 0.703835 0.308593
H55   H     H_    0.846153 0.588233 0.353718 0.311208
H56   H     H_    0.326071 0.279210 0.416665 0.162660
H57   H     H_    0.163018 0.439102 0.655799 0.307427
H58   H     H_    0.084133 0.917914 0.522255 0.155085
H59   H     H_    0.121769 0.823793 0.580141 0.120170
H60   H     H_    0.062422 0.992032 0.646221 0.232923
H61   H     H_    0.081265 0.897846 0.707651 0.223093
H62   H     H_    0.297381 0.890687 0.654560 0.260082
H63   H     H_    0.278516 0.990352 0.696632 0.255010
H64   H     H_    0.279917 0.982220 0.588672 0.285038
H65   H     H_    0.042808 0.076449 0.373551 0.172327
H66   H     H_    0.060948 0.186415 0.374219 0.132490
H67   H     H_    0.980058 0.697245 0.591683 0.179362
H68   H     H_    0.833154 0.068878 0.434615 0.264265
H69   H     H_    0.841005 0.180108 0.443865 0.244033
H70   H     H_    0.860408 0.202729 0.293922 0.265957
H71   H     H_    0.720199 0.140471 0.324346 0.272344
H72   H     H_    0.851560 0.090603 0.284617 0.264402
H73   H     H_    0.421339 0.221335 0.835029 0.201851
H74   H     H_    0.281766 0.275070 0.856495 0.177661
H75   H     H_    0.423155 0.167400 0.979032 0.239153
H76   H     H_    0.283018 0.219612 0.997960 0.232364
H77   H     H_    0.170032 0.134611 0.896161 0.272700
H78   H     H_    0.999432 0.282369 0.453791 0.166797
H79   H     H_    0.234595 0.069479 0.974910 0.266999
H80   H     H_    0.310580 0.082099 0.877246 0.260969
H81   H     H_    0.189973 0.735145 0.134286 0.162723
H82   H     H_    0.214800 0.660116 0.214189 0.159397
H83   H     H_    0.089510 0.626599 0.051031 0.237150
H84   H     H_    0.117167 0.546727 0.127994 0.220213
H85   H     H_    0.985038 0.615206 0.225498 0.280489
H86   H     H_    0.899707 0.590981 0.135930 0.266496
H87   H     H_    0.957814 0.697072 0.149916 0.267294
H88   H     H_    0.132670 0.630032 0.472951 0.169137
N1    N     N_2   0.374662 0.452296 0.985623 -0.147711
N2    N     N_2   0.364740 0.519805 0.017691 -0.142968
N3    N     N_R   0.515300 0.716920 0.509720 -0.128192
N4    N     N_R   0.484700 0.283080 0.490280 -0.124325
N5    N     N_2   0.532120 0.979652 0.522898 -0.076842
N6    N     N_2   0.475185 0.021328 0.471367 -0.094560
O1    O     O_R   0.494530 0.422540 0.612660 -0.534883
O2    O     O_3   0.443641 0.666075 0.260564 -0.659536
O3    O     O_3   0.676860 0.111935 0.553436 -0.636461
O4    O     O_3   0.403446 0.894836 0.391699 -0.628652
O5    O     O_3   0.645045 0.884604 0.635604 -0.617065
O6    O     O_3   0.304138 0.118391 0.392349 -0.638289
O7    O     O_3   0.739156 0.802041 0.335734 -0.751421
O8    O     O_3   0.296252 0.237198 0.699321 -0.735683
O9    O     O_3   0.809490 0.642768 0.345159 -0.764898
O10   O     O_3   0.210154 0.389379 0.668186 -0.748255
O11   O     O_3   0.937015 0.857220 0.588487 -0.619732
O12   O     O_R   0.505470 0.577460 0.387340 -0.541428
O13   O     O_3   0.058038 0.117800 0.487126 -0.626241
O14   O     O_3   0.449035 0.318599 0.910381 -0.667091
O15   O     O_3   0.320878 0.653968 0.106378 -0.651672
O16   O     O_R   0.504350 0.561840 0.618900 -0.647684
O17   O     O_R   0.495650 0.438160 0.381100 -0.639248
O18   O     O_R   0.678330 0.430350 0.496870 -0.644075
O19   O     O_R   0.321670 0.569650 0.503130 -0.634934
O20   O     O_R   0.688150 0.569660 0.503110 -0.600681
O21   O     O_R   0.311850 0.430340 0.496890 -0.612984
O22   O     O_3   0.535374 0.337328 0.748462 -0.608946
Zn1   Zn    Zn3+2 0.493440 0.406980 0.495830 0.969703
Zn2   Zn    Zn3+2 0.506560 0.593020 0.504170 0.970282

loop_
_geom_bond_atom_site_label_1
_geom_bond_atom_site_label_2
_ccdc_geom_bond_type
C38   C56   A    
C66   C68   S    
C34   C56   A    
C63   O13   S    
C27   C29   A    
C63   H66   S    
C14   C18   A    
C30   C45   S    
C2    C4    A    
N1    N2    D    
C60   H58   S    
C13   N4    A    
C53   O5    S    
C53   C54   S    
C60   O11   S    
C50   H30   S    
C58   H49   S    
C17   C23   S    
C47   H24   S    
C23   C45   A    
C5    N1    S    
C35   C37   A    
C49   H27   S    
C11   C14   A    
C33   O11   S    
C55   H42   S    
C12   O17   A    
C41   H9    S    
C33   C36   A    
C18   C20   A    
N4    Zn1   S    
C41   C42   S    
C62   H62   S    
O18   Zn1   S    
O21   Zn1   S    
C3    C74   A    
C68   H75   S    
C16   C34   S    
C15   C19   A    
C22   N3    A    
C34   C39   A    
C43   O2    S    
C46   H21   S    
C20   O5    S    
C44   C46   S    
C68   C69   S    
C46   H20   S    
C50   H31   S    
C72   H87   S    
C31   C33   A    
C44   H17   S    
C70   C71   S    
C26   O8    S    
C66   H74   S    
C44   H18   S    
C39   C45   A    
C66   O14   S    
C71   H84   S    
C12   C73   S    
H53   O7    S    
C71   H83   S    
C3    H6    S    
H57   O10   S    
C53   H39   S    
C61   H60   S    
O17   Zn1   S    
N3    Zn2   S    
C22   H45   S    
C48   H26   S    
C58   H48   S    
C43   H16   S    
H54   O8    S    
C51   C52   S    
C69   H77   S    
C32   C35   A    
C40   H8    S    
C37   H12   S    
C4    H5    S    
C4    C6    A    
C16   O20   A    
C49   H28   S    
C5    C7    A    
C65   H70   S    
C6    C8    A    
C52   H37   S    
C17   O21   A    
C58   C59   S    
C41   H10   S    
H55   O9    S    
C69   H79   S    
C70   H81   S    
C60   C61   S    
C59   H52   S    
C31   H67   S    
C24   N4    A    
C43   C44   S    
C9    C67   A    
C36   H1    S    
C25   O7    S    
C47   C48   S    
C32   H78   S    
C52   H36   S    
C47   H22   S    
C54   H41   S    
O16   Zn2   S    
C50   C51   S    
O19   Zn2   S    
C15   O3    S    
C42   H11   S    
C43   H15   S    
C39   H2    S    
C62   H64   S    
C72   H85   S    
C66   H73   S    
C2    C73   A    
C57   H46   S    
C8    O15   S    
C14   O4    S    
C40   C41   S    
C12   O12   A    
C20   C22   A    
C13   C15   A    
O12   Zn2   S    
C25   C27   A    
C70   H82   S    
C42   H14   S    
C19   N6    S    
O1    Zn1   S    
C65   H71   S    
C9    O22   S    
N5    N6    D    
C61   H61   S    
C55   H43   S    
C59   H50   S    
C7    C9    A    
C48   H25   S    
C54   C55   S    
C48   C49   S    
C7    O14   S    
C19   C21   A    
C63   H65   S    
C40   H7    S    
C8    C10   A    
C27   O9    S    
C6    N2    S    
C63   C64   S    
C3    C5    A    
C49   H29   S    
C47   O3    S    
C18   N5    S    
C26   C37   A    
C1    C67   S    
C29   C56   S    
C53   H38   S    
C35   O13   S    
C23   C38   A    
C26   C28   A    
C69   H80   S    
C72   H86   S    
O20   Zn2   S    
C64   C65   S    
C28   C30   A    
C71   C72   S    
C29   C31   A    
C2    H3    S    
C16   O18   A    
C59   H51   S    
C30   C32   A    
C57   C58   S    
C46   H19   S    
C64   H68   S    
C52   H35   S    
C17   O19   A    
C51   H32   S    
C10   O2    S    
C54   H40   S    
C1    O1    A    
C10   C73   A    
C1    O16   A    
C67   C74   A    
C62   H63   S    
C13   H23   S    
C61   C62   S    
C64   H69   S    
C68   H76   S    
C25   C36   A    
C57   H47   S    
C57   O6    S    
C24   H56   S    
C70   O15   S    
C38   H88   S    
C40   O22   S    
C51   H33   S    
C21   O6    S    
C74   H4    S    
C21   C24   A    
C11   H34   S    
C11   N3    A    
C50   O4    S    
C42   H13   S    
C65   H72   S    
C28   O10   S    
C60   H59   S    
C55   H44   S    
