data_mof_unit_48512.cif
_audit_creation_date              2012-12-10T19:07:38-0500
_audit_creation_method            fapswitch 2.2
_symmetry_space_group_name_H-M    P1
_symmetry_Int_Tables_number       1
_space_group_crystal_system       triclinic
_cell_length_a                    10.864801
_cell_length_b                    10.820023
_cell_length_c                    9.559698
_cell_angle_alpha                 90.203027
_cell_angle_beta                  91.199107
_cell_angle_gamma                 90.606626
_cell_volume                      1123.49616447

loop_
_atom_site_label
_atom_site_type_symbol
_atom_type_description
_atom_site_fract_x
_atom_site_fract_y
_atom_site_fract_z
_atom_type_partial_charge
C1    C     C_R   0.501594 0.262419 0.499903 0.811518
C2    C     C_R   0.941856 0.497415 0.625573 0.114655
C3    C     C_3   0.947909 0.587718 0.746254 -0.216370
C4    C     C_3   0.087218 0.580481 0.741823 -0.517716
C5    C     C_R   0.506888 0.063744 0.625708 0.079565
C6    C     C_R   0.512159 0.129375 0.500239 -0.090183
C7    C     C_R   0.533853 0.064411 0.375735 -0.186292
C8    C     C_R   0.534004 0.935555 0.375860 -0.195353
C9    C     C_R   0.513528 0.870765 0.500704 -0.067941
C10   C     C_R   0.509071 0.936669 0.626054 0.113476
C11   C     C_3   0.420633 0.927402 0.743419 -0.498659
C12   C     C_R   0.262662 0.496685 0.498732 0.813072
C13   C     C_3   0.418307 0.068206 0.743839 -0.225694
C14   C     C_R   0.542517 0.600384 0.075050 0.243623
C15   C     C_R   0.438069 0.411051 0.071242 0.027084
C16   C     C_R   0.440660 0.410043 0.922666 -0.120546
C17   C     C_R   0.540056 0.601495 0.927937 0.250771
C18   C     C_3   0.663914 0.659684 0.924093 -0.508999
C19   C     C_3   0.667912 0.656808 0.082922 -0.496198
C20   C     C_R   0.502144 0.737588 0.500183 0.829746
C21   C     C_R   0.737908 0.499052 0.500976 0.852735
C22   C     C_R   0.068218 0.492578 0.623141 0.124771
C23   C     C_R   0.129987 0.484957 0.497631 -0.073342
C24   C     C_R   0.061531 0.463569 0.373590 -0.190098
C25   C     C_R   0.932882 0.465415 0.375625 -0.214461
C26   C     C_R   0.871573 0.490061 0.501341 -0.049592
Cu1   Cu    Cu3+1 0.499990 0.499980 0.640670 0.958144
Cu2   Cu    Cu3+1 0.500010 0.500020 0.359330 0.960557
H1    H     H_    0.106769 0.450504 0.274818 0.168834
H2    H     H_    0.464650 0.888736 0.839471 0.187559
H3    H     H_    0.459111 0.110635 0.840423 0.144959
H4    H     H_    0.393658 0.337272 0.864180 0.147328
H5    H     H_    0.728496 0.595861 0.875784 0.214124
H6    H     H_    0.661606 0.754512 0.879860 0.201930
H7    H     H_    0.738328 0.592900 0.126247 0.214376
H8    H     H_    0.668166 0.750406 0.130953 0.196003
H9    H     H_    0.882145 0.452249 0.277920 0.157697
H10   H     H_    0.914436 0.546551 0.844568 0.123800
H11   H     H_    0.134834 0.667231 0.709865 0.193495
H12   H     H_    0.128870 0.534638 0.835088 0.197042
H13   H     H_    0.545136 0.112373 0.277503 0.166003
H14   H     H_    0.544522 0.887335 0.277528 0.154294
H15   H     H_    0.332435 0.881225 0.711004 0.194750
N1    N     N_R   0.500790 0.500930 0.147930 -0.208924
N2    N     N_R   0.500790 0.500890 0.852020 -0.190186
O1    O     O_R   0.500000 0.319640 0.618810 -0.592111
O2    O     O_R   0.500010 0.319680 0.381230 -0.581878
O3    O     O_R   0.319650 0.499970 0.618810 -0.580631
O4    O     O_R   0.319660 0.500010 0.381230 -0.584970
O5    O     O_R   0.499990 0.680320 0.618770 -0.574977
O6    O     O_R   0.500000 0.680360 0.381190 -0.588570
O7    O     O_R   0.680340 0.499990 0.618770 -0.576561
O8    O     O_R   0.680350 0.500030 0.381190 -0.594572
C27   C     C_1   0.297214 0.118407 0.703112 0.285873
N3    N     N_1   0.202276 0.158127 0.671106 -0.289981
C28   C     C_1   0.363355 0.318922 0.137926 0.270548
N4    N     N_1   0.302293 0.244678 0.190160 -0.298160
C29   C     C_2   0.902528 0.717013 0.717881 0.388404
H16   H     H_    0.919427 0.788282 0.796241 0.077737
O9    O     O_2   0.847137 0.743293 0.609810 -0.551509

loop_
_geom_bond_atom_site_label_1
_geom_bond_atom_site_label_2
_ccdc_geom_bond_type
Cu1   O3    S    
C2    C22   A    
Cu2   N1    S    
C23   C24   A    
C4    H11   S    
Cu2   O2    S    
C11   H15   S    
C6    C7    A    
C16   H4    S    
C4    C22   S    
Cu2   O4    S    
C9    C20   S    
C5    C13   S    
C14   C17   A    
Cu1   O5    S    
C12   O3    A    
Cu2   O8    S    
C4    H12   S    
C15   C28   S    
Cu1   N2    S    
C7    H13   S    
C17   C18   S    
C29   H16   S    
C7    C8    A    
C2    C26   A    
C19   H7    S    
C24   C25   A    
C21   O8    A    
C11   C13   S    
C12   C23   S    
Cu1   O1    S    
Cu2   O6    S    
C21   C26   S    
C17   N2    A    
C15   N1    A    
C2    C3    S    
C20   O6    A    
C19   H8    S    
C18   H6    S    
C5    C6    A    
C18   H5    S    
C1    O1    A    
C12   O4    A    
C10   C11   S    
C16   N2    A    
C29   O9    D    
C15   C16   A    
C3    C29   S    
C21   O7    A    
C5    C10   A    
Cu1   O7    S    
C11   H2    S    
C14   N1    A    
C13   C27   S    
C9    C10   A    
Cu1   Cu2   S    
C28   N4    T    
C27   N3    T    
C18   C19   S    
C20   O5    A    
C25   H9    S    
C25   C26   A    
C24   H1    S    
C14   C19   S    
C13   H3    S    
C22   C23   A    
C1    O2    A    
C3    C4    S    
C1    C6    S    
C3    H10   S    
C8    H14   S    
C8    C9    A    
