data_mof_unit_61952.cif
_audit_creation_date              2012-12-10T21:32:49-0500
_audit_creation_method            fapswitch 2.2
_symmetry_space_group_name_H-M    P1
_symmetry_Int_Tables_number       1
_space_group_crystal_system       triclinic
_cell_length_a                    11.549094
_cell_length_b                    16.131954
_cell_length_c                    16.887562
_cell_angle_alpha                 87.003956
_cell_angle_beta                  90.368392
_cell_angle_gamma                 91.836983
_cell_volume                      3140.36151653

loop_
_atom_site_label
_atom_site_type_symbol
_atom_type_description
_atom_site_fract_x
_atom_site_fract_y
_atom_site_fract_z
_atom_type_partial_charge
C1    C     C_R   0.502219 0.488359 0.652756 0.893656
C2    C     C_R   0.500312 0.511570 0.347263 0.892504
C3    C     C_R   0.490777 0.404153 0.779464 -0.250975
C4    C     C_R   0.552111 0.590355 0.222513 -0.259516
C5    C     C_R   0.438566 0.763831 0.465036 0.332123
C6    C     C_R   0.550936 0.235635 0.542199 0.332435
C7    C     C_R   0.440463 0.850974 0.469222 -0.311486
C8    C     C_R   0.544979 0.148241 0.540954 -0.311806
C9    C     C_R   0.522029 0.890692 0.518113 0.304787
C10   C     C_R   0.474273 0.109065 0.484762 0.303602
C11   C     C_R   0.598028 0.840585 0.562929 -0.287667
C12   C     C_R   0.409497 0.159743 0.432239 -0.287585
C13   C     C_R   0.592512 0.753841 0.558125 -0.046878
C14   C     C_R   0.416339 0.246580 0.435957 -0.043800
C15   C     C_R   0.718207 0.499529 0.500107 0.911530
C16   C     C_R   0.281788 0.500457 0.499930 0.911184
C17   C     C_1   0.838541 0.498781 0.500148 -0.187745
C18   C     C_1   0.161438 0.501130 0.500024 -0.184216
C19   C     C_1   0.940673 0.499298 0.500156 0.007140
C20   C     C_1   0.059298 0.500524 0.500100 0.009046
C21   C     C_R   0.516221 0.480006 0.738051 -0.083052
C22   C     C_R   0.502248 0.519427 0.261621 -0.082098
C23   C     C_R   0.559381 0.548123 0.778215 -0.223117
C24   C     C_R   0.457928 0.453794 0.218600 -0.221001
C25   C     C_R   0.571804 0.541930 0.859535 -0.187939
C26   C     C_R   0.466319 0.457814 0.137035 -0.184525
C27   C     C_R   0.538930 0.467584 0.902176 0.269053
C28   C     C_R   0.520473 0.527520 0.097508 0.268730
C29   C     C_R   0.502192 0.397864 0.861539 0.271192
C30   C     C_R   0.560376 0.594786 0.140368 0.275871
H1    H     H_    0.417457 0.399116 0.248046 0.170349
H2    H     H_    0.583139 0.606476 0.746909 0.175030
H3    H     H_    0.431036 0.406283 0.104955 0.193989
H4    H     H_    0.604038 0.596061 0.889118 0.194988
H5    H     H_    0.459504 0.350628 0.748536 0.185964
H6    H     H_    0.587911 0.640885 0.255634 0.183459
H7    H     H_    0.595626 0.111958 0.583437 0.167374
H8    H     H_    0.378809 0.886702 0.434330 0.165656
H9    H     H_    0.661544 0.868680 0.601556 0.162011
H10   H     H_    0.353720 0.132017 0.388425 0.162383
H11   H     H_    0.651271 0.715912 0.593252 0.147000
H12   H     H_    0.365580 0.284901 0.395330 0.146138
N1    N     N_2   0.534059 0.462872 0.985583 -0.148206
N2    N     N_2   0.533122 0.532183 0.014666 -0.152695
N3    N     N_R   0.513820 0.716920 0.509720 -0.101248
N4    N     N_R   0.486180 0.283080 0.490280 -0.101050
N5    N     N_2   0.530654 0.979248 0.524308 -0.169581
N6    N     N_2   0.465277 0.020480 0.478923 -0.169816
O1    O     O_R   0.495050 0.422540 0.612660 -0.607677
O2    O     O_R   0.504950 0.577460 0.387340 -0.600806
O3    O     O_R   0.503930 0.561840 0.618900 -0.626279
O4    O     O_R   0.496070 0.438160 0.381100 -0.626301
O5    O     O_R   0.661110 0.430350 0.496870 -0.593562
O6    O     O_R   0.338890 0.569650 0.503130 -0.598364
O7    O     O_R   0.669990 0.569650 0.503110 -0.619733
O8    O     O_R   0.330010 0.430350 0.496890 -0.617368
Zn1   Zn    Zn3+2 0.494070 0.406980 0.495830 0.970227
Zn2   Zn    Zn3+2 0.505930 0.593020 0.504170 0.969591
Br1   Br    Br    0.460037 0.294893 0.917279 -0.486219
Br2   Br    Br    0.631283 0.691715 0.088297 -0.485195
N7    N     N_2   0.622377 0.274752 0.598780 -0.266545
H13   H     H_    0.600174 0.256741 0.656335 0.218719
C31   C     C_3   0.745403 0.268895 0.585385 -0.735352
H14   H     H_    0.772758 0.203954 0.597016 0.221230
H15   H     H_    0.793814 0.309476 0.626106 0.241707
H16   H     H_    0.767672 0.289614 0.523408 0.256867
N8    N     N_2   0.356498 0.724100 0.415657 -0.269553
H17   H     H_    0.272225 0.732555 0.432564 0.215023
C32   C     C_3   0.373072 0.742067 0.331606 -0.724092
H18   H     H_    0.348148 0.806602 0.314805 0.224700
H19   H     H_    0.318074 0.698447 0.297835 0.244893
H20   H     H_    0.464910 0.734378 0.315350 0.252901

loop_
_geom_bond_atom_site_label_1
_geom_bond_atom_site_label_2
_ccdc_geom_bond_type
C2    C22   S    
C32   H20   S    
C13   N3    A    
N1    N2    D    
C4    H6    S    
O3    Zn2   S    
C1    C21   S    
C25   C27   A    
C4    C22   A    
C29   Br1   S    
C26   H3    S    
C26   C28   A    
C19   C20   S    
C3    H5    S    
C25   H4    S    
C14   H12   S    
C23   H2    S    
C16   O6    A    
C31   H15   S    
C31   H16   S    
C32   H19   S    
C28   C30   A    
C14   N4    A    
C16   C18   S    
C11   H9    S    
C1    O3    A    
C24   C26   A    
C3    C29   A    
N7    H13   S    
C2    O4    A    
C5    N8    S    
C15   O5    A    
C6    N7    S    
C13   H11   S    
O2    Zn2   S    
C17   C19   T    
C7    H8    S    
C12   C14   A    
C9    N5    S    
C18   C20   T    
C9    C11   A    
N4    Zn1   S    
C10   N6    S    
C32   H18   S    
C10   C12   A    
C22   C24   A    
N3    Zn2   S    
C3    C21   A    
C27   C29   A    
C8    H7    S    
N8    C32   S    
N8    H17   S    
C16   O8    A    
N5    N6    D    
C27   N1    S    
C11   C13   A    
C23   C25   A    
O1    Zn1   S    
O8    Zn1   S    
C5    C7    A    
C1    O1    A    
O4    Zn1   S    
O7    Zn2   S    
O6    Zn2   S    
C2    O2    A    
C7    C9    A    
O5    Zn1   S    
C6    C8    A    
C12   H10   S    
C6    N4    A    
C24   H1    S    
C15   C17   S    
C5    N3    A    
C21   C23   A    
C28   N2    S    
C8    C10   A    
C4    C30   A    
C31   H14   S    
C30   Br2   S    
N7    C31   S    
C15   O7    A    
