data_mof_unit_49055.cif
_audit_creation_date              2012-12-10T17:08:49-0500
_audit_creation_method            fapswitch 2.2
_symmetry_space_group_name_H-M    P1
_symmetry_Int_Tables_number       1
_space_group_crystal_system       triclinic
_cell_length_a                    27.647473
_cell_length_b                    11.047063
_cell_length_c                    9.993387
_cell_angle_alpha                 112.471797
_cell_angle_beta                  99.065977
_cell_angle_gamma                 91.723789
_cell_volume                      2771.54487597

loop_
_atom_site_label
_atom_site_type_symbol
_atom_type_description
_atom_site_fract_x
_atom_site_fract_y
_atom_site_fract_z
_atom_type_partial_charge
C1    C     C_R   0.497135 0.253474 0.438406 0.798955
C2    C     C_R   0.503210 0.746539 0.561560 0.795755
C3    C     C_R   0.109526 0.510311 0.604799 -0.090174
C4    C     C_R   0.902799 0.502177 0.548151 -0.097973
C5    C     C_R   0.132809 0.393384 0.576721 -0.072016
C6    C     C_R   0.880363 0.617966 0.617987 -0.063918
C7    C     C_R   0.104327 0.274114 0.547205 -0.068492
C8    C     C_R   0.910629 0.733928 0.716675 -0.069708
C9    C     C_R   0.138428 0.630807 0.645820 -0.035570
C10   C     C_R   0.873275 0.383494 0.454882 -0.008184
C11   C     C_R   0.354895 0.498017 0.499135 -0.110734
C12   C     C_R   0.646194 0.486662 0.499711 -0.151609
C13   C     C_R   0.977106 0.386240 0.512616 0.029705
C14   C     C_R   0.035872 0.627555 0.646177 0.020271
C15   C     C_R   0.984711 0.624648 0.652599 0.008415
C16   C     C_R   0.028961 0.386610 0.549397 0.007289
C17   C     C_R   0.954869 0.504559 0.571186 0.066526
C18   C     C_R   0.058089 0.508092 0.600086 0.064340
C19   C     C_R   0.947393 0.273184 0.411025 -0.237128
C20   C     C_R   0.064790 0.745310 0.676437 -0.208139
C21   C     C_R   0.896289 0.270143 0.382294 0.173227
C22   C     C_R   0.115604 0.748931 0.679595 0.183799
C23   C     C_R   0.407777 0.499790 0.499864 0.800977
C24   C     C_R   0.592595 0.495377 0.499372 0.804609
C25   C     C_R   0.052849 0.271605 0.537787 -0.078119
C26   C     C_R   0.962334 0.735497 0.737494 -0.082483
C27   C     C_2   0.492595 0.111352 0.399488 -0.229363
C28   C     C_2   0.508793 0.888544 0.600349 -0.237834
C29   C     C_2   0.512342 0.062165 0.498801 0.143107
C30   C     C_2   0.489038 0.938570 0.501746 0.142457
C31   C     C_2   0.505275 0.508800 0.081960 -0.033459
C32   C     C_2   0.497954 0.483942 0.917608 -0.036414
C33   C     C_R   0.184344 0.402183 0.582796 0.566191
C34   C     C_R   0.828234 0.610894 0.591592 0.541186
C35   C     C_R   0.189420 0.627917 0.646936 0.562956
C36   C     C_R   0.821657 0.382291 0.437793 0.562670
C37   C     C_R   0.282622 0.617772 0.526783 0.227760
C38   C     C_R   0.716551 0.502392 0.385288 0.191488
C39   C     C_R   0.333135 0.615298 0.527332 -0.190187
C40   C     C_R   0.666050 0.500883 0.384844 -0.154111
C41   C     C_R   0.324890 0.379091 0.450323 -0.098361
C42   C     C_R   0.678101 0.465120 0.613198 -0.104343
C43   C     C_R   0.274000 0.382058 0.450661 -0.035685
C44   C     C_R   0.729068 0.466173 0.613408 -0.050493
C45   C     C_R   0.254767 0.504290 0.521458 0.180244
C46   C     C_R   0.748312 0.486867 0.500897 0.255691
Cu1   Cu    Cu3+1 0.508480 0.521810 0.644910 0.992209
Cu2   Cu    Cu3+1 0.491520 0.478190 0.355090 0.987556
H1    H     H_    0.642446 0.512782 0.294606 0.195229
H2    H     H_    0.354949 0.703587 0.540116 0.142501
H3    H     H_    0.963565 0.186791 0.347088 0.162796
H4    H     H_    0.047731 0.834878 0.689738 0.160894
N1    N     N_R   0.208207 0.511066 0.578225 -0.449281
N2    N     N_R   0.800681 0.494243 0.506523 -0.476379
N3    N     N_2   0.478780 0.445430 0.137360 -0.266846
N4    N     N_2   0.521220 0.554570 0.862640 -0.263140
O1    O     O_R   0.504520 0.332330 0.577400 -0.559320
O2    O     O_R   0.495480 0.667670 0.422600 -0.560458
O3    O     O_R   0.490210 0.295500 0.332650 -0.571458
O4    O     O_R   0.509790 0.704500 0.667350 -0.580515
O5    O     O_R   0.437420 0.518430 0.622370 -0.573608
O6    O     O_R   0.562580 0.481570 0.377630 -0.577573
O7    O     O_R   0.423110 0.481600 0.377610 -0.579864
O8    O     O_R   0.576890 0.518400 0.622390 -0.570583
O9    O     O_2   0.210706 0.309535 0.607014 -0.515053
O10   O     O_2   0.804719 0.718581 0.650989 -0.516895
O11   O     O_2   0.792292 0.270119 0.355733 -0.486035
O12   O     O_2   0.219899 0.738022 0.726627 -0.501480
C47   C     C_1   0.345951 0.254555 0.396347 0.290756
N5    N     N_1   0.362704 0.155102 0.353359 -0.269679
C48   C     C_1   0.659308 0.438169 0.727734 0.301914
N6    N     N_1   0.644467 0.416609 0.819244 -0.241800
C49   C     C_1   0.537147 0.969835 0.744396 0.312883
N7    N     N_1   0.559633 0.034297 0.859593 -0.222062
C50   C     C_1   0.465701 0.028400 0.253948 0.337734
N8    N     N_1   0.444377 0.962600 0.137597 -0.227620
C51   C     C_1   0.467373 0.366320 0.815900 0.386236
N9    N     N_1   0.442466 0.272031 0.736383 -0.276323
C52   C     C_1   0.546825 0.597843 0.179901 0.371326
N10   N     N_1   0.579748 0.671245 0.257684 -0.293147
C53   C     C_1   0.537981 0.685453 0.950848 0.463820
N11   N     N_1   0.551825 0.794582 0.023030 -0.285608
C54   C     C_1   0.430038 0.399554 0.069705 0.453765
N12   N     N_1   0.389414 0.361635 0.014636 -0.276197
C55   C     C_1   0.241492 0.265224 0.354549 0.331238
N13   N     N_1   0.215664 0.172025 0.277345 -0.223085
C56   C     C_1   0.762281 0.446632 0.729492 0.297195
N14   N     N_1   0.788836 0.431088 0.822066 -0.249426
C57   C     C_1   0.126608 0.151158 0.516354 0.365589
N15   N     N_1   0.144225 0.052948 0.491066 -0.254628
C58   C     C_1   0.889731 0.852110 0.801841 0.368540
N16   N     N_1   0.873346 0.946560 0.869973 -0.239310
N17   N     N_3   0.735075 0.521870 0.268270 -0.555359
H5    H     H_    0.753633 0.440820 0.215981 0.254052
H6    H     H_    0.760491 0.605491 0.314221 0.244954
N18   N     N_3   0.260118 0.722029 0.495648 -0.558579
H7    H     H_    0.268662 0.810373 0.588298 0.280755
H8    H     H_    0.222112 0.700394 0.459757 0.230994
N19   N     N_3   0.868317 0.151037 0.277542 -0.487881
H9    H     H_    0.876339 0.075271 0.313410 0.237201
H10   H     H_    0.879956 0.128018 0.176799 0.238625
N20   N     N_3   0.143400 0.871380 0.708923 -0.490090
H11   H     H_    0.153511 0.865126 0.610193 0.238474
H12   H     H_    0.121700 0.949937 0.740088 0.227430
C59   C     C_1   0.026185 0.155425 0.536124 0.235984
N21   N     N_1   0.005140 0.062869 0.535294 -0.279282
C60   C     C_1   0.991490 0.843863 0.861876 0.238246
N22   N     N_1   0.014521 0.930092 0.961261 -0.260474
N23   N     N_3   0.443246 0.875544 0.401739 -0.547646
H13   H     H_    0.417972 0.946106 0.421322 0.235263
H14   H     H_    0.427005 0.802693 0.427721 0.215836
N24   N     N_3   0.557798 0.126517 0.599793 -0.540490
H15   H     H_    0.583485 0.057039 0.580374 0.221828
H16   H     H_    0.573685 0.200232 0.574462 0.222235

loop_
_geom_bond_atom_site_label_1
_geom_bond_atom_site_label_2
_ccdc_geom_bond_type
Cu2   N3    S    
C56   N14   T    
N17   H5    S    
C37   C45   A    
C35   N1    A    
C8    C26   A    
C49   N7    T    
C14   C18   A    
C29   N24   S    
C34   O10   S    
N24   H16   S    
C53   N11   T    
C36   O11   S    
C25   C59   S    
N4    C53   S    
C51   N9    T    
C19   C21   A    
C1    O3    A    
C21   N19   S    
C2    O4    A    
C9    C22   A    
C27   C29   D    
C40   H1    S    
C7    C57   S    
C3    C18   A    
C11   C23   S    
C12   C42   A    
C32   C51   S    
C31   C32   S    
C5    C33   A    
C60   N22   T    
C44   C56   S    
C1    C27   S    
C23   O7    A    
Cu1   O4    S    
C45   N1    S    
C24   O8    A    
C41   C43   A    
C47   N5    T    
C42   C44   A    
C27   C50   S    
C28   C49   S    
N24   H15   S    
C44   C46   A    
C10   C21   A    
C33   N1    A    
C13   C19   A    
C30   N23   S    
C33   O9    S    
C43   C55   S    
Cu1   Cu2   S    
C14   C20   A    
C4    C6    A    
Cu1   O8    S    
C5    C7    A    
Cu2   O7    S    
C6    C8    A    
C3    C5    A    
C55   N13   T    
C6    C34   A    
C37   N18   S    
N18   H8    S    
C12   C40   A    
C11   C39   A    
C50   N8    T    
C29   C30   S    
C3    C9    A    
C1    O1    A    
Cu1   O1    S    
Cu2   O6    S    
C54   N12   T    
N18   H7    S    
C46   N2    S    
C8    C58   S    
N20   H12   S    
C43   C45   A    
C4    C17   A    
C16   C18   A    
N19   H10   S    
C20   C22   A    
C34   N2    A    
N3    C54   S    
C58   N16   T    
Cu2   O3    S    
C41   C47   S    
C16   C25   A    
C15   C17   A    
C24   O6    A    
C15   C26   A    
C22   N20   S    
C26   C60   S    
Cu1   O5    S    
C10   C36   A    
Cu2   O2    S    
C2    O2    A    
C31   C52   S    
C59   N21   T    
C12   C24   S    
C7    C25   A    
N19   H9    S    
C13   C17   A    
N23   H14   S    
C48   N6    T    
C20   H4    S    
N23   H13   S    
C38   C40   A    
N17   H6    S    
C35   O12   S    
C38   N17   S    
C28   C30   D    
C42   C48   S    
C11   C41   A    
N20   H11   S    
C38   C46   A    
C36   N2    A    
C52   N10   T    
C19   H3    S    
C23   O5    A    
C39   H2    S    
C37   C39   A    
C13   C16   A    
C9    C35   A    
C14   C15   A    
C2    C28   S    
C31   N3    D    
C57   N15   T    
C4    C10   A    
C32   N4    D    
Cu1   N4    S    
