data_mof_unit_43612.cif
_audit_creation_date              2012-10-26T21:10:24-0400
_audit_creation_method            fapswitch 2.2
_symmetry_space_group_name_H-M    P1
_symmetry_Int_Tables_number       1
_space_group_crystal_system       triclinic
_cell_length_a                    10.887656
_cell_length_b                    10.922472
_cell_length_c                    9.698583
_cell_angle_alpha                 90.068852
_cell_angle_beta                  90.830454
_cell_angle_gamma                 90.22137
_cell_volume                      1153.22596628

loop_
_atom_site_label
_atom_site_type_symbol
_atom_type_description
_atom_site_fract_x
_atom_site_fract_y
_atom_site_fract_z
_atom_type_partial_charge
C1    C     C_R   0.501754 0.265385 0.500021 0.554340
C2    C     C_R   0.838479 0.674337 0.945878 -0.124563
C3    C     C_R   0.790391 0.580385 0.025841 -0.138615
C4    C     C_R   0.262265 0.503116 0.498677 0.546665
C5    C     C_R   0.792125 0.459641 0.978237 -0.097803
C6    C     C_R   0.840454 0.431411 0.848269 0.059979
C7    C     C_R   0.887474 0.527786 0.766239 0.070296
C8    C     C_2   0.501870 0.932891 0.386740 -0.165893
C9    C     C_2   0.491969 0.866650 0.502263 -0.121084
C10   C     C_2   0.496384 0.066883 0.386668 -0.163713
C11   C     C_2   0.508504 0.133416 0.502233 -0.121636
C12   C     C_R   0.212464 0.593446 0.979369 -0.099200
C13   C     C_2   0.459886 0.408709 0.921476 -0.034185
C14   C     C_2   0.465476 0.406515 0.076919 -0.019051
C15   C     C_R   0.498406 0.734636 0.500119 0.555433
C16   C     C_R   0.737807 0.500787 0.501450 0.545875
C17   C     C_R   0.208974 0.683573 0.081407 -0.111840
C18   C     C_R   0.159023 0.656752 0.209767 -0.056241
C19   C     C_R   0.112552 0.539150 0.236661 0.065139
C20   C     C_R   0.114746 0.449389 0.133266 -0.080486
C21   C     C_R   0.165603 0.476428 0.005395 -0.103742
C22   C     C_3   0.835159 0.300036 0.798592 -0.241248
C23   C     C_R   0.932095 0.502930 0.377876 -0.157865
C24   C     C_3   0.928577 0.220371 0.876558 -0.313388
C25   C     C_3   0.918959 0.086753 0.831274 -0.456695
C26   C     C_R   0.871834 0.502101 0.504324 -0.013751
C27   C     C_R   0.941279 0.507072 0.628764 -0.039477
C28   C     C_R   0.068184 0.504946 0.622623 -0.160072
C29   C     C_R   0.128257 0.506868 0.496306 -0.009326
C30   C     C_R   0.058790 0.512181 0.372251 -0.034390
C31   C     C_R   0.887020 0.648293 0.817021 -0.091029
Cu1   Cu    Cu3+1 0.500020 0.500020 0.638630 0.918310
Cu2   Cu    Cu3+1 0.499980 0.499980 0.361370 0.924126
H1    H     H_    0.252477 0.614190 0.880625 0.131402
H2    H     H_    0.437639 0.322378 0.126835 0.132849
H3    H     H_    0.245420 0.774015 0.061244 0.092436
H4    H     H_    0.518187 0.580463 0.106343 0.201874
H5    H     H_    0.156880 0.727181 0.288419 0.095890
H6    H     H_    0.078552 0.358572 0.152300 0.090464
H7    H     H_    0.170152 0.406159 0.927143 0.090155
H8    H     H_    0.880421 0.502171 0.281989 0.136616
H9    H     H_    0.120142 0.506113 0.718141 0.131988
H10   H     H_    0.923886 0.722482 0.755945 0.100619
H11   H     H_    0.837598 0.767668 0.983489 0.104010
H12   H     H_    0.750838 0.601604 0.124597 0.127528
H13   H     H_    0.825938 0.049918 0.852837 0.147522
H14   H     H_    0.937114 0.078348 0.719240 0.154245
H15   H     H_    0.987825 0.031375 0.889004 0.138677
H16   H     H_    0.022874 0.254117 0.855883 0.157608
H17   H     H_    0.912733 0.225633 0.989381 0.153842
H18   H     H_    0.740713 0.263847 0.814135 0.148759
H19   H     H_    0.853037 0.293464 0.686462 0.149323
H20   H     H_    0.753845 0.388102 0.042016 0.112966
H21   H     H_    0.512411 0.888056 0.287574 0.141473
H22   H     H_    0.476187 0.907812 0.601921 0.096013
H23   H     H_    0.483743 0.111463 0.287416 0.135534
H24   H     H_    0.526197 0.092540 0.602077 0.092415
H25   H     H_    0.421301 0.328932 0.870025 0.133386
H26   H     H_    0.539822 0.572190 0.894756 0.212967
N1    N     N_2   0.498640 0.498660 0.846910 -0.352245
N2    N     N_2   0.498610 0.498630 0.153040 -0.348324
O1    O     O_R   0.500020 0.321960 0.617040 -0.507728
O2    O     O_R   0.499980 0.321920 0.382900 -0.499133
O3    O     O_R   0.319660 0.500030 0.617070 -0.510829
O4    O     O_R   0.319620 0.499990 0.382930 -0.476999
O5    O     O_R   0.500020 0.678080 0.617100 -0.502145
O6    O     O_R   0.499980 0.678040 0.382960 -0.502172
O7    O     O_R   0.680380 0.500010 0.617070 -0.484465
O8    O     O_R   0.680340 0.499970 0.382930 -0.511393

loop_
_geom_bond_atom_site_label_1
_geom_bond_atom_site_label_2
_ccdc_geom_bond_type
C12   C17   A    
H4    N2    S    
C6    C7    A    
C16   O7    A    
C17   H3    S    
C10   H23   S    
C25   H14   S    
Cu1   O5    S    
C4    C29   S    
C23   H8    S    
Cu2   O8    S    
Cu1   O7    S    
C15   O6    A    
Cu1   Cu2   S    
C19   C20   A    
C17   C18   A    
C18   H5    S    
Cu1   O1    S    
H26   N1    S    
C13   N1    D    
C13   C14   S    
C24   C25   S    
C24   H17   S    
C15   O5    A    
C25   H15   S    
Cu1   O3    S    
C26   C27   A    
C29   C30   A    
C21   H7    S    
C31   H10   S    
C12   C21   A    
C9    H22   S    
C5    C6    A    
C1    O2    A    
C8    C10   S    
C28   C29   A    
C14   N2    D    
C2    C3    A    
C22   H19   S    
C2    C31   A    
C16   C26   S    
C4    O4    A    
C22   C24   S    
Cu2   O2    S    
C7    C31   A    
C10   C11   D    
Cu1   N1    S    
Cu2   O4    S    
C6    C22   S    
C23   C30   A    
C27   C28   A    
C7    C27   S    
C20   C21   A    
Cu2   O6    S    
C1    O1    A    
Cu2   N2    S    
C18   C19   A    
C23   C26   A    
C8    H21   S    
C24   H16   S    
C20   H6    S    
C4    O3    A    
C22   H18   S    
C5    H20   S    
C13   H25   S    
C28   H9    S    
C11   H24   S    
C19   C30   S    
C12   H1    S    
C25   H13   S    
C14   H2    S    
C16   O8    A    
C3    H12   S    
C9    C15   S    
C2    H11   S    
C8    C9    D    
C3    C5    A    
C1    C11   S    
