data_mof_unit_10229.cif
_audit_creation_date              2012-12-10T16:50:54-0500
_audit_creation_method            fapswitch 2.2
_symmetry_space_group_name_H-M    P1
_symmetry_Int_Tables_number       1
_space_group_crystal_system       triclinic
_cell_length_a                    7.777267
_cell_length_b                    8.598659
_cell_length_c                    10.942183
_cell_angle_alpha                 92.498626
_cell_angle_beta                  85.247461
_cell_angle_gamma                 92.994145
_cell_volume                      727.669810592

loop_
_atom_site_label
_atom_site_type_symbol
_atom_type_description
_atom_site_fract_x
_atom_site_fract_y
_atom_site_fract_z
_atom_type_partial_charge
C1    C     C_R   0.544235 0.794033 0.496129 0.921712
C2    C     C_R   0.953861 0.410005 0.049930 -0.109385
C3    C     C_R   0.028371 0.560659 0.075661 -0.105659
C4    C     C_R   0.971631 0.439346 0.924340 -0.105660
C5    C     C_R   0.181384 0.567518 0.136711 -0.207924
C6    C     C_R   0.818618 0.432487 0.863289 -0.207926
C7    C     C_R   0.343057 0.531681 0.072210 0.074631
C8    C     C_R   0.656945 0.468323 0.927790 0.074633
C9    C     C_R   0.355963 0.551107 0.945694 0.067220
C10   C     C_R   0.644038 0.448896 0.054305 0.067220
C11   C     C_R   0.491894 0.488144 0.127476 -0.216027
C12   C     C_R   0.455765 0.205967 0.503871 0.921713
C13   C     C_R   0.508108 0.511858 0.872524 -0.216027
C14   C     C_1   0.684318 0.996172 0.371372 0.182027
C15   C     C_1   0.315682 0.003828 0.628628 0.182028
C16   C     C_2   0.560582 0.953144 0.473098 -0.231833
C17   C     C_2   0.439418 0.046856 0.526902 -0.231833
C18   C     C_R   0.503102 0.505436 0.739913 0.882686
C19   C     C_R   0.496898 0.494565 0.260087 0.882685
C20   C     C_R   0.215250 0.620481 0.898255 -0.178572
C21   C     C_R   0.784752 0.379523 0.101745 -0.178571
C22   C     C_R   0.046142 0.589999 0.950070 -0.109385
H1    H     H_    0.061981 0.363138 0.872650 0.167500
H2    H     H_    0.966148 0.232032 0.440302 0.195088
H3    H     H_    0.000920 0.664313 0.686916 0.170170
H4    H     H_    0.033852 0.767968 0.559697 0.195089
H5    H     H_    0.938021 0.636866 0.127351 0.167500
H6    H     H_    0.235139 0.698987 0.823250 0.172397
H7    H     H_    0.764863 0.301016 0.176749 0.172396
H8    H     H_    0.967486 0.683378 0.925387 0.151613
H9    H     H_    0.032516 0.316626 0.074613 0.151612
H10   H     H_    0.169488 0.621353 0.227353 0.189973
H11   H     H_    0.830516 0.378654 0.772646 0.189975
H12   H     H_    0.999081 0.335688 0.313083 0.170169
N1    N     N_2   0.950330 0.457950 0.466250 -0.017688
N2    N     N_2   0.049670 0.542050 0.533750 -0.017689
N3    N     N_1   0.782531 0.028483 0.290059 -0.256421
N4    N     N_1   0.217469 0.971518 0.709941 -0.256421
N5    N     N_3   0.027641 0.332813 0.404364 -0.317920
N6    N     N_3   0.972360 0.667188 0.595635 -0.317922
O1    O     O_R   0.389250 0.738570 0.508280 -0.628382
O2    O     O_R   0.610750 0.261430 0.491720 -0.628382
O3    O     O_R   0.678390 0.711630 0.486650 -0.604496
O4    O     O_R   0.321610 0.288370 0.513350 -0.604496
O5    O     O_R   0.355430 0.513480 0.694040 -0.631344
O6    O     O_R   0.644570 0.486520 0.305960 -0.631344
O7    O     O_R   0.644570 0.486540 0.672410 -0.628416
O8    O     O_R   0.355430 0.513460 0.327590 -0.628415
Zn1   Zn    Zn3+2 0.306940 0.517990 0.514440 0.959051
Zn2   Zn    Zn3+2 0.693060 0.482010 0.485560 0.959052

loop_
_geom_bond_atom_site_label_1
_geom_bond_atom_site_label_2
_ccdc_geom_bond_type
C12   C17   S    
O4    Zn1   S    
C2    C4    A    
C15   N4    T    
C15   C17   S    
C8    C13   A    
C4    C22   A    
O6    Zn2   S    
C9    C20   A    
N1    N5    S    
N1    N2    D    
C6    H11   S    
O5    Zn1   S    
C5    H10   S    
H4    N6    S    
C18   O7    A    
N1    Zn2   S    
C3    H5    S    
C2    C3    A    
C19   O6    A    
C12   O4    A    
C1    C16   S    
C22   H8    S    
C14   N3    T    
C7    C11   A    
C11   C19   S    
C2    C21   A    
C21   H7    S    
C13   C18   S    
O2    Zn2   S    
C6    C8    A    
O1    Zn1   S    
O8    Zn1   S    
C20   C22   A    
O7    Zn2   S    
H3    N6    S    
C14   C16   S    
C10   C11   A    
H12   N5    S    
C18   O5    A    
C7    C9    A    
N2    N6    S    
H2    N5    S    
C4    C6    A    
C1    O1    A    
C5    C7    A    
C4    H1    S    
C9    C13   A    
C19   O8    A    
C2    H9    S    
C3    C22   A    
C12   O2    A    
C20   H6    S    
C10   C21   A    
C1    O3    A    
C8    C10   A    
N2    Zn1   S    
O3    Zn2   S    
C16   C17   D    
C3    C5    A    
