data_mof_unit_5045.cif
_audit_creation_date              2012-10-26T21:01:03-0400
_audit_creation_method            fapswitch 2.2
_symmetry_space_group_name_H-M    P1
_symmetry_Int_Tables_number       1
_space_group_crystal_system       triclinic
_cell_length_a                    10.937088
_cell_length_b                    10.830188
_cell_length_c                    9.547343
_cell_angle_alpha                 89.733399
_cell_angle_beta                  89.987322
_cell_angle_gamma                 90.554733
_cell_volume                      1130.82435884

loop_
_atom_site_label
_atom_site_type_symbol
_atom_type_description
_atom_site_fract_x
_atom_site_fract_y
_atom_site_fract_z
_atom_type_partial_charge
C1    C     C_R   0.500971 0.262342 0.500223 0.544659
C2    C     C_R   0.451578 0.403880 0.074862 -0.000853
C3    C     C_R   0.450712 0.404348 0.926048 -0.012325
C4    C     C_R   0.265437 0.495186 0.499976 0.609782
C5    C     C_R   0.537103 0.602279 0.926142 0.173895
C6    C     C_3   0.659125 0.666102 0.922969 0.136795
C7    C     C_3   0.651846 0.672037 0.082136 -0.228084
C8    C     C_R   0.501213 0.737636 0.499722 0.584929
C9    C     C_R   0.734767 0.503831 0.499880 0.561507
C10   C     C_2   0.936892 0.520147 0.386540 0.308505
C11   C     C_2   0.866503 0.520194 0.501836 -0.046635
C12   C     C_R   0.510589 0.129262 0.500074 0.021637
C13   C     C_2   0.067800 0.546925 0.406271 0.187765
C14   C     C_2   0.133026 0.478273 0.496971 0.224171
C15   C     C_R   0.512710 0.062933 0.625750 -0.018569
C16   C     C_3   0.962807 0.438989 0.164543 -0.102072
C17   C     C_3   0.863709 0.653036 0.869677 -0.126858
C18   C     C_3   0.116378 0.356225 0.697275 -0.121106
C19   C     C_3   0.250142 0.842270 0.834563 -0.093425
C20   C     C_R   0.523673 0.065223 0.373231 -0.146190
C21   C     C_R   0.523326 0.936633 0.372878 -0.145840
C22   C     C_R   0.510797 0.870864 0.499321 0.048882
C23   C     C_R   0.512428 0.935839 0.625290 0.030957
C24   C     C_3   0.429165 0.927281 0.749366 0.161708
C25   C     C_3   0.429110 0.067868 0.749471 -0.226273
C26   C     C_R   0.533483 0.603777 0.073159 0.115543
Cl1   Cl    Cl    0.129111 0.677754 0.317875 -0.626817
Cu1   Cu    Cu3+1 0.499990 0.499980 0.640670 0.992865
Cu2   Cu    Cu3+1 0.500010 0.500020 0.359330 1.001504
H1    H     H_    0.475297 0.107411 0.842957 0.083280
H2    H     H_    0.475415 0.884491 0.841434 0.073031
H3    H     H_    0.339042 0.109114 0.723807 0.150543
H4    H     H_    0.998450 0.354107 0.215985 0.127332
H5    H     H_    0.039104 0.498251 0.125745 0.154295
H6    H     H_    0.909062 0.409323 0.071867 0.152688
H7    H     H_    0.886093 0.700130 0.969978 0.138048
H8    H     H_    0.861240 0.721165 0.782213 0.113626
H9    H     H_    0.938573 0.587390 0.848420 0.124705
H10   H     H_    0.118610 0.443976 0.757703 0.107479
H11   H     H_    0.206500 0.309851 0.699762 0.136960
H12   H     H_    0.414162 0.325028 0.130557 0.110236
H13   H     H_    0.049827 0.293712 0.750166 0.141392
H14   H     H_    0.238889 0.922408 0.905880 0.112461
H15   H     H_    0.296683 0.765186 0.889817 0.122977
H16   H     H_    0.157563 0.809092 0.804503 0.143637
H17   H     H_    0.411866 0.326420 0.871000 0.094968
H18   H     H_    0.655587 0.757124 0.868244 0.078859
H19   H     H_    0.722995 0.618566 0.136878 0.232434
H20   H     H_    0.640602 0.767601 0.120984 0.064997
H21   H     H_    0.907975 0.535690 0.603645 0.083472
H22   H     H_    0.528505 0.113752 0.273894 0.130576
H23   H     H_    0.526810 0.889505 0.273435 0.128460
N1    N     N_R   0.500780 0.500930 0.147930 -0.222760
N2    N     N_R   0.500780 0.500890 0.852020 -0.209698
O1    O     O_R   0.500000 0.319640 0.618810 -0.516852
O2    O     O_3   0.752500 0.586330 0.877825 -0.525477
O3    O     O_3   0.077646 0.374363 0.557906 -0.616095
O4    O     O_3   0.314255 0.876283 0.712099 -0.529192
O5    O     O_R   0.500010 0.319680 0.381230 -0.523525
O6    O     O_R   0.321940 0.499980 0.618760 -0.526589
O7    O     O_R   0.321950 0.500020 0.381180 -0.470777
O8    O     O_R   0.499990 0.680320 0.618770 -0.496950
O9    O     O_R   0.500000 0.680360 0.381190 -0.504485
O10   O     O_R   0.678050 0.499980 0.618820 -0.458294
O11   O     O_R   0.678060 0.500020 0.381240 -0.459947
O12   O     O_3   0.885280 0.505669 0.254278 -0.555870

loop_
_geom_bond_atom_site_label_1
_geom_bond_atom_site_label_2
_ccdc_geom_bond_type
C8    C22   S    
C23   C24   S    
C19   H16   S    
C24   C25   S    
C6    C7    S    
C17   H7    S    
C16   H4    S    
C9    O10   A    
C18   O3    S    
C12   C15   A    
C18   H10   S    
C7    H19   S    
C12   C20   A    
C25   H3    S    
Cu2   O9    S    
C2    C3    A    
C1    O1    A    
C24   H2    S    
C10   O12   S    
C19   O4    S    
C11   H21   S    
C17   H8    S    
C13   C14   D    
C20   C21   A    
C9    C11   S    
C17   O2    S    
C4    O6    A    
C1    C12   S    
Cu2   N1    S    
Cu2   O11   S    
Cu1   O10   S    
C15   C23   A    
Cu1   Cu2   S    
Cu1   O1    S    
C19   H14   S    
C20   H22   S    
Cu2   O7    S    
C17   H9    S    
C1    O5    A    
C16   H6    S    
C4    C14   S    
C5    C6    S    
C3    N2    A    
C9    O11   A    
C15   C25   S    
C16   O12   S    
C10   C11   D    
C2    H12   S    
C5    C26   A    
C26   N1    A    
C5    N2    A    
Cu1   O6    S    
C19   H15   S    
C7    H20   S    
C24   O4    S    
C8    O9    A    
C6    H18   S    
C6    O2    S    
C25   H1    S    
C14   O3    S    
C18   H11   S    
C22   C23   A    
C13   Cl1   S    
Cu1   N2    S    
C3    H17   S    
C18   H13   S    
C16   H5    S    
C21   C22   A    
C7    C26   S    
C4    O7    A    
C2    N1    A    
C21   H23   S    
Cu2   O5    S    
C8    O8    A    
C10   C13   S    
Cu1   O8    S    
