data_mof_unit_37026.cif
_audit_creation_date              2012-12-10T20:04:59-0500
_audit_creation_method            fapswitch 2.2
_symmetry_space_group_name_H-M    P1
_symmetry_Int_Tables_number       1
_space_group_crystal_system       triclinic
_cell_length_a                    15.96403
_cell_length_b                    15.974238
_cell_length_c                    25.797992
_cell_angle_alpha                 90.203635
_cell_angle_beta                  90.350005
_cell_angle_gamma                 90.572178
_cell_volume                      6578.33509194

loop_
_atom_site_label
_atom_site_type_symbol
_atom_type_description
_atom_site_fract_x
_atom_site_fract_y
_atom_site_fract_z
_atom_type_partial_charge
C1    C     C_R   0.004555 0.532848 0.446688 0.073137
C2    C     C_R   0.492728 0.999143 0.609784 0.572244
C3    C     C_2   0.110486 0.206530 0.984710 0.665668
C4    C     C_2   0.193019 0.898213 0.036169 0.690178
C5    C     C_2   0.792892 0.007091 0.929598 0.654881
C6    C     C_2   0.964853 0.193950 0.050963 0.690850
C7    C     C_2   0.023272 0.809687 0.947201 0.679953
C8    C     C_2   0.277941 0.375202 0.527482 0.673034
C9    C     C_2   0.707900 0.599595 0.435662 0.693098
C10   C     C_2   0.495810 0.289903 0.561165 0.691836
C11   C     C_2   0.725007 0.816311 0.515487 0.686134
C12   C     C_2   0.681300 0.493023 0.527455 0.665610
C13   C     C_R   0.001106 0.509771 0.390346 0.580147
C14   C     C_2   0.316861 0.522308 0.469751 0.691625
C15   C     C_2   0.586780 0.716250 0.560917 0.641225
C16   C     C_2   0.484894 0.294159 0.440860 0.631264
C17   C     C_R   0.998353 0.495925 0.608878 0.576602
C18   C     C_R   0.007887 0.500486 0.890649 0.575288
C19   C     C_R   0.992208 0.499836 0.109353 0.574993
C20   C     C_R   0.499706 0.006403 0.891100 0.575070
C21   C     C_R   0.499887 0.990787 0.109373 0.599212
C22   C     C_R   0.339779 0.160195 0.249974 0.544727
C23   C     C_R   0.660237 0.839822 0.750011 0.520661
C24   C     C_R   0.840112 0.339851 0.250022 0.519012
C25   C     C_R   0.993298 0.484879 0.550993 0.072964
C26   C     C_R   0.159943 0.660102 0.750032 0.538425
C27   C     C_R   0.659999 0.839740 0.249899 0.547674
C28   C     C_R   0.340005 0.160242 0.750104 0.535773
C29   C     C_R   0.160090 0.659996 0.250084 0.539661
C30   C     C_R   0.839881 0.340027 0.749942 0.533624
C31   C     C_R   0.340027 0.839938 0.749937 0.538950
C32   C     C_R   0.659964 0.160077 0.250053 0.516056
C33   C     C_R   0.839770 0.660191 0.749975 0.510480
C34   C     C_R   0.160217 0.339792 0.250044 0.523724
C35   C     C_R   0.660165 0.159919 0.750007 0.525090
C36   C     C_R   0.499029 0.004252 0.447093 0.051486
C37   C     C_R   0.339867 0.840048 0.249967 0.534079
C38   C     C_R   0.160126 0.339883 0.750023 0.545294
C39   C     C_R   0.839800 0.660048 0.249922 0.545394
C40   C     C_1   0.276556 0.776764 0.249959 0.057379
C41   C     C_1   0.723449 0.223219 0.750052 0.036929
C42   C     C_1   0.223446 0.276556 0.250082 0.037684
C43   C     C_1   0.776536 0.723418 0.749959 0.026679
C44   C     C_1   0.723263 0.223408 0.250069 0.027360
C45   C     C_1   0.276741 0.776604 0.749932 0.049619
C46   C     C_1   0.776526 0.723354 0.249947 0.051180
C47   C     C_R   0.472138 0.996100 0.553887 0.062320
C48   C     C_1   0.223460 0.276602 0.750056 0.026332
C49   C     C_1   0.276672 0.223488 0.750077 0.038636
C50   C     C_1   0.723329 0.776482 0.249942 0.049514
C51   C     C_1   0.223250 0.723425 0.750071 0.049548
C52   C     C_1   0.776773 0.276567 0.249958 0.020874
C53   C     C_1   0.723470 0.776604 0.750008 0.028380
C54   C     C_1   0.276516 0.223377 0.250016 0.033910
C55   C     C_1   0.776570 0.276743 0.749907 0.045180
C56   C     C_1   0.223411 0.723264 0.250114 0.061701
C57   C     C_R   0.348485 0.922201 0.043258 0.231028
C58   C     C_R   0.497196 0.016927 0.949377 0.078615
C59   C     C_R   0.647975 0.043689 0.957772 0.234901
C60   C     C_R   0.948957 0.348977 0.041087 0.243200
C61   C     C_R   0.044496 0.656191 0.956958 0.195735
C62   C     C_R   0.643292 0.912181 0.028820 0.186671
C63   C     C_R   0.343348 0.028222 0.955665 0.195307
C64   C     C_R   0.941241 0.650204 0.045016 0.222898
C65   C     C_R   0.070265 0.354712 0.962038 0.229065
C66   C     C_R   0.837505 0.477228 0.534878 0.182261
C67   C     C_R   0.159782 0.541083 0.460158 0.173857
C68   C     C_R   0.499612 0.843076 0.544852 0.183133
C69   C     C_R   0.499522 0.963513 0.053363 0.089820
C70   C     C_R   0.437538 0.146543 0.447364 0.210665
C71   C     C_R   0.134535 0.425637 0.541962 0.224339
C72   C     C_R   0.861656 0.587744 0.450887 0.238344
C73   C     C_R   0.434142 0.146446 0.552362 0.189001
C74   C     C_R   0.613282 0.902194 0.470120 0.221156
C75   C     C_R   0.271787 0.936291 0.016744 -0.005767
C76   C     C_R   0.717063 0.990274 0.961035 -0.005222
C77   C     C_R   0.988638 0.274731 0.026114 -0.075440
C78   C     C_R   0.011457 0.731098 0.977197 -0.030239
C79   C     C_R   0.707387 0.915587 0.990112 0.009675
C80   C     C_R   0.023830 0.502435 0.947903 0.081633
C81   C     C_R   0.269651 0.988082 0.972492 -0.095961
C82   C     C_R   0.963619 0.728308 0.023473 -0.017557
C83   C     C_R   0.054727 0.279089 0.989771 -0.042760
C84   C     C_R   0.767276 0.513616 0.509591 -0.008327
C85   C     C_R   0.228786 0.501539 0.483774 -0.082881
C86   C     C_R   0.573335 0.797884 0.535267 -0.010517
C87   C     C_R   0.461807 0.220911 0.472948 -0.012296
C88   C     C_R   0.214346 0.438483 0.520519 -0.020586
C89   C     C_R   0.779559 0.568838 0.467129 0.015357
C90   C     C_R   0.462362 0.220300 0.528142 -0.089834
C91   C     C_R   0.975227 0.500125 0.052137 0.085952
C92   C     C_R   0.636287 0.835916 0.504388 0.013441
C93   C     C_R   0.928892 0.543551 0.473218 -0.063764
C94   C     C_R   0.068745 0.476457 0.524000 -0.062451
C95   C     C_R   0.533139 0.939496 0.477399 -0.056979
C96   C     C_R   0.452089 0.070328 0.527084 -0.017804
C97   C     C_R   0.077868 0.517189 0.475917 -0.041087
C98   C     C_R   0.919375 0.505356 0.522040 -0.071652
C99   C     C_R   0.458458 0.071444 0.472677 -0.022892
C100  C     C_R   0.493972 0.924342 0.524548 -0.041882
C101  C     C_R   0.420987 0.003233 0.976339 -0.041702
C102  C     C_R   0.502082 0.000764 0.390458 0.612067
C103  C     C_R   0.574311 0.968062 0.023983 -0.064664
C104  C     C_R   0.024135 0.426762 0.976124 -0.059708
C105  C     C_R   0.976442 0.576458 0.024808 -0.060728
C106  C     C_R   0.572049 0.015173 0.978185 -0.059010
C107  C     C_R   0.422657 0.963241 0.025435 -0.058109
C108  C     C_R   0.013850 0.578660 0.975530 -0.069060
C109  C     C_R   0.982576 0.425316 0.023818 -0.050615
C110  C     C_2   0.744918 0.836747 0.969701 0.659269
C111  C     C_2   0.193124 0.991358 0.939379 0.674787
C112  C     C_2   0.947785 0.804928 0.054571 0.681160
H1    H     H_    0.432209 0.777943 0.144151 0.361346
H2    H     H_    0.231264 0.557533 0.363910 0.367062
H3    H     H_    0.485100 0.767501 0.642193 0.357999
H4    H     H_    0.372581 0.251158 0.361345 0.360432
H5    H     H_    0.178457 0.261194 0.637005 0.373730
H6    H     H_    0.946307 0.723574 0.347133 0.362291
H7    H     H_    0.279345 0.075461 0.649366 0.352756
H8    H     H_    0.700724 0.949816 0.343375 0.341393
H9    H     H_    0.725649 0.716403 0.948299 0.359005
H10   H     H_    0.253386 0.950695 0.875540 0.331226
H11   H     H_    0.967660 0.866152 0.122137 0.367851
H12   H     H_    0.633650 0.222707 0.869961 0.355462
H13   H     H_    0.182879 0.122289 0.021978 0.375612
H14   H     H_    0.128362 0.792468 0.051732 0.345697
H15   H     H_    0.918925 0.006219 0.925358 0.368368
H16   H     H_    0.955684 0.131460 0.983057 0.328270
H17   H     H_    0.038355 0.862784 0.876920 0.367343
H18   H     H_    0.317074 0.265456 0.500959 0.378734
H19   H     H_    0.658439 0.615185 0.364208 0.355429
H20   H     H_    0.556453 0.212747 0.610565 0.323352
H21   H     H_    0.835397 0.856767 0.545200 0.370388
H22   H     H_    0.560136 0.475273 0.507827 0.410454
H23   H     H_    0.777205 0.370670 0.133807 0.354033
H24   H     H_    0.346201 0.561760 0.542064 0.340504
H25   H     H_    0.543750 0.598753 0.572485 0.376594
H26   H     H_    0.543790 0.335799 0.376806 0.356495
H27   H     H_    0.204736 0.622085 0.004795 0.359402
H28   H     H_    0.765384 0.873305 0.109728 0.353902
H29   H     H_    0.414226 0.221406 0.888909 0.368470
H30   H     H_    0.772847 0.554737 0.125087 0.364292
H31   H     H_    0.223797 0.293209 0.865141 0.372276
H32   H     H_    0.900865 0.319092 0.497311 0.343143
O1    O     O_3   0.500000 1.000000 0.250000 -0.485831
O2    O     O_R   0.500000 0.930770 0.634140 -0.543010
O3    O     O_3   0.669746 0.911238 0.366536 -0.499034
O4    O     O_2   0.815747 0.836158 0.952135 -0.452834
O5    O     O_R   0.695138 0.764684 0.965134 -0.610327
O6    O     O_2   0.126160 0.010781 0.958085 -0.371869
O7    O     O_R   0.196064 0.970134 0.886797 -0.602342
O8    O     O_2   0.905129 0.861548 0.037452 -0.372242
O9    O     O_R   0.982432 0.811623 0.104335 -0.648454
O10   O     O_2   0.123631 0.176027 0.942161 -0.367583
O11   O     O_R   0.145967 0.171945 0.029390 -0.624596
O12   O     O_2   0.140562 0.942439 0.056680 -0.413639
O13   O     O_R   0.930770 0.500000 0.365860 -0.500367
O14   O     O_R   0.180434 0.811766 0.032890 -0.606110
O15   O     O_2   0.785931 0.032958 0.885224 -0.442846
O16   O     O_R   0.872332 0.993614 0.950789 -0.564316
O17   O     O_2   0.955382 0.191040 0.097861 -0.375700
O18   O     O_R   0.952747 0.121015 0.021700 -0.554128
O19   O     O_2   0.025570 0.877608 0.968865 -0.395493
O20   O     O_R   0.030761 0.805586 0.893242 -0.617849
O21   O     O_2   0.319873 0.372948 0.567118 -0.384241
O22   O     O_R   0.285399 0.315329 0.488680 -0.577483
O23   O     O_2   0.647840 0.632339 0.456411 -0.424482
O24   O     O_R   0.069230 0.500000 0.634140 -0.517776
O25   O     O_R   0.709970 0.591368 0.381693 -0.633032
O26   O     O_2   0.483398 0.362505 0.549721 -0.379083
O27   O     O_R   0.541749 0.273750 0.606298 -0.578267
O28   O     O_2   0.751361 0.745736 0.508840 -0.441084
O29   O     O_R   0.776712 0.877681 0.538027 -0.627713
O30   O     O_2   0.666693 0.489274 0.573879 -0.419126
O31   O     O_R   0.617412 0.477069 0.491390 -0.616092
O32   O     O_2   0.342079 0.507825 0.426140 -0.381579
O33   O     O_R   0.373184 0.553070 0.507025 -0.551422
O34   O     O_2   0.643892 0.707934 0.592218 -0.485379
O35   O     O_R   1.000000 0.430770 0.865860 -0.513357
O36   O     O_R   0.532180 0.649432 0.550186 -0.555323
O37   O     O_2   0.459070 0.363882 0.451220 -0.399118
O38   O     O_R   0.533097 0.281924 0.396453 -0.664766
O39   O     O_R   1.000000 0.569230 0.134140 -0.511440
O40   O     O_R   0.569230 0.000000 0.865860 -0.503933
O41   O     O_R   0.430770 1.000000 0.134140 -0.510099
O42   O     O_R   1.000000 0.569230 0.865860 -0.504925
O43   O     O_R   1.000000 0.430770 0.134140 -0.501069
O44   O     O_R   0.430770 0.000000 0.865860 -0.525677
O45   O     O_3   0.500000 0.000000 0.750000 -0.478316
O46   O     O_R   0.569230 1.000000 0.134140 -0.500938
O47   O     O_R   0.402550 0.166630 0.280410 -0.526927
O48   O     O_R   0.597450 0.833370 0.719590 -0.547375
O49   O     O_R   0.833370 0.402550 0.280410 -0.535994
O50   O     O_R   0.166630 0.597450 0.719590 -0.529169
O51   O     O_R   0.597450 0.833370 0.280410 -0.501115
O52   O     O_R   0.402550 0.166630 0.719590 -0.469134
O53   O     O_R   0.166630 0.597450 0.280410 -0.521537
O54   O     O_R   0.833370 0.402550 0.719590 -0.484761
O55   O     O_R   0.402550 0.833370 0.719590 -0.507228
O56   O     O_3   0.000000 0.500000 0.250000 -0.481955
O57   O     O_R   0.597450 0.166630 0.280410 -0.520930
O58   O     O_R   0.833370 0.597450 0.719590 -0.521399
O59   O     O_R   0.166630 0.402550 0.280410 -0.536213
O60   O     O_R   0.597450 0.166630 0.719590 -0.529504
O61   O     O_R   0.402550 0.833370 0.280410 -0.523608
O62   O     O_R   0.166630 0.402550 0.719590 -0.484120
O63   O     O_R   0.833370 0.597450 0.280410 -0.481545
O64   O     O_R   0.902550 0.666630 0.780410 -0.529181
O65   O     O_R   0.097450 0.333370 0.219590 -0.521203
O66   O     O_R   0.333370 0.902550 0.780410 -0.543532
O67   O     O_3   0.000000 0.500000 0.750000 -0.494833
O68   O     O_R   0.666630 0.097450 0.219590 -0.530563
O69   O     O_R   0.097450 0.333370 0.780410 -0.487180
O70   O     O_R   0.902550 0.666630 0.219590 -0.483202
O71   O     O_R   0.666630 0.097450 0.780410 -0.472526
O72   O     O_R   0.333370 0.902550 0.219590 -0.481319
O73   O     O_R   0.902550 0.333370 0.219590 -0.474264
O74   O     O_R   0.097450 0.666630 0.780410 -0.484550
O75   O     O_R   0.333370 0.097450 0.219590 -0.521219
O76   O     O_R   0.666630 0.902550 0.780410 -0.522339
O77   O     O_R   0.097450 0.666630 0.219590 -0.522147
O78   O     O_R   0.500000 0.930770 0.365860 -0.484882
O79   O     O_R   0.902550 0.333370 0.780410 -0.530870
O80   O     O_R   0.666630 0.902550 0.219590 -0.511921
O81   O     O_R   0.333370 0.097450 0.780410 -0.493266
O82   O     O_2   0.280864 0.841436 0.124818 -0.268361
O83   O     O_2   0.341086 0.756593 0.055839 -0.205545
O84   O     O_3   0.441183 0.826749 0.121191 -0.487922
O85   O     O_2   0.597063 0.201227 0.970844 -0.211776
O86   O     O_2   0.744316 0.182374 0.948017 -0.219354
O87   O     O_3   0.631546 0.161567 0.876163 -0.480109
O88   O     O_2   0.795357 0.413330 0.033626 -0.215805
O89   O     O_R   0.500000 0.069230 0.634140 -0.525811
O90   O     O_2   0.802129 0.263831 0.052020 -0.206600
O91   O     O_3   0.837857 0.368010 0.126164 -0.478932
O92   O     O_2   0.152540 0.625330 0.877568 -0.197254
O93   O     O_2   0.186199 0.745341 0.932295 -0.225179
O94   O     O_3   0.208839 0.597451 0.969616 -0.428640
O95   O     O_2   0.602403 0.847417 0.124946 -0.260592
O96   O     O_2   0.615320 0.750451 0.053379 -0.130599
O97   O     O_3   0.749921 0.820686 0.091447 -0.423328
O98   O     O_2   0.274259 0.126394 0.881508 -0.228342
O99   O     O_2   0.303767 0.188043 0.966515 -0.212109
O100  O     O_R   0.069230 0.500000 0.365860 -0.534623
O101  O     O_3   0.427610 0.166890 0.904981 -0.491706
O102  O     O_2   0.850560 0.703919 0.126079 -0.224787
O103  O     O_2   0.776370 0.667601 0.045865 -0.179604
O104  O     O_3   0.824632 0.547895 0.104611 -0.496891
O105  O     O_2   0.176930 0.451199 0.903176 -0.231074
O106  O     O_2   0.237114 0.347704 0.960825 -0.201384
O107  O     O_3   0.164651 0.295700 0.876369 -0.446396
O108  O     O_2   0.828013 0.370988 0.616395 -0.176317
O109  O     O_2   0.745188 0.332868 0.540247 -0.228098
O110  O     O_3   0.904584 0.313918 0.535509 -0.428153
O111  O     O_R   0.930770 0.500000 0.634140 -0.497927
O112  O     O_2   0.098225 0.670954 0.403020 -0.221020
O113  O     O_2   0.218739 0.697562 0.459302 -0.166779
O114  O     O_3   0.243062 0.616147 0.374444 -0.446569
O115  O     O_2   0.348625 0.862419 0.590665 -0.218486
O116  O     O_2   0.368295 0.740441 0.535105 -0.150619
O117  O     O_3   0.436224 0.738595 0.626255 -0.464789
O118  O     O_2   0.336799 0.081441 0.370991 -0.276399
O119  O     O_2   0.271362 0.131235 0.449586 -0.158449
O120  O     O_3   0.324924 0.242233 0.385054 -0.457741
O121  O     O_2   0.030425 0.328423 0.603645 -0.240609
O122  O     O_R   0.500000 0.069230 0.365860 -0.496107
O123  O     O_2   0.118345 0.259014 0.540269 -0.175606
O124  O     O_3   0.188108 0.318448 0.623532 -0.453681
O125  O     O_2   0.807609 0.734477 0.407147 -0.206106
O126  O     O_2   0.943151 0.734398 0.451054 -0.204581
O127  O     O_3   0.931997 0.667057 0.360277 -0.504232
O128  O     O_2   0.353282 0.229159 0.627602 -0.221718
O129  O     O_2   0.268307 0.159258 0.561129 -0.207912
O130  O     O_3   0.333381 0.067272 0.631468 -0.503365
O131  O     O_2   0.677871 0.041699 0.426537 -0.286110
O132  O     O_2   0.776824 0.928705 0.440380 -0.169203
S1    S     S_3+6 0.352105 0.835426 0.087237 0.069566
S2    S     S_3+6 0.177723 0.634356 0.423860 0.100627
S3    S     S_3+6 0.410010 0.796694 0.574464 0.116620
S4    S     S_3+6 0.341145 0.148095 0.412145 0.081350
S5    S     S_3+6 0.114237 0.331107 0.577723 0.094352
S6    S     S_3+6 0.884652 0.683640 0.417262 0.105923
S7    S     S_3+6 0.345740 0.152458 0.594057 0.065850
S8    S     S_3+6 0.687662 0.948165 0.426551 0.068646
S9    S     S_3+6 0.656566 0.150308 0.938965 0.104454
S10   S     S_3+6 0.843023 0.347393 0.062560 0.095529
S11   S     S_3+6 0.148980 0.658551 0.931882 0.104858
S12   S     S_3+6 0.648658 0.831046 0.075874 0.110092
S13   S     S_3+6 0.335306 0.128865 0.925997 0.066914
S14   S     S_3+6 0.846674 0.643661 0.081492 0.097771
S15   S     S_3+6 0.164554 0.365276 0.925280 0.094280
S16   S     S_3+6 0.826075 0.372525 0.558354 0.098361
Zn1   Zn    Zn3+2 0.401050 0.000000 0.206670 1.053487
Zn2   Zn    Zn3+2 0.098950 0.500000 0.293330 1.002573
Zn3   Zn    Zn3+2 0.500000 0.901050 0.706670 0.997176
Zn4   Zn    Zn3+2 0.500000 0.098950 0.293330 1.029956
Zn5   Zn    Zn3+2 0.098950 0.500000 0.706670 1.049033
Zn6   Zn    Zn3+2 0.901050 0.500000 0.293330 1.038384
Zn7   Zn    Zn3+2 0.500000 0.098950 0.706670 1.038631
Zn8   Zn    Zn3+2 0.500000 0.901050 0.293330 1.056865
Zn9   Zn    Zn3+2 0.598950 0.000000 0.793330 1.036466
Zn10  Zn    Zn3+2 1.000000 0.401050 0.206670 1.039572
Zn11  Zn    Zn3+2 0.000000 0.598950 0.793330 1.038381
Zn12  Zn    Zn3+2 0.598950 0.000000 0.206670 1.021358
Zn13  Zn    Zn3+2 0.401050 0.000000 0.793330 1.020858
Zn14  Zn    Zn3+2 1.000000 0.598950 0.206670 1.047402
Zn15  Zn    Zn3+2 0.000000 0.401050 0.793330 1.049998
Zn16  Zn    Zn3+2 0.901050 0.500000 0.706670 1.048260

loop_
_geom_bond_atom_site_label_1
_geom_bond_atom_site_label_2
_ccdc_geom_bond_type
C101  C107  A    
C33   O64   A    
C26   O74   A    
O107  S15   S    
C9    O25   S    
C34   C42   S    
C76   C79   A    
O121  S5    D    
H31   O107  S    
C16   O38   S    
C96   C99   A    
C70   S4    S    
C12   C84   S    
C74   C92   A    
C32   O57   A    
H3    O117  S    
C23   O76   A    
O89   Zn7   S    
C27   C50   S    
O49   Zn6   S    
C20   O40   A    
O73   Zn10  S    
O110  S16   S    
O67   Zn5   S    
C67   C85   A    
C59   C106  A    
O127  S6    S    
C94   C97   A    
O101  S13   S    
C10   O27   S    
C7    O19   D    
H17   O20   S    
C33   C43   S    
O60   Zn7   S    
H4    O120  S    
C78   C82   A    
C2    O89   A    
H16   O18   S    
C58   C101  A    
C67   S2    S    
O48   Zn3   S    
C3    C83   S    
C2    C47   S    
O39   Zn14  S    
C19   O39   A    
C26   O50   A    
C102  O78   A    
C12   O30   D    
C30   C55   S    
H19   O25   S    
O96   S12   D    
O56   Zn2   S    
C6    C77   S    
O77   Zn14  S    
O76   Zn9   S    
O85   S9    D    
O124  S5    S    
C17   C25   S    
C5    C76   S    
O3    S8    S    
O103  S14   D    
H9    O5    S    
C36   C99   A    
H26   O38   S    
C62   S12   S    
H5    O124  S    
C47   C100  A    
C71   C88   A    
C1    C93   A    
H21   O29   S    
C42   C54   T    
O94   S11   S    
O45   Zn3   S    
O99   S13   D    
C22   O75   A    
C91   C105  A    
O115  S3    D    
O56   Zn14  S    
C69   C107  A    
C22   C54   S    
C59   S9    S    
O63   Zn6   S    
C73   C90   A    
C37   C40   S    
O119  S4    D    
O105  S15   D    
C64   S14   S    
C60   C109  A    
O75   Zn1   S    
C16   C87   S    
H29   O101  S    
C61   C78   A    
C37   O72   A    
C38   C48   S    
O67   Zn15  S    
C44   C52   T    
O55   Zn3   S    
O54   Zn16  S    
O61   Zn8   S    
C110  O4    D    
C70   C87   A    
C13   O13   A    
C23   O48   A    
C23   C53   S    
C69   C103  A    
O116  S3    D    
O132  S8    D    
H32   O110  S    
H24   O33   S    
C3    O10   D    
C21   C69   S    
C8    C88   S    
C68   C100  A    
C20   O44   A    
O83   S1    D    
C28   C49   S    
O50   Zn5   S    
C6    O17   D    
C5    O16   S    
O92   S11   D    
O126  S6    D    
C30   O54   A    
C7    C78   S    
O41   Zn1   S    
C20   C58   S    
C70   C99   A    
C85   C88   A    
O102  S14   D    
C37   O61   A    
O123  S5    D    
O130  S7    S    
O64   Zn11  S    
O88   S10   D    
C17   O24   A    
C28   O81   A    
O1    Zn12  S    
C30   O79   A    
C80   C108  A    
C29   O53   A    
C66   C98   A    
C26   C51   S    
H7    O130  S    
C36   C95   A    
C73   S7    S    
O86   S9    D    
C28   O52   A    
C35   C41   S    
C8    O21   D    
C11   O28   D    
C1    C13   S    
O72   Zn1   S    
C22   O47   A    
C35   O71   A    
C59   C76   A    
O62   Zn5   S    
C24   C52   S    
O69   Zn15  S    
C31   O55   A    
C29   O77   A    
C80   C104  A    
O79   Zn15  S    
C62   C103  A    
O52   Zn7   S    
C35   O60   A    
C13   O100  A    
C33   O58   A    
O91   S10   S    
O122  Zn4   S    
H28   O97   S    
C41   C55   T    
C4    C75   S    
C14   O32   D    
C19   O43   A    
C43   C53   T    
C40   C56   T    
O114  S2    S    
C47   C96   A    
C112  O8    D    
O56   Zn10  S    
C39   C46   S    
O40   Zn9   S    
C24   O73   A    
O43   Zn10  S    
C74   S8    S    
C25   C94   A    
H27   O94   S    
O35   Zn15  S    
O66   Zn13  S    
O71   Zn9   S    
H22   O31   S    
C71   S5    S    
C9    C89   S    
C71   C94   A    
C16   O37   D    
O108  S16   D    
O82   S1    D    
C82   C112  S    
O45   Zn13  S    
O67   Zn11  S    
H18   O22   S    
O81   Zn13  S    
O117  S3    S    
O46   Zn12  S    
C3    O11   S    
C15   C86   S    
O111  Zn16  S    
C48   C49   T    
C4    O12   D    
H23   O91   S    
O125  S6    D    
O109  S16   D    
C27   O51   A    
C38   O69   A    
O93   S11   D    
C111  O6    D    
O70   Zn14  S    
H11   O9    S    
O53   Zn2   S    
O80   Zn12  S    
C79   C110  S    
O78   Zn8   S    
C95   C100  A    
O98   S13   D    
O1    Zn4   S    
O2    Zn3   S    
C21   O41   A    
C29   C56   S    
O51   Zn8   S    
C10   O26   D    
C7    O20   S    
H10   O7    S    
C57   C75   A    
H25   O36   S    
H12   O87   S    
C19   C91   S    
C67   C97   A    
C10   C90   S    
H8    O3    S    
C31   C45   S    
C87   C90   A    
C45   C51   T    
O87   S9    S    
C86   C92   A    
C73   C96   A    
O44   Zn13  S    
O74   Zn11  S    
C57   S1    S    
O95   S12   D    
C68   C86   A    
O42   Zn11  S    
C63   C101  A    
C110  O5    S    
O1    Zn8   S    
C64   C105  A    
C68   S3    S    
C27   O80   A    
C63   C81   A    
O112  S2    D    
C104  C109  A    
C32   O68   A    
C65   C83   A    
C77   C83   A    
C36   C102  S    
C61   C108  A    
C11   C92   S    
C4    O14   S    
C6    O18   S    
C5    O15   D    
C39   O63   A    
H20   O27   S    
O13   Zn6   S    
C103  C106  A    
C65   S15   S    
O128  S7    D    
C66   S16   S    
O113  S2    D    
C15   O36   S    
H14   O14   S    
C105  C108  A    
C60   C77   A    
C11   O29   S    
O129  S7    D    
C81   C111  S    
C62   C79   A    
C9    O23   D    
O58   Zn16  S    
C1    C97   A    
C75   C81   A    
H1    O84   S    
O90   S10   D    
C18   O42   A    
O106  S15   D    
C58   C106  A    
O56   Zn6   S    
C34   O65   A    
C34   O59   A    
C32   C44   S    
O45   Zn9   S    
O131  S8    D    
H2    O114  S    
C64   C82   A    
C8    O22   S    
O67   Zn16  S    
C12   O31   S    
O47   Zn4   S    
C57   C107  A    
C18   O35   A    
H30   O104  S    
C112  O9    S    
C72   S6    S    
C84   C89   A    
C72   C93   A    
O118  S4    D    
H6    O127  S    
C17   O111  A    
C38   O62   A    
C39   O70   A    
C74   C95   A    
C14   C85   S    
C111  O7    S    
O45   Zn7   S    
O84   S1    S    
C2    O2    A    
C46   C50   T    
O104  S14   S    
O65   Zn10  S    
C91   C109  A    
O1    Zn1   S    
C72   C89   A    
O100  Zn2   S    
C21   O46   A    
C24   O49   A    
O57   Zn4   S    
H15   O16   S    
O24   Zn5   S    
O120  S4    S    
C60   S10   S    
O59   Zn2   S    
C61   S11   S    
O97   S12   S    
C14   O33   S    
C31   O66   A    
C66   C84   A    
C25   C98   A    
C18   C80   S    
C102  O122  A    
C15   O34   D    
C63   S13   S    
C65   C104  A    
O68   Zn12  S    
C93   C98   A    
H13   O11   S    
