data_mof_unit_43043.cif
_audit_creation_date              2012-10-26T21:17:29-0400
_audit_creation_method            fapswitch 2.2
_symmetry_space_group_name_H-M    P1
_symmetry_Int_Tables_number       1
_space_group_crystal_system       triclinic
_cell_length_a                    17.709058
_cell_length_b                    16.684471
_cell_length_c                    11.67605
_cell_angle_alpha                 90.605486
_cell_angle_beta                  94.852557
_cell_angle_gamma                 89.954559
_cell_volume                      3437.32145848

loop_
_atom_site_label
_atom_site_type_symbol
_atom_type_description
_atom_site_fract_x
_atom_site_fract_y
_atom_site_fract_z
_atom_type_partial_charge
C1    C     C_R   0.355541 0.500052 0.500502 0.570829
C2    C     C_R   0.114467 0.500050 0.499646 0.042374
C3    C     C_1   0.966169 0.500018 0.499552 0.079811
C4    C     C_1   0.033761 0.500028 0.499554 0.079471
C5    C     C_R   0.500097 0.499649 0.283979 0.566729
C6    C     C_R   0.499833 0.500306 0.716013 0.569450
C7    C     C_R   0.512639 0.830906 0.602860 0.193895
C8    C     C_R   0.464428 0.167679 0.409511 0.190496
C9    C     C_R   0.490421 0.830256 0.399420 0.213381
C10   C     C_R   0.532407 0.169836 0.594519 0.195165
C11   C     C_R   0.525671 0.746450 0.597892 0.328998
C12   C     C_R   0.644446 0.500001 0.499340 0.573476
C13   C     C_R   0.460436 0.253632 0.411230 0.334699
C14   C     C_R   0.475827 0.746003 0.402559 0.322729
C15   C     C_R   0.538839 0.255310 0.589628 0.336767
C16   C     C_1   0.499460 0.963052 0.502885 0.089551
C17   C     C_1   0.498749 0.036693 0.503484 0.071350
C18   C     C_1   0.500124 0.499015 0.162352 0.052923
C19   C     C_1   0.499866 0.500666 0.837642 0.052071
C20   C     C_1   0.500062 0.499337 0.059851 0.018315
C21   C     C_1   0.499961 0.500181 0.940142 0.017511
C22   C     C_R   0.500329 0.874241 0.501747 -0.042307
C23   C     C_R   0.767054 0.572638 0.495821 -0.123108
C24   C     C_R   0.498428 0.125700 0.502624 -0.067015
C25   C     C_R   0.845917 0.572914 0.493135 0.224586
C26   C     C_R   0.153279 0.427119 0.492332 0.219977
C27   C     C_R   0.153959 0.573004 0.507235 0.224301
C28   C     C_R   0.846736 0.427121 0.505916 0.219871
C29   C     C_3   0.449494 0.868466 0.755878 0.013893
C30   C     C_3   0.461769 0.887099 0.883892 -0.329555
C31   C     C_3   0.480681 0.100683 0.241916 0.026500
C32   C     C_3   0.443114 0.040876 0.155925 -0.324981
C33   C     C_3   0.553829 0.852498 0.239627 0.013243
C34   C     C_R   0.232453 0.427426 0.495525 -0.119934
C35   C     C_3   0.622816 0.900250 0.289162 -0.414163
C36   C     C_3   0.505981 0.117625 0.766246 0.036070
C37   C     C_3   0.543560 0.107338 0.887108 -0.314891
C38   C     C_3   0.873126 0.678179 0.381224 -0.006995
C39   C     C_3   0.926484 0.748849 0.372876 -0.360785
C40   C     C_3   0.113824 0.321025 0.378623 -0.002327
C41   C     C_3   0.059544 0.250233 0.368964 -0.361265
C42   C     C_3   0.125651 0.678330 0.621302 -0.006664
C43   C     C_3   0.072307 0.749149 0.630406 -0.360398
C44   C     C_3   0.886238 0.321792 0.617941 -0.002319
C45   C     C_R   0.232840 0.572747 0.504857 -0.122804
C46   C     C_3   0.940624 0.251119 0.626524 -0.361131
C47   C     C_R   0.767565 0.427380 0.502921 -0.119897
C48   C     C_R   0.727412 0.500001 0.499314 -0.065150
C49   C     C_R   0.272558 0.500091 0.500347 -0.065640
C50   C     C_R   0.885468 0.500018 0.499556 0.042734
Cu1   Cu    Cu3+1 0.500000 0.580420 0.500000 1.105338
Cu2   Cu    Cu3+1 0.500000 0.419580 0.500000 1.114932
H1    H     H_    0.737093 0.629279 0.494741 0.169506
H2    H     H_    0.531540 0.071809 0.285846 0.109941
H3    H     H_    0.499294 0.153546 0.194448 0.179406
H4    H     H_    0.415109 0.992714 0.201653 0.230514
H5    H     H_    0.399728 0.071592 0.097712 0.165164
H6    H     H_    0.486318 0.013281 0.104381 0.078410
H7    H     H_    0.542293 0.868558 0.147793 0.162634
H8    H     H_    0.568109 0.787543 0.241156 0.167514
H9    H     H_    0.638463 0.883313 0.379762 0.152585
H10   H     H_    0.671697 0.887184 0.238342 0.118809
H11   H     H_    0.610934 0.965309 0.285177 0.149852
H12   H     H_    0.262244 0.370768 0.493755 0.174645
H13   H     H_    0.472607 0.062828 0.741393 0.127583
H14   H     H_    0.466224 0.169518 0.768397 0.145576
H15   H     H_    0.581137 0.053955 0.890550 0.168474
H16   H     H_    0.577771 0.161115 0.913685 0.222629
H17   H     H_    0.499329 0.099833 0.947741 0.073195
H18   H     H_    0.656599 0.611996 0.773094 0.347701
H19   H     H_    0.342079 0.397762 0.225754 0.345725
H20   H     H_    0.338423 0.613969 0.232217 0.349760
H21   H     H_    0.662067 0.400299 0.772679 0.345184
H22   H     H_    0.813880 0.700352 0.365827 0.129958
H23   H     H_    0.262747 0.629415 0.507071 0.171595
H24   H     H_    0.884871 0.633891 0.312684 0.133997
H25   H     H_    0.986231 0.728143 0.384487 0.197321
H26   H     H_    0.916389 0.776865 0.287097 0.105196
H27   H     H_    0.916620 0.794298 0.440191 0.158721
H28   H     H_    0.171418 0.298826 0.363175 0.164863
H29   H     H_    0.094569 0.364792 0.310670 0.136376
H30   H     H_    0.001070 0.270946 0.380792 0.193641
H31   H     H_    0.060169 0.221649 0.282732 0.111979
H32   H     H_    0.076846 0.205253 0.435578 0.159538
H33   H     H_    0.184874 0.700323 0.638726 0.130718
H34   H     H_    0.737815 0.370732 0.503886 0.175048
H35   H     H_    0.113064 0.634132 0.688184 0.134156
H36   H     H_    0.012564 0.728556 0.617072 0.197959
H37   H     H_    0.081705 0.777317 0.717025 0.105505
H38   H     H_    0.082856 0.794433 0.564559 0.158829
H39   H     H_    0.828663 0.299628 0.632931 0.165888
H40   H     H_    0.905377 0.366033 0.686644 0.136211
H41   H     H_    0.999078 0.271815 0.615112 0.193502
H42   H     H_    0.939990 0.223113 0.712288 0.112324
H43   H     H_    0.923429 0.205669 0.559157 0.159647
H44   H     H_    0.422335 0.808105 0.746381 0.145544
H45   H     H_    0.410064 0.913714 0.714777 0.111029
H46   H     H_    0.486698 0.947588 0.897952 0.131186
H47   H     H_    0.406793 0.885198 0.923011 0.115552
H48   H     H_    0.500660 0.842220 0.926660 0.211368
N1    N     N_R   0.500000 0.701220 0.500000 -0.314477
N2    N     N_R   0.500000 0.298780 0.500000 -0.316896
O1    O     O_R   0.391260 0.567930 0.500000 -0.467407
O2    O     O_3   0.427913 0.123491 0.320329 -0.497856
O3    O     O_3   0.488232 0.871134 0.296535 -0.530971
O4    O     O_3   0.562771 0.128438 0.689694 -0.490767
O5    O     O_2   0.633697 0.774564 0.769639 -0.242094
O6    O     O_2   0.529022 0.688611 0.812010 -0.309670
O7    O     O_3   0.636012 0.630225 0.696219 -0.506055
O8    O     O_2   0.461047 0.305914 0.195002 -0.312959
O9    O     O_2   0.346776 0.236796 0.240455 -0.251933
O10   O     O_3   0.361439 0.381402 0.304129 -0.516736
O11   O     O_2   0.367042 0.776124 0.234176 -0.252725
O12   O     O_R   0.608740 0.432070 0.500000 -0.460812
O13   O     O_2   0.466884 0.684424 0.187282 -0.315186
O14   O     O_3   0.360851 0.632914 0.308293 -0.505339
O15   O     O_2   0.545606 0.307152 0.808157 -0.315543
O16   O     O_2   0.657933 0.239578 0.748831 -0.262715
O17   O     O_3   0.639741 0.385006 0.694861 -0.515379
O18   O     O_3   0.885289 0.644466 0.491674 -0.552318
O19   O     O_3   0.113700 0.355544 0.489553 -0.560785
O20   O     O_3   0.114560 0.644569 0.509748 -0.552090
O21   O     O_3   0.886389 0.355577 0.507582 -0.560768
O22   O     O_R   0.608740 0.567930 0.500000 -0.469734
O23   O     O_R   0.391260 0.432070 0.500000 -0.463841
O24   O     O_R   0.500010 0.567910 0.337200 -0.444400
O25   O     O_R   0.499990 0.432090 0.662800 -0.440209
O26   O     O_R   0.499990 0.567910 0.662800 -0.440857
O27   O     O_R   0.500010 0.432090 0.337200 -0.437668
O28   O     O_3   0.519745 0.871889 0.706875 -0.498532
S1    S     S_3+6 0.581228 0.709334 0.721664 0.058607
S2    S     S_3+6 0.407113 0.294861 0.286340 0.048491
S3    S     S_3+6 0.417582 0.709290 0.280117 0.051038
S4    S     S_3+6 0.595868 0.297600 0.711395 0.046028

loop_
_geom_bond_atom_site_label_1
_geom_bond_atom_site_label_2
_ccdc_geom_bond_type
C28   C47   A    
C8    C13   A    
H21   O17   S    
C37   H17   S    
C32   H6    S    
C12   C48   S    
C28   O21   S    
C15   S4    S    
C38   H24   S    
C7    C11   A    
C6    C19   S    
Cu2   N2    S    
C43   H37   S    
Cu2   O27   S    
C39   H25   S    
C36   C37   S    
C19   C21   T    
C1    O23   A    
C6    O25   A    
C10   C15   A    
C38   C39   S    
C36   H14   S    
C9    C22   A    
C43   H38   S    
C9    O3    S    
C41   H31   S    
C37   H16   S    
C30   H48   S    
Cu1   O26   S    
C25   C50   A    
C7    O28   S    
C8    C24   A    
C28   C50   A    
C27   O20   S    
C46   H43   S    
C47   C48   A    
C16   C17   T    
O6    S1    D    
C46   H42   S    
C5    O24   A    
O7    S1    S    
C40   H28   S    
O8    S2    D    
C2    C27   A    
C26   O19   S    
C1    O1    A    
O16   S4    D    
C38   O18   S    
C27   C45   A    
C5    O27   A    
C33   H7    S    
O11   S3    D    
Cu1   O22   S    
C32   H5    S    
O15   S4    D    
Cu2   O25   S    
C44   C46   S    
C23   H1    S    
C12   O12   A    
C17   C24   S    
C36   O4    S    
Cu1   Cu2   S    
O17   S4    S    
C47   H34   S    
C33   O3    S    
C2    C26   A    
C36   H13   S    
C14   N1    A    
C5    C18   S    
O13   S3    D    
C10   C24   A    
C41   H32   S    
C30   H47   S    
C39   H27   S    
C2    C4    S    
C9    C14   A    
C39   H26   S    
C29   C30   S    
C40   O19   S    
H18   O7    S    
C29   O28   S    
C12   O22   A    
C45   C49   A    
H19   O10   S    
C34   H12   S    
C11   N1    A    
C42   H33   S    
O10   S2    S    
C8    O2    S    
C44   H39   S    
O5    S1    D    
C40   C41   S    
C44   H40   S    
C33   H8    S    
C10   O4    S    
C42   C43   S    
C43   H36   S    
C3    C4    T    
C25   O18   S    
C42   O20   S    
C3    C50   S    
C38   H22   S    
C30   H46   S    
C34   C49   A    
C16   C22   S    
C23   C48   A    
C26   C34   A    
Cu1   O24   S    
C40   H29   S    
C31   C32   S    
C15   N2    A    
C11   S1    S    
C29   H44   S    
Cu2   O23   S    
O14   S3    S    
C14   S3    S    
Cu2   O12   S    
Cu1   N1    S    
C7    C22   A    
H20   O14   S    
C44   O21   S    
C29   H45   S    
C45   H23   S    
C31   O2    S    
C6    O26   A    
C46   H41   S    
C1    C49   S    
C35   H9    S    
C41   H30   S    
C37   H15   S    
C33   C35   S    
C13   S2    S    
C35   H10   S    
C18   C20   T    
C23   C25   A    
C31   H2    S    
O9    S2    D    
C20   C21   S    
C35   H11   S    
C42   H35   S    
C31   H3    S    
C13   N2    A    
Cu1   O1    S    
C32   H4    S    
