data_mof_unit_53005.cif
_audit_creation_date              2012-12-10T20:28:07-0500
_audit_creation_method            fapswitch 2.2
_symmetry_space_group_name_H-M    P1
_symmetry_Int_Tables_number       1
_space_group_crystal_system       triclinic
_cell_length_a                    18.530467
_cell_length_b                    18.654308
_cell_length_c                    19.15263
_cell_angle_alpha                 110.016139
_cell_angle_beta                  109.238736
_cell_angle_gamma                 108.78974
_cell_volume                      5119.1291087

loop_
_atom_site_label
_atom_site_type_symbol
_atom_type_description
_atom_site_fract_x
_atom_site_fract_y
_atom_site_fract_z
_atom_type_partial_charge
C1    C     C_R   0.382390 0.502577 0.381234 0.879056
C2    C     C_R   0.818897 0.821849 0.571039 -0.229136
C3    C     C_R   0.300544 0.305014 0.766850 0.493375
C4    C     C_R   0.341668 0.295719 0.837861 0.392195
C5    C     C_R   0.081002 0.325778 0.818772 0.435640
C6    C     C_R   0.000113 0.315693 0.812080 -0.195928
C7    C     C_R   0.920355 0.245050 0.740183 0.032521
C8    C     C_R   0.922259 0.184623 0.675074 -0.261887
C9    C     C_R   0.002238 0.190913 0.683984 -0.157148
C10   C     C_3   0.701659 0.821212 0.900025 -0.383788
C11   C     C_3   0.209402 0.681070 0.423505 -0.380903
C12   C     C_3   0.130873 0.206462 0.196892 -0.244582
C13   C     C_R   0.811075 0.809264 0.492462 -0.107958
C14   C     C_3   0.830116 0.070028 0.895714 -0.331738
C15   C     C_3   0.273594 0.486388 0.707458 -0.344602
C16   C     C_3   0.028259 0.257498 0.324111 -0.248146
C17   C     C_3   0.728093 0.931877 0.652389 -0.366638
C18   C     C_3   0.473558 0.299835 0.599191 -0.317752
C19   C     C_3   0.424251 0.184428 0.714310 -0.168438
C20   C     C_3   0.355733 0.952763 0.643790 -0.399975
C21   C     C_3   0.281558 0.861947 0.333333 -0.379416
C22   C     C_3   0.276489 0.058323 0.322762 -0.265806
C23   C     C_3   0.659995 0.476201 0.879601 -0.269874
C24   C     C_R   0.736512 0.737020 0.414342 0.046158
C25   C     C_3   0.885397 0.577172 0.763156 -0.212000
C26   C     C_3   0.822727 0.649201 0.619972 -0.277789
C27   C     C_3   0.049423 0.748542 0.671861 -0.273648
C28   C     C_3   0.780924 0.541516 0.287548 -0.322685
C29   C     C_3   0.958715 0.908591 0.205806 -0.232935
C30   C     C_3   0.244886 0.926850 0.116254 -0.384138
C31   C     C_3   0.044596 0.867740 0.910586 -0.266487
C32   C     C_3   0.796031 0.717486 0.000447 -0.243943
C33   C     C_3   0.480401 0.386633 0.952191 -0.343066
C34   C     C_3   0.311864 0.156710 0.895474 -0.273917
C35   C     C_R   0.676025 0.674336 0.419315 -0.209964
C36   C     C_3   0.419739 0.406543 0.775201 -0.253912
C37   C     C_3   0.198020 0.458741 0.873129 -0.267986
C38   C     C_3   0.616692 0.121123 0.799650 -0.382313
C39   C     C_3   0.800790 0.311917 0.599696 -0.251051
C40   C     C_3   0.491018 0.607468 0.217678 -0.379153
C41   C     C_R   0.683405 0.688107 0.498170 -0.101915
C42   C     C_R   0.753228 0.764390 0.574372 0.118298
C43   C     C_R   0.636147 0.695684 0.262618 0.581293
C44   C     C_R   0.624008 0.682510 0.181516 -0.260257
C45   C     C_R   0.691894 0.690244 0.163149 -0.234796
C46   C     C_R   0.619300 0.620642 0.499441 0.860282
C47   C     C_R   0.768525 0.811891 0.815627 0.496280
C48   C     C_R   0.773387 0.713338 0.225540 -0.060352
C49   C     C_R   0.787762 0.730263 0.307185 -0.146853
C50   C     C_R   0.720418 0.722770 0.327486 -0.013303
C51   C     C_R   0.403008 0.783033 0.532513 -0.288854
C52   C     C_R   0.346694 0.699293 0.459658 0.613373
C53   C     C_R   0.375630 0.666879 0.402853 0.006497
C54   C     C_R   0.457448 0.720651 0.416031 -0.258876
C55   C     C_R   0.510452 0.805776 0.485580 -0.030481
C56   C     C_R   0.483920 0.836635 0.544533 -0.154792
C57   C     C_R   0.252931 0.576344 0.256303 -0.227981
C58   C     C_R   0.082220 0.259878 0.757380 -0.039408
C59   C     C_R   0.616080 0.495782 0.618317 0.920558
C60   C     C_R   0.189114 0.495783 0.183064 -0.085912
C61   C     C_R   0.187908 0.416951 0.174725 0.061971
C62   C     C_R   0.255473 0.423254 0.240224 -0.158884
C63   C     C_R   0.317033 0.503401 0.315408 -0.098708
C64   C     C_R   0.315456 0.580777 0.324200 0.057628
C65   C     C_R   0.076200 0.258423 0.111957 0.501695
C66   C     C_R   0.003683 0.179107 0.040961 -0.376402
C67   C     C_R   0.976683 0.165764 0.957831 0.560799
C68   C     C_R   0.026523 0.229982 0.946174 -0.196286
C69   C     C_R   0.788422 0.172937 0.749929 -0.315411
C70   C     C_R   0.095095 0.311194 0.016357 -0.297323
C71   C     C_R   0.378269 0.380051 0.498832 0.915769
C72   C     C_R   0.117981 0.328115 0.100106 0.003622
C73   C     C_R   0.241875 0.538816 0.578367 -0.255599
C74   C     C_R   0.261072 0.472312 0.580685 0.546355
C75   C     C_R   0.224504 0.394095 0.503755 -0.105770
C76   C     C_R   0.160900 0.379234 0.427236 0.474723
C77   C     C_R   0.142176 0.446386 0.426367 -0.200635
C78   C     C_R   0.181984 0.525263 0.501846 -0.184412
C79   C     C_R   0.179370 0.255573 0.503604 -0.219097
C80   C     C_R   0.708022 0.161532 0.744820 0.605441
C81   C     C_R   0.189660 0.184613 0.502099 -0.112313
C82   C     C_R   0.265868 0.180278 0.507397 0.125714
C83   C     C_R   0.719795 0.837222 0.764993 -0.344035
C84   C     C_R   0.329862 0.247598 0.509820 0.486874
C85   C     C_R   0.315123 0.315362 0.503639 -0.203733
C86   C     C_R   0.241692 0.321924 0.505099 0.089147
C87   C     C_R   0.308223 0.095122 0.575833 0.443539
C88   C     C_R   0.301339 0.014462 0.567185 0.432793
C89   C     C_R   0.272674 0.946113 0.486206 -0.528053
C90   C     C_R   0.249786 0.956464 0.414257 0.458165
C91   C     C_R   0.672468 0.210130 0.717927 -0.312605
C92   C     C_R   0.248303 0.033755 0.421778 0.416411
C93   C     C_R   0.275244 0.102214 0.502086 -0.228802
C94   C     C_2   0.751235 0.507730 0.823734 0.404924
C95   C     C_R   0.718401 0.825577 0.688506 0.519909
C96   C     C_2   0.819805 0.501850 0.817411 0.254598
C97   C     C_2   0.692743 0.521278 0.761698 -0.309682
C98   C     C_2   0.667778 0.478961 0.678948 -0.363957
C99   C     C_R   0.001697 0.879548 0.381736 0.920008
C100  C     C_R   0.879321 0.876834 0.496105 0.857276
C101  C     C_R   0.000326 0.121724 0.618849 0.910039
C102  C     C_R   0.717882 0.269619 0.698880 -0.307763
C103  C     C_R   0.120901 0.117820 0.498692 0.922266
C104  C     C_R   0.001367 0.380120 0.881231 0.953264
C105  C     C_R   0.122765 0.497171 0.119411 0.873934
C106  C     C_R   0.001841 0.620602 0.121620 0.932948
C107  C     C_R   0.761741 0.783453 0.658695 -0.122097
C108  C     C_R   0.883770 0.500080 0.883732 0.948889
C109  C     C_R   0.081780 0.759331 0.539658 -0.274856
C110  C     C_R   0.078211 0.773677 0.472241 -0.257547
C111  C     C_R   0.001952 0.722659 0.392075 0.015355
C112  C     C_R   0.929337 0.651305 0.377373 0.466618
C113  C     C_R   0.798447 0.280445 0.704031 0.562415
C114  C     C_R   0.934313 0.637024 0.446774 -0.348164
C115  C     C_R   0.008571 0.692130 0.528238 0.570062
C116  C     C_R   0.999371 0.675662 0.254328 -0.187156
C117  C     C_R   0.003342 0.688309 0.187906 -0.144244
C118  C     C_R   0.013341 0.766433 0.187701 0.056630
C119  C     C_R   0.813434 0.760924 0.710147 0.410640
C120  C     C_R   0.014292 0.830140 0.253442 0.515776
C121  C     C_R   0.007270 0.815453 0.318837 -0.240044
C122  C     C_R   0.002456 0.738962 0.321176 0.011177
C123  C     C_R   0.096136 0.819336 0.119305 -0.322379
C124  C     C_R   0.834457 0.233030 0.731456 -0.043255
C125  C     C_R   0.098845 0.821705 0.047251 0.472007
C126  C     C_R   0.019534 0.784356 0.972220 0.441841
C127  C     C_R   0.939701 0.740630 0.968008 -0.418104
C128  C     C_R   0.936618 0.739707 0.039997 0.459363
C129  C     C_R   0.015623 0.778341 0.115610 -0.013610
C130  C     C_R   0.291399 0.260913 0.871496 0.402903
C131  C     C_R   0.817260 0.777307 0.788468 -0.310958
C132  C     C_R   0.206176 0.247824 0.843281 -0.249561
C133  C     C_R   0.167242 0.261836 0.776800 0.040245
C134  C     C_R   0.212807 0.285739 0.735885 -0.349425
H1    H     H_    0.622064 0.614726 0.361414 0.172097
H2    H     H_    0.208454 0.693818 0.370633 0.159346
H3    H     H_    0.475548 0.395437 0.800102 0.176284
H4    H     H_    0.419038 0.454266 0.828898 0.112693
H5    H     H_    0.430992 0.436606 0.736206 0.210536
H6    H     H_    0.149872 0.471602 0.833632 0.167352
H7    H     H_    0.234532 0.440580 0.841163 0.141139
H8    H     H_    0.246220 0.521020 0.934298 0.180712
H9    H     H_    0.861066 0.130157 0.619157 0.159539
H10   H     H_    0.874531 0.879118 0.630188 0.159907
H11   H     H_    0.816078 0.135682 0.769813 0.191508
H12   H     H_    0.552326 0.104580 0.750319 0.169140
H13   H     H_    0.227917 0.741370 0.480096 0.160512
H14   H     H_    0.653459 0.191263 0.850550 0.169966
H15   H     H_    0.603231 0.081412 0.830289 0.191617
H16   H     H_    0.609654 0.202174 0.710860 0.145896
H17   H     H_    0.690238 0.307290 0.680075 0.159772
H18   H     H_    0.739059 0.315444 0.580996 0.160760
H19   H     H_    0.787223 0.244406 0.560037 0.133112
H20   H     H_    0.843328 0.355936 0.586025 0.193197
H21   H     H_    0.504120 0.552306 0.193136 0.157849
H22   H     H_    0.452992 0.614470 0.164356 0.184830
H23   H     H_    0.449118 0.589330 0.245481 0.193273
H24   H     H_    0.141434 0.632312 0.400554 0.201881
H25   H     H_    0.561783 0.665887 0.132162 0.141571
H26   H     H_    0.479342 0.697693 0.371561 0.192654
H27   H     H_    0.572251 0.847625 0.493702 0.164460
H28   H     H_    0.251715 0.635841 0.261977 0.136743
H29   H     H_    0.259336 0.364748 0.233395 0.176286
H30   H     H_    0.684287 0.868056 0.784901 0.159232
H31   H     H_    0.163749 0.192933 0.158426 0.114870
H32   H     H_    0.073684 0.144712 0.176365 0.165347
H33   H     H_    0.640253 0.764070 0.841947 0.171856
H34   H     H_    0.179457 0.232024 0.263948 0.225939
H35   H     H_    0.969169 0.127676 0.050692 0.158097
H36   H     H_    0.824722 0.129633 0.925183 0.173593
H37   H     H_    0.828586 0.035615 0.932865 0.177321
H38   H     H_    0.771164 0.025569 0.831536 0.220332
H39   H     H_    0.010048 0.217135 0.882075 0.158653
H40   H     H_    0.130576 0.361032 0.005506 0.200733
H41   H     H_    0.165520 0.575754 0.501449 0.203163
H42   H     H_    0.272125 0.600556 0.636302 0.156074
H43   H     H_    0.206894 0.428438 0.671975 0.155710
H44   H     H_    0.700601 0.883465 0.912499 0.170835
H45   H     H_    0.270139 0.547893 0.730412 0.155666
H46   H     H_    0.312638 0.486025 0.765007 0.186087
H47   H     H_    0.996269 0.286541 0.291320 0.166580
H48   H     H_    0.013570 0.259310 0.376435 0.125181
H49   H     H_    0.999090 0.187648 0.276416 0.184515
H50   H     H_    0.096115 0.437218 0.367419 0.171070
H51   H     H_    0.794626 0.969120 0.709887 0.190428
H52   H     H_    0.698086 0.974765 0.658259 0.209510
H53   H     H_    0.735047 0.918783 0.594623 0.181237
H54   H     H_    0.121950 0.259130 0.503344 0.138378
H55   H     H_    0.704262 0.812662 0.955137 0.175564
H56   H     H_    0.489844 0.369215 0.622298 0.159452
H57   H     H_    0.532670 0.294983 0.602998 0.176495
H58   H     H_    0.457203 0.279912 0.642363 0.192807
H59   H     H_    0.460049 0.160956 0.683724 0.078497
H60   H     H_    0.417059 0.157054 0.756242 0.212190
H61   H     H_    0.466788 0.256102 0.755910 0.186721
H62   H     H_    0.406793 0.966246 0.624270 0.170776
H63   H     H_    0.306237 0.882271 0.606168 0.172669
H64   H     H_    0.389246 0.969903 0.711579 0.189757
H65   H     H_    0.265005 0.883423 0.477991 0.187668
H66   H     H_    0.680938 0.678010 0.100218 0.146610
H67   H     H_    0.286875 0.824444 0.367133 0.172114
H68   H     H_    0.346845 0.919032 0.360806 0.156726
H69   H     H_    0.260856 0.817737 0.266068 0.192887
H70   H     H_    0.255471 0.079317 0.275619 0.167648
H71   H     H_    0.280539 0.998889 0.291358 0.168408
H72   H     H_    0.342790 0.111971 0.375859 0.190880
H73   H     H_    0.621012 0.408771 0.823130 0.135303
H74   H     H_    0.628729 0.516523 0.870705 0.139494
H75   H     H_    0.660441 0.470450 0.935406 0.193185
H76   H     H_    0.948543 0.614524 0.823530 0.217346
H77   H     H_    0.825407 0.718040 0.210391 0.162656
H78   H     H_    0.850713 0.615753 0.762053 0.181163
H79   H     H_    0.902551 0.567062 0.711785 0.189444
H80   H     H_    0.671499 0.567747 0.785159 0.180456
H81   H     H_    0.761246 0.606062 0.614957 0.143130
H82   H     H_    0.864688 0.618444 0.625045 0.199759
H83   H     H_    0.809747 0.651793 0.560450 0.181892
H84   H     H_    0.681631 0.426635 0.653315 0.199101
H85   H     H_    0.028160 0.796784 0.666333 0.182760
H86   H     H_    0.121929 0.778644 0.703070 0.149124
H87   H     H_    0.029703 0.729726 0.714418 0.229000
H88   H     H_    0.851340 0.747898 0.354539 0.133019
H89   H     H_    0.142475 0.799882 0.599958 0.155734
H90   H     H_    0.135698 0.824914 0.482582 0.203368
H91   H     H_    0.725885 0.512314 0.222453 0.197259
H92   H     H_    0.764319 0.578059 0.333550 0.158530
H93   H     H_    0.786120 0.486804 0.295522 0.165387
H94   H     H_    0.881275 0.582941 0.439022 0.155925
H95   H     H_    0.995796 0.616675 0.254985 0.172000
H96   H     H_    0.959240 0.970704 0.238947 0.187856
H97   H     H_    0.895312 0.854111 0.187055 0.137661
H98   H     H_    0.962377 0.905037 0.148187 0.155727
H99   H     H_    0.526018 0.902021 0.599528 0.182732
H100  H     H_    0.155988 0.843957 0.176156 0.222914
H101  H     H_    0.277370 0.914405 0.167352 0.169779
H102  H     H_    0.223012 0.974984 0.138521 0.151722
H103  H     H_    0.294684 0.956520 0.100095 0.196785
H104  H     H_    0.858788 0.762660 0.828568 0.200403
H105  H     H_    0.115906 0.912444 0.955754 0.188974
H106  H     H_    0.006327 0.895999 0.932485 0.151475
H107  H     H_    0.031595 0.863467 0.848066 0.205616
H108  H     H_    0.879908 0.704381 0.907768 0.170520
H109  H     H_    0.764825 0.683024 0.929853 0.196543
H110  H     H_    0.383759 0.806529 0.579329 0.140328
H111  H     H_    0.824819 0.789341 0.026728 0.159721
H112  H     H_    0.743267 0.696343 0.015969 0.155841
H113  H     H_    0.472365 0.369199 0.000034 0.228217
H114  H     H_    0.467375 0.441955 0.957094 0.132065
H115  H     H_    0.550086 0.410079 0.969145 0.173673
H116  H     H_    0.345257 0.148940 0.856772 0.187832
H117  H     H_    0.240455 0.108530 0.855140 0.152018
H118  H     H_    0.339761 0.141793 0.946054 0.176599
H119  H     H_    0.170350 0.227168 0.873778 0.181635
H120  H     H_    0.181586 0.293807 0.682551 0.164665
O1    O     O_R   0.408620 0.551720 0.460350 -0.596968
O2    O     O_R   0.952100 0.356700 0.912170 -0.636200
O3    O     O_R   0.145980 0.551740 0.094190 -0.626010
O4    O     O_R   0.409320 0.448300 0.357580 -0.643670
O5    O     O_R   0.042530 0.448320 0.094220 -0.617434
O6    O     O_R   0.054350 0.643370 0.094170 -0.634370
O7    O     O_R   0.950900 0.539950 0.094200 -0.605823
O8    O     O_R   0.963910 0.551750 0.912120 -0.642196
O9    O     O_R   0.860470 0.448330 0.912150 -0.609902
O10   O     O_R   0.591270 0.643330 0.551380 -0.599610
O11   O     O_R   0.591970 0.539910 0.448620 -0.642443
O12   O     O_R   0.949210 0.908400 0.357560 -0.617521
O13   O     O_R   0.590680 0.551700 0.642420 -0.628316
O14   O     O_R   0.591380 0.448280 0.539650 -0.622097
O15   O     O_R   0.408030 0.460090 0.551380 -0.611315
O16   O     O_R   0.408730 0.356670 0.448620 -0.590646
O17   O     O_R   0.051990 0.908360 0.460320 -0.625114
O18   O     O_3   0.777222 0.825947 0.894926 -0.615270
O19   O     O_3   0.265220 0.646510 0.445469 -0.607972
O20   O     O_3   0.104866 0.269286 0.193248 -0.580144
O21   O     O_3   0.905499 0.088673 0.886394 -0.629418
O22   O     O_3   0.315464 0.483057 0.657595 -0.592315
O23   O     O_R   0.959770 0.908340 0.551360 -0.624402
O24   O     O_3   0.119243 0.299138 0.353705 -0.579294
O25   O     O_3   0.670720 0.852413 0.641642 -0.589095
O26   O     O_3   0.404776 0.244681 0.513862 -0.628845
O27   O     O_3   0.341198 0.166064 0.655282 -0.554892
O28   O     O_3   0.313518 0.002878 0.637428 -0.592455
O29   O     O_3   0.217759 0.887561 0.334105 -0.586215
O30   O     O_3   0.214033 0.040579 0.349854 -0.538748
O31   O     O_3   0.747452 0.517530 0.897669 -0.579544
O32   O     O_3   0.831030 0.494209 0.747552 -0.631256
O33   O     O_3   0.869953 0.734402 0.691619 -0.610222
O34   O     O_R   0.856990 0.908380 0.448600 -0.617773
O35   O     O_3   0.009190 0.672242 0.592026 -0.625308
O36   O     O_3   0.858367 0.597195 0.293958 -0.602315
O37   O     O_3   0.033733 0.911715 0.261097 -0.562745
O38   O     O_3   0.175588 0.847460 0.042641 -0.581282
O39   O     O_3   0.019193 0.782915 0.899427 -0.605838
O40   O     O_3   0.858265 0.694298 0.036340 -0.584106
O41   O     O_3   0.427729 0.313031 0.868780 -0.620718
O42   O     O_3   0.326613 0.243053 0.934870 -0.604479
O43   O     O_3   0.340810 0.325991 0.721688 -0.555170
O44   O     O_3   0.158795 0.394371 0.891676 -0.618173
O45   O     O_R   0.050790 0.091560 0.642400 -0.612634
O46   O     O_3   0.665322 0.098475 0.761549 -0.634314
O47   O     O_3   0.845343 0.340932 0.687735 -0.584215
O48   O     O_3   0.568589 0.687766 0.281435 -0.628613
O49   O     O_R   0.948010 0.091600 0.539640 -0.632905
O50   O     O_R   0.143010 0.091580 0.551350 -0.596206
O51   O     O_R   0.040230 0.091620 0.448600 -0.629988
O52   O     O_R   0.055540 0.460120 0.912140 -0.591521
Zn1   Zn    Zn3+2 0.499530 0.569060 0.568620 0.997184
Zn2   Zn    Zn3+2 0.500470 0.430940 0.431380 0.944212
Zn3   Zn    Zn3+2 0.068630 0.999950 0.568590 0.996473
Zn4   Zn    Zn3+2 0.931370 0.000000 0.431370 0.940542
Zn5   Zn    Zn3+2 0.072290 0.569090 0.003150 0.987450
Zn6   Zn    Zn3+2 0.934150 0.430980 0.003190 0.987011

loop_
_geom_bond_atom_site_label_1
_geom_bond_atom_site_label_2
_ccdc_geom_bond_type
C31   H106  S    
C43   C44   A    
C99   O12   A    
C27   H85   S    
C126  C127  A    
C15   H45   S    
C23   H74   S    
C117  C118  A    
C69   H11   S    
C41   C42   A    
C21   H69   S    
O7    Zn6   S    
C130  C132  A    
C111  C112  A    
C4    O41   S    
C7    C124  S    
C75   C76   A    
C6    C7    A    
C110  H90   S    
C128  C129  A    
C112  C114  A    
C97   C98   D    
C16   H49   S    
C7    C8    A    
C68   C70   A    
C77   C78   A    
C44   C45   A    
C45   H66   S    
C128  O40   S    
C127  H108  S    
C18   H58   S    
C62   C63   A    
C41   C46   S    
C37   H7    S    
C5    C58   A    
C39   H19   S    
C87   C88   A    
O17   Zn3   S    
C100  O23   A    
C17   H53   S    
C29   H96   S    
C101  O45   A    
C109  C115  A    
C46   O11   A    
C12   H32   S    
C5    C6    A    
C116  H95   S    
C53   C64   S    
C16   H48   S    
C123  C125  A    
C131  H104  S    
C46   O10   A    
O51   Zn4   S    
C79   C86   A    
C130  O42   S    
C37   O44   S    
C77   H50   S    
C2    H10   S    
C116  C117  A    
C22   H72   S    
C33   H114  S    
C26   H82   S    
C9    C58   A    
C73   C74   A    
C107  C119  A    
C25   O32   S    
C49   C50   A    
C2    C13   A    
C110  C111  A    
C38   H12   S    
C94   C96   D    
C16   O24   S    
C66   H35   S    
C67   O21   S    
C71   C85   S    
C90   C92   A    
C14   O21   S    
O45   Zn3   S    
C11   O19   S    
C57   H28   S    
C51   H110  S    
C17   H51   S    
C132  C133  A    
C103  O51   A    
C37   H6    S    
C115  O35   S    
C96   O32   S    
C73   C78   A    
C34   H118  S    
C40   H21   S    
C108  O8    A    
C34   H117  S    
C6    C104  S    
C30   H101  S    
C36   H3    S    
O8    Zn5   S    
C38   H15   S    
C109  H89   S    
C30   O38   S    
C102  H17   S    
C99   C121  S    
C126  O39   S    
O1    Zn1   S    
C88   C89   A    
C66   C67   A    
C96   C108  S    
O4    Zn2   S    
C27   H86   S    
C105  O5    A    
C82   C93   S    
O15   Zn1   S    
C15   H46   S    
C95   C107  A    
C26   H83   S    
C106  O6    A    
C49   H88   S    
C25   H76   S    
O11   Zn2   S    
C20   O28   S    
O9    Zn6   S    
C15   H43   S    
C19   O27   S    
C112  O36   S    
C47   O18   S    
C28   H93   S    
O34   Zn4   S    
O14   Zn2   S    
C81   C82   A    
C94   O31   S    
C76   C77   A    
C58   C133  S    
C24   C50   S    
O50   Zn3   S    
C89   H65   S    
C43   O48   S    
O16   Zn2   S    
C18   H57   S    
C27   H87   S    
C24   C35   A    
C95   O25   S    
C79   H54   S    
C39   H20   S    
C51   C52   A    
C10   H44   S    
C30   H103  S    
C21   H67   S    
C40   H23   S    
O13   Zn1   S    
C84   C85   A    
C55   H27   S    
C14   H38   S    
C37   H8    S    
C92   O30   S    
C28   H92   S    
C12   H31   S    
C79   C81   A    
C3    O43   S    
C16   H47   S    
C8    C9    A    
C57   C60   A    
C4    C130  A    
C23   H75   S    
C94   C97   S    
C53   C54   A    
C114  H94   S    
C39   H18   S    
C70   C72   A    
C106  O7    A    
C104  O52   A    
C67   C68   A    
C22   H71   S    
C47   C131  A    
C60   C61   A    
C87   C93   A    
C81   C103  S    
C10   H33   S    
C25   H78   S    
C33   H115  S    
C5    O44   S    
C87   O27   S    
C12   H34   S    
C19   H61   S    
C123  H100  S    
O5    Zn6   S    
C75   C86   S    
C119  C131  A    
C62   H29   S    
O2    Zn6   S    
C48   H77   S    
C17   H52   S    
C71   O15   A    
C83   C95   A    
C125  C126  A    
C55   C56   A    
C134  H120  S    
C127  C128  A    
C34   H116  S    
C17   O25   S    
C27   O35   S    
C40   H22   S    
C40   O48   S    
C70   H40   S    
O10   Zn1   S    
C20   H64   S    
C121  C122  A    
C33   O41   S    
C35   C41   A    
C116  C122  A    
C132  H119  S    
O49   Zn4   S    
C18   O26   S    
C104  O2    A    
C59   O14   A    
C61   C72   S    
C113  O47   S    
C103  O50   A    
C13   C100  S    
C19   H59   S    
C47   C83   A    
C97   H80   S    
C98   H84   S    
C32   H109  S    
C78   H41   S    
C34   O42   S    
C56   H99   S    
C22   H70   S    
C91   C102  A    
C12   O20   S    
C3    C4    A    
C38   H14   S    
C23   O31   S    
C52   C53   A    
C57   C64   A    
C119  O33   S    
C1    O4    A    
C42   C107  S    
C45   C48   A    
C106  C117  S    
C44   H25   S    
C29   O37   S    
C54   C55   A    
C1    C63   S    
C105  O3    A    
C23   H73   S    
C65   O20   S    
C52   O19   S    
C21   H68   S    
C31   H107  S    
C35   H1    S    
C51   C56   A    
C29   H98   S    
C14   H37   S    
C85   C86   A    
C28   H91   S    
C90   O29   S    
C91   H16   S    
C31   H105  S    
C68   H39   S    
C43   C50   A    
C114  C115  A    
C108  O9    A    
C32   O40   S    
C65   C72   A    
C100  O34   A    
C29   H97   S    
C82   C84   A    
O52   Zn5   S    
C69   C124  A    
C76   O24   S    
C32   H111  S    
C39   O47   S    
C3    C134  A    
C80   C91   A    
C25   H79   S    
C21   O29   S    
C18   H56   S    
C26   O33   S    
O6    Zn5   S    
C102  C113  A    
C22   O30   S    
C11   H2    S    
O23   Zn3   S    
C11   H13   S    
C36   O43   S    
C133  C134  A    
C113  C124  A    
C88   O28   S    
C14   H36   S    
C2    C42   A    
C71   O16   A    
C48   C49   A    
C84   O26   S    
C99   O17   A    
C92   C93   A    
C28   O36   S    
C10   H55   S    
C33   H113  S    
C8    H9    S    
C73   H42   S    
O3    Zn5   S    
C61   C62   A    
O12   Zn4   S    
C36   H5    S    
C118  C120  A    
C20   H63   S    
C101  O49   A    
C125  O38   S    
C38   O46   S    
C80   O46   S    
C54   H26   S    
C63   C64   A    
C26   H81   S    
C31   O39   S    
C74   C75   A    
C13   C24   A    
C19   H60   S    
C9    C101  S    
C65   C66   A    
C32   H112  S    
C15   O22   S    
C118  C129  S    
C59   C98   S    
C120  C121  A    
C83   H30   S    
C69   C80   A    
C10   O18   S    
C74   O22   S    
C120  O37   S    
C30   H102  S    
C89   C90   A    
C109  C110  A    
C36   H4    S    
C20   H62   S    
C59   O13   A    
C123  C129  A    
C60   C105  S    
C1    O1    A    
C11   H24   S    
C111  C122  S    
