data_mof_unit_62848.cif
_audit_creation_date              2012-12-10T18:18:15-0500
_audit_creation_method            fapswitch 2.2
_symmetry_space_group_name_H-M    P1
_symmetry_Int_Tables_number       1
_space_group_crystal_system       triclinic
_cell_length_a                    32.275297
_cell_length_b                    32.275566
_cell_length_c                    38.852158
_cell_angle_alpha                 89.999105
_cell_angle_beta                  90.004532
_cell_angle_gamma                 90.0002
_cell_volume                      40472.4280038

loop_
_atom_site_label
_atom_site_type_symbol
_atom_type_description
_atom_site_fract_x
_atom_site_fract_y
_atom_site_fract_z
_atom_type_partial_charge
C1    C     C_R   0.920487 0.500000 0.000000 0.791596
C2    C     C_R   0.500000 0.079514 1.000000 0.792376
C3    C     C_R   0.079513 0.500000 1.000000 0.791541
C4    C     C_R   0.500000 0.920486 0.000000 0.792588
C5    C     C_R   0.420487 0.000000 0.500000 0.791500
C6    C     C_R   0.000000 0.579514 0.500000 0.792384
C7    C     C_R   0.579513 0.000000 0.500000 0.791523
C8    C     C_R   1.000000 0.420486 0.500000 0.792536
C9    C     C_R   0.772114 0.526880 0.978379 -0.140321
C10   C     C_R   0.529131 0.227886 0.980491 -0.138845
C11   C     C_R   0.227882 0.474491 0.977249 -0.140066
C12   C     C_R   0.470246 0.772115 0.981146 -0.138821
C13   C     C_R   0.772117 0.473129 0.021641 -0.140185
C14   C     C_R   0.529756 0.772114 0.018851 -0.138796
C15   C     C_R   0.227886 0.525518 0.022730 -0.140422
C16   C     C_R   0.470871 0.227885 0.019511 -0.138888
C17   C     C_R   0.272114 0.024292 0.476361 -0.140566
C18   C     C_R   0.028912 0.727886 0.480268 -0.138933
C19   C     C_R   0.727882 0.975128 0.476768 -0.140038
C20   C     C_R   0.971727 0.272115 0.479634 -0.138855
C21   C     C_R   0.272118 0.975716 0.523658 -0.139977
C22   C     C_R   0.028273 0.272114 0.520365 -0.138857
C23   C     C_R   0.727887 0.024880 0.523212 -0.140521
C24   C     C_R   0.971088 0.727885 0.519734 -0.138915
C25   C     C_R   0.793815 0.500004 0.000010 -0.044491
C26   C     C_R   0.500001 0.206185 0.000001 -0.044596
C27   C     C_R   0.206185 0.500004 0.999990 -0.044463
C28   C     C_R   0.500001 0.793815 0.999999 -0.044655
C29   C     C_R   0.293816 0.000004 0.500010 -0.044440
C30   C     C_R   0.000000 0.706185 0.500001 -0.044565
C31   C     C_R   0.706184 0.000004 0.499990 -0.044439
C32   C     C_R   1.000000 0.293815 0.499999 -0.044603
C33   C     C_1   0.661489 0.500002 0.000007 -0.056395
C34   C     C_1   0.500001 0.338511 0.000001 -0.055857
C35   C     C_1   0.338511 0.500002 0.999993 -0.056523
C36   C     C_1   0.500001 0.661489 0.999999 -0.055695
C37   C     C_1   0.161489 0.000002 0.500007 -0.056659
C38   C     C_1   1.000000 0.838511 0.500001 -0.055929
C39   C     C_1   0.838511 0.000001 0.499993 -0.056606
C40   C     C_1   0.999999 0.161489 0.499999 -0.055900
C41   C     C_1   0.838527 0.500002 0.000008 0.025063
C42   C     C_1   0.500000 0.161474 0.000000 0.026893
C43   C     C_1   0.161473 0.500002 0.999992 0.025070
C44   C     C_1   0.500000 0.838526 0.999999 0.026831
C45   C     C_1   0.338527 0.000002 0.500008 0.025050
C46   C     C_1   0.000000 0.661474 0.500000 0.026844
C47   C     C_1   0.661473 0.000002 0.499992 0.025041
C48   C     C_1   1.000000 0.338526 0.500000 0.026787
C49   C     C_1   0.875942 0.500001 0.000005 -0.134474
C50   C     C_1   0.500000 0.124059 0.000000 -0.133125
C51   C     C_1   0.124058 0.500001 0.999995 -0.134463
C52   C     C_1   0.500000 0.875941 1.000000 -0.133179
C53   C     C_1   0.375942 0.000001 0.500005 -0.134472
C54   C     C_1   0.000000 0.624059 0.500000 -0.133166
C55   C     C_1   0.624058 0.000001 0.499995 -0.134486
C56   C     C_1   1.000000 0.375941 0.500000 -0.133211
C57   C     C_1   0.624062 0.500001 0.000004 -0.136890
C58   C     C_1   0.500000 0.375937 0.000001 -0.136764
C59   C     C_1   0.375937 0.500001 0.999996 -0.136918
C60   C     C_1   0.500000 0.624062 0.999999 -0.136544
C61   C     C_1   0.124063 0.000001 0.500004 -0.136926
C62   C     C_1   1.000000 0.875938 0.500001 -0.136759
C63   C     C_1   0.875937 0.000000 0.499996 -0.136915
C64   C     C_1   1.000000 0.124062 0.499999 -0.136566
C65   C     C_R   0.500000 0.420484 0.000000 0.817740
C66   C     C_R   0.420484 0.500000 0.999999 0.818038
C67   C     C_R   0.500000 0.579516 1.000000 0.817822
C68   C     C_R   0.579516 0.500000 0.000001 0.817871
C69   C     C_R   1.000000 0.920484 0.500000 0.817856
C70   C     C_R   0.920484 1.000000 0.499999 0.818155
C71   C     C_R   1.000000 0.079516 0.500000 0.818110
C72   C     C_R   0.079516 1.000000 0.500001 0.818226
C73   C     C_R   0.000150 0.499993 0.933562 0.803742
C74   C     C_R   0.499999 0.000014 0.933559 0.804276
C75   C     C_R   0.999851 0.499992 0.066438 0.803739
C76   C     C_R   0.500001 0.000013 0.066441 0.804309
C77   C     C_R   0.500149 0.999993 0.433562 0.803716
C78   C     C_R   0.999999 0.500013 0.433559 0.804291
C79   C     C_R   0.499850 0.999992 0.566438 0.803696
C80   C     C_R   0.000001 0.500013 0.566441 0.804272
C81   C     C_R   0.972302 0.475050 0.876879 0.279783
C82   C     C_R   0.475263 0.028942 0.877216 0.379548
C83   C     C_R   0.030479 0.524071 0.877540 0.382750
C84   C     C_R   0.524596 0.971228 0.877102 0.378607
C85   C     C_R   0.969521 0.524060 0.122462 0.382731
C86   C     C_R   0.475380 0.971248 0.122899 0.378585
C87   C     C_R   0.027698 0.475039 0.123118 0.279775
C88   C     C_R   0.524766 0.028917 0.122783 0.379533
C89   C     C_R   0.472296 0.975052 0.376882 0.279749
C90   C     C_R   0.975240 0.528919 0.377215 0.379521
C91   C     C_R   0.530481 0.024063 0.377539 0.382703
C92   C     C_R   0.024612 0.471239 0.377103 0.378552
C93   C     C_R   0.469500 0.024045 0.622459 0.382761
C94   C     C_R   0.975404 0.471228 0.622899 0.378564
C95   C     C_R   0.527718 0.975073 0.623121 0.279762
C96   C     C_R   0.024739 0.528940 0.622783 0.379530
C97   C     C_R   0.974385 0.473750 0.840557 0.405180
C98   C     C_R   0.473427 0.027403 0.841244 0.406054
C99   C     C_R   0.031131 0.524078 0.841525 0.366271
C100  C     C_R   0.526054 0.972671 0.841112 0.407503
C101  C     C_R   0.968863 0.524050 0.158477 0.366249
C102  C     C_R   0.473925 0.972692 0.158889 0.407481
C103  C     C_R   0.025611 0.473727 0.159439 0.405167
C104  C     C_R   0.526607 0.027370 0.158755 0.406033
C105  C     C_R   0.474379 0.973747 0.340560 0.405172
C106  C     C_R   0.973399 0.527371 0.341243 0.406025
C107  C     C_R   0.531137 0.024061 0.341525 0.366249
C108  C     C_R   0.026067 0.472680 0.341112 0.407483
C109  C     C_R   0.468851 0.024056 0.658474 0.366284
C110  C     C_R   0.973947 0.472670 0.658888 0.407495
C111  C     C_R   0.525639 0.973775 0.659443 0.405203
C112  C     C_R   0.026577 0.527399 0.658755 0.406041
C113  C     C_R   0.003000 0.498886 0.822935 -0.259265
C114  C     C_R   0.499615 0.999981 0.822767 -0.331616
C115  C     C_R   0.996993 0.498856 0.177064 -0.259276
C116  C     C_R   0.500394 0.999974 0.177233 -0.331604
C117  C     C_R   0.503002 0.998873 0.322936 -0.259278
C118  C     C_R   0.999604 0.499966 0.322767 -0.331590
C119  C     C_R   0.497004 0.998889 0.677065 -0.259266
C120  C     C_R   0.000389 0.499979 0.677232 -0.331602
C121  C     C_R   0.000836 0.499888 0.895557 -0.364302
C122  C     C_R   0.499979 0.000074 0.895557 -0.417977
C123  C     C_R   0.999166 0.499883 0.104442 -0.364291
C124  C     C_R   0.500022 0.000073 0.104443 -0.418006
C125  C     C_R   0.500834 0.999887 0.395558 -0.364279
C126  C     C_R   0.999978 0.500070 0.395557 -0.418000
C127  C     C_R   0.499163 0.999886 0.604442 -0.364274
C128  C     C_R   0.000022 0.500074 0.604442 -0.417977
C129  C     C_R   0.000820 0.499697 0.715258 0.396604
C130  C     C_R   0.497733 0.999198 0.715013 0.485032
C131  C     C_R   0.999171 0.499679 0.284741 0.396576
C132  C     C_R   0.502276 0.999184 0.284987 0.484984
C133  C     C_R   0.500826 0.999690 0.215258 0.396612
C134  C     C_R   0.997721 0.499168 0.215013 0.484979
C135  C     C_R   0.499185 0.999699 0.784741 0.396644
C136  C     C_R   0.002273 0.499195 0.784986 0.484990
C137  C     C_R   0.728733 0.472658 0.022017 0.404763
C138  C     C_R   0.470361 0.271269 0.019850 0.405080
C139  C     C_R   0.271271 0.525966 0.023125 0.404745
C140  C     C_R   0.530278 0.728730 0.019177 0.405193
C141  C     C_R   0.728729 0.527351 0.978004 0.404759
C142  C     C_R   0.469725 0.728731 0.980819 0.405164
C143  C     C_R   0.271267 0.474044 0.976855 0.404743
C144  C     C_R   0.529642 0.271270 0.980153 0.405110
C145  C     C_R   0.228733 0.975290 0.524069 0.404708
C146  C     C_R   0.970581 0.771268 0.520076 0.405047
C147  C     C_R   0.771271 0.025316 0.523616 0.404686
C148  C     C_R   0.028769 0.228730 0.520718 0.405101
C149  C     C_R   0.228730 0.024718 0.475950 0.404682
C150  C     C_R   0.971231 0.228732 0.479280 0.405112
C151  C     C_R   0.771266 0.974691 0.476366 0.404717
C152  C     C_R   0.029419 0.771270 0.479926 0.405037
C153  C     C_R   0.706435 0.500004 0.000010 -0.085298
C154  C     C_R   0.500001 0.293566 0.000002 -0.085208
C155  C     C_R   0.293565 0.500004 0.999991 -0.085396
C156  C     C_R   0.500001 0.706435 0.999998 -0.085288
C157  C     C_R   0.206435 0.000003 0.500009 -0.085474
C158  C     C_R   1.000000 0.793565 0.500001 -0.085208
C159  C     C_R   0.793565 0.000003 0.499991 -0.085428
C160  C     C_R   1.000000 0.206435 0.499999 -0.085401
Cu1   Cu    Cu3+1 0.000000 0.540950 0.000000 1.041511
Cu2   Cu    Cu3+1 0.540950 0.000000 0.000000 1.040164
Cu3   Cu    Cu3+1 0.000000 0.459050 0.000000 1.036399
Cu4   Cu    Cu3+1 0.459050 0.000000 0.000000 1.040125
Cu5   Cu    Cu3+1 0.500000 0.040950 0.500000 1.041463
Cu6   Cu    Cu3+1 0.040950 0.500000 0.500000 1.040071
Cu7   Cu    Cu3+1 0.500000 0.959050 0.500000 1.036375
Cu8   Cu    Cu3+1 0.959050 0.500000 0.500000 1.040072
Cu9   Cu    Cu3+1 0.500000 0.500000 0.965720 1.023707
Cu10  Cu    Cu3+1 0.500000 0.500000 0.034280 1.023708
Cu11  Cu    Cu3+1 0.000000 0.000000 0.465720 1.023731
Cu12  Cu    Cu3+1 0.000000 0.000000 0.534280 1.023733
H1    H     H_    0.788990 0.452270 0.038431 0.185284
H2    H     H_    0.448261 0.211013 0.034655 0.185887
H3    H     H_    0.211016 0.545320 0.040380 0.185587
H4    H     H_    0.552851 0.788986 0.033484 0.185945
H5    H     H_    0.788984 0.547739 0.961589 0.185660
H6    H     H_    0.447151 0.788987 0.966513 0.185933
H7    H     H_    0.211009 0.454689 0.959599 0.185283
H8    H     H_    0.551741 0.211015 0.965347 0.185904
H9    H     H_    0.288991 0.956865 0.542014 0.185294
H10   H     H_    0.948647 0.711012 0.535051 0.185870
H11   H     H_    0.711017 0.044187 0.541237 0.185538
H12   H     H_    0.050218 0.288986 0.536172 0.185875
H13   H     H_    0.288984 0.043143 0.458005 0.185513
H14   H     H_    0.949782 0.288987 0.463826 0.185875
H15   H     H_    0.711009 0.955820 0.458744 0.185278
H16   H     H_    0.051353 0.711015 0.464951 0.185866
N1    N     N_R   0.996798 0.535202 0.767519 -0.201981
N2    N     N_R   0.493844 0.963683 0.767243 -0.187784
N3    N     N_R   0.006749 0.463419 0.767020 -0.154844
N4    N     N_R   0.503965 0.035443 0.766744 -0.186861
N5    N     N_R   0.993283 0.463389 0.232983 -0.154845
N6    N     N_R   0.496104 0.035441 0.233256 -0.186832
N7    N     N_R   0.003154 0.535183 0.232476 -0.201828
N8    N     N_R   0.506111 0.963665 0.232757 -0.187787
N9    N     N_R   0.496854 0.035199 0.267521 -0.201888
N10   N     N_R   0.993874 0.463655 0.267245 -0.187781
N11   N     N_R   0.506703 0.963402 0.267020 -0.154827
N12   N     N_R   0.003904 0.535427 0.266741 -0.186843
N13   N     N_R   0.493252 0.963422 0.732980 -0.154896
N14   N     N_R   0.996047 0.535441 0.733254 -0.186859
N15   N     N_R   0.503214 0.035204 0.732479 -0.202035
N16   N     N_R   0.006156 0.463680 0.732757 -0.187771
O1    O     O_R   0.940210 0.534570 0.999910 -0.570808
O2    O     O_R   0.534570 0.059790 0.999910 -0.571499
O3    O     O_R   0.059790 0.465430 0.999910 -0.572330
O4    O     O_R   0.465430 0.940210 0.999910 -0.571637
O5    O     O_R   0.940210 0.465430 0.000090 -0.572370
O6    O     O_R   0.534570 0.940210 0.000090 -0.571616
O7    O     O_R   0.059790 0.534570 0.000090 -0.570759
O8    O     O_R   0.465430 0.059790 0.000090 -0.571506
O9    O     O_R   0.440210 0.034570 0.499910 -0.570737
O10   O     O_R   0.034570 0.559790 0.499910 -0.571508
O11   O     O_R   0.559790 0.965430 0.499910 -0.572318
O12   O     O_R   0.965430 0.440210 0.499910 -0.571589
O13   O     O_R   0.440210 0.965430 0.500090 -0.572305
O14   O     O_R   0.034570 0.440210 0.500090 -0.571597
O15   O     O_R   0.559790 0.034570 0.500090 -0.570762
O16   O     O_R   0.965430 0.559790 0.500090 -0.571510
O17   O     O_R   0.000050 0.534570 0.950000 -0.562348
O18   O     O_R   0.534570 0.999950 0.950000 -0.559867
O19   O     O_R   0.999950 0.465430 0.950000 -0.557624
O20   O     O_R   0.465430 0.000050 0.950000 -0.559811
O21   O     O_R   0.000050 0.465430 0.050000 -0.557616
O22   O     O_R   0.534570 0.000050 0.050000 -0.559795
O23   O     O_R   0.999950 0.534570 0.050000 -0.562363
O24   O     O_R   0.465430 0.999950 0.050000 -0.559867
O25   O     O_R   0.500050 0.034570 0.450000 -0.562368
O26   O     O_R   0.034570 0.499950 0.450000 -0.559867
O27   O     O_R   0.499950 0.965430 0.450000 -0.557623
O28   O     O_R   0.965430 0.500050 0.450000 -0.559817
O29   O     O_R   0.500050 0.965430 0.550000 -0.557639
O30   O     O_R   0.034570 0.500050 0.550000 -0.559825
O31   O     O_R   0.499950 0.034570 0.550000 -0.562369
O32   O     O_R   0.965430 0.499950 0.550000 -0.559876
O33   O     O_R   0.500080 0.440100 0.971010 -0.572378
O34   O     O_R   0.440100 0.499920 0.971010 -0.572620
O35   O     O_R   0.499920 0.559900 0.971010 -0.572279
O36   O     O_R   0.559900 0.500080 0.971010 -0.572701
O37   O     O_R   0.500080 0.559900 0.028990 -0.572281
O38   O     O_R   0.440100 0.500080 0.028990 -0.572805
O39   O     O_R   0.499920 0.440100 0.028990 -0.572377
O40   O     O_R   0.559900 0.499920 0.028990 -0.572514
O41   O     O_R   0.000080 0.940100 0.471010 -0.572377
O42   O     O_R   0.940100 0.999920 0.471010 -0.572663
O43   O     O_R   0.999920 0.059900 0.471010 -0.572388
O44   O     O_R   0.059900 0.000080 0.471010 -0.572881
O45   O     O_R   0.000080 0.059900 0.528990 -0.572385
O46   O     O_R   0.940100 0.000080 0.528990 -0.572836
O47   O     O_R   0.999920 0.940100 0.528990 -0.572378
O48   O     O_R   0.059900 0.999920 0.528990 -0.572708
O49   O     O_3   0.941495 0.452479 0.893066 -0.703557
H17   H     H_    0.934750 0.465336 0.915489 0.336254
O50   O     O_3   0.451797 0.059036 0.893399 -0.630322
H18   H     H_    0.463919 0.065322 0.916193 0.322022
O51   O     O_3   0.060452 0.547386 0.894050 -0.630087
H19   H     H_    0.065663 0.535904 0.917248 0.319751
O52   O     O_3   0.548239 0.941180 0.893169 -0.630051
H20   H     H_    0.536349 0.934917 0.916049 0.322263
O53   O     O_3   0.939550 0.547381 0.105955 -0.630091
H21   H     H_    0.934343 0.535910 0.082754 0.319790
O54   O     O_3   0.451710 0.941221 0.106833 -0.630046
H22   H     H_    0.463607 0.934936 0.083960 0.322275
O55   O     O_3   0.058508 0.452477 0.106929 -0.703568
H23   H     H_    0.065254 0.465339 0.084508 0.336225
O56   O     O_3   0.548255 0.058992 0.106599 -0.630289
H24   H     H_    0.536122 0.065304 0.083814 0.322039
O57   O     O_3   0.441484 0.952490 0.393070 -0.703606
H25   H     H_    0.434742 0.965349 0.415493 0.336195
O58   O     O_3   0.951757 0.558999 0.393397 -0.630335
H26   H     H_    0.963888 0.565307 0.416184 0.322027
O59   O     O_3   0.560457 0.047377 0.394048 -0.630138
H27   H     H_    0.565663 0.035901 0.417248 0.319739
O60   O     O_3   0.048276 0.441208 0.393170 -0.630088
H28   H     H_    0.036381 0.434930 0.416046 0.322243
O61   O     O_3   0.439507 0.047334 0.605947 -0.630142
H29   H     H_    0.434318 0.035861 0.582744 0.319707
O62   O     O_3   0.951759 0.441181 0.606832 -0.630101
H30   H     H_    0.963649 0.434918 0.583953 0.322233
O63   O     O_3   0.558541 0.952524 0.606935 -0.703615
H31   H     H_    0.565266 0.965374 0.584505 0.336202
O64   O     O_3   0.048206 0.559033 0.606599 -0.630352
H32   H     H_    0.036082 0.565322 0.583805 0.322016
O65   O     O_3   0.947422 0.449764 0.821261 -0.671318
H33   H     H_    0.930071 0.432425 0.836527 0.386732
O66   O     O_3   0.445715 0.053771 0.825213 -0.623706
H34   H     H_    0.438208 0.042443 0.802397 0.337187
O67   O     O_3   0.061165 0.548011 0.825692 -0.625247
H35   H     H_    0.065088 0.538874 0.801627 0.331916
O68   O     O_3   0.553571 0.946243 0.824923 -0.621321
H36   H     H_    0.560651 0.957390 0.801951 0.345618
O69   O     O_3   0.938821 0.547967 0.174315 -0.625221
H37   H     H_    0.934838 0.538750 0.198353 0.331858
O70   O     O_3   0.446380 0.946293 0.175080 -0.621320
H38   H     H_    0.439306 0.957454 0.198048 0.345612
O71   O     O_3   0.052574 0.449737 0.178733 -0.671286
H39   H     H_    0.069920 0.432396 0.163464 0.386735
O72   O     O_3   0.554350 0.053706 0.174785 -0.623687
H40   H     H_    0.561859 0.042358 0.197594 0.337184
O73   O     O_3   0.447410 0.949767 0.321265 -0.671288
H41   H     H_    0.430049 0.932439 0.336533 0.386736
O74   O     O_3   0.945663 0.553714 0.325212 -0.623718
H42   H     H_    0.938155 0.542370 0.302402 0.337176
O75   O     O_3   0.561179 0.047980 0.325689 -0.625219
H43   H     H_    0.565146 0.038785 0.301644 0.331897
O76   O     O_3   0.053604 0.446271 0.324924 -0.621327
H44   H     H_    0.060679 0.457427 0.301953 0.345606
O77   O     O_3   0.438798 0.047967 0.674304 -0.625271
H45   H     H_    0.434917 0.038868 0.698384 0.331939
O78   O     O_3   0.946429 0.446243 0.675079 -0.621337
H46   H     H_    0.939350 0.457391 0.698051 0.345602
O79   O     O_3   0.552622 0.949814 0.678741 -0.671316
H47   H     H_    0.569993 0.932493 0.663476 0.386734
O80   O     O_3   0.054292 0.553765 0.674785 -0.623722
H48   H     H_    0.061803 0.542432 0.697598 0.337178
O81   O     O_3   0.709920 0.445001 0.044269 -0.694288
H49   H     H_    0.679449 0.447132 0.042540 0.342574
O82   O     O_3   0.440384 0.290082 0.039921 -0.694066
H50   H     H_    0.442695 0.320553 0.038361 0.342132
O83   O     O_3   0.290087 0.552222 0.046518 -0.693926
H51   H     H_    0.320558 0.550205 0.044698 0.342785
O84   O     O_3   0.560897 0.709916 0.038570 -0.693656
H52   H     H_    0.558539 0.679445 0.037059 0.342162
O85   O     O_3   0.709914 0.555008 0.955751 -0.693932
H53   H     H_    0.679442 0.552882 0.957483 0.342597
O86   O     O_3   0.439106 0.709917 0.961425 -0.693733
H54   H     H_    0.441466 0.679446 0.962935 0.342151
O87   O     O_3   0.290079 0.447788 0.953462 -0.694214
H55   H     H_    0.320550 0.449808 0.955281 0.342769
O88   O     O_3   0.559619 0.290084 0.960083 -0.693988
H56   H     H_    0.557310 0.320555 0.961645 0.342146
O89   O     O_3   0.209921 0.950295 0.548397 -0.694153
H57   H     H_    0.179450 0.952220 0.546509 0.342938
O90   O     O_3   0.940829 0.790082 0.540376 -0.694090
H58   H     H_    0.943121 0.820553 0.538796 0.342162
O91   O     O_3   0.790087 0.050917 0.547506 -0.694007
H59   H     H_    0.820558 0.048951 0.545648 0.342858
O92   O     O_3   0.057864 0.209916 0.541668 -0.693720
H60   H     H_    0.055622 0.179445 0.540038 0.342378
O93   O     O_3   0.209914 0.049713 0.451621 -0.693998
H61   H     H_    0.179442 0.047792 0.453512 0.342935
O94   O     O_3   0.942136 0.209918 0.458330 -0.693702
H62   H     H_    0.944377 0.179447 0.459960 0.342383
O95   O     O_3   0.790078 0.949089 0.452476 -0.694196
H63   H     H_    0.820550 0.951057 0.454334 0.342857
O96   O     O_3   0.059171 0.790084 0.459626 -0.694116
H64   H     H_    0.056879 0.820555 0.461207 0.342158

loop_
_geom_bond_atom_site_label_1
_geom_bond_atom_site_label_2
_ccdc_geom_bond_type
C76   O24   A    
O68   H36   S    
C7    C55   S    
C65   O33   A    
C8    C56   S    
O91   H59   S    
Cu3   O5    S    
C77   C125  S    
C89   C125  A    
O89   H57   S    
C13   H1    S    
C36   C156  S    
C31   C47   S    
C59   C66   S    
C98   C114  A    
N6    N9    A    
O58   H26   S    
C119  C130  S    
C148  C160  A    
C117  C132  S    
C118  C131  S    
C84   O52   S    
C88   C104  A    
C104  C116  A    
C129  N16   A    
Cu3   O3    S    
C5    O13   A    
O60   H28   S    
C133  N6    A    
C71   O43   A    
C144  O88   S    
C142  O86   S    
C93   O61   S    
C138  C154  A    
C106  C118  A    
Cu5   O25   S    
C82   C98   A    
Cu1   O1    S    
C6    C54   S    
C18   C152  A    
C41   C49   T    
Cu1   Cu3   S    
C4    O4    A    
C15   C139  A    
O84   H52   S    
C84   C100  A    
C91   C107  A    
C68   O36   A    
C25   C41   S    
C112  C120  A    
C116  C133  S    
Cu2   O6    S    
O73   H41   S    
C21   C29   A    
C28   C44   S    
C29   C45   S    
C23   C31   A    
C151  O95   S    
Cu8   O28   S    
C145  C157  A    
Cu4   O20   S    
C15   C27   A    
O74   H42   S    
C11   C27   A    
C5    O9    A    
C90   C126  A    
C137  C153  A    
C105  O73   S    
Cu8   O16   S    
C140  C156  A    
C87   C103  A    
C69   O41   A    
C22   C148  A    
Cu5   O31   S    
C73   C121  S    
Cu9   O34   S    
C101  C115  A    
C82   O50   S    
C11   H7    S    
C9    H5    S    
Cu7   O29   S    
C79   C127  S    
C91   C125  A    
C16   C138  A    
C8    O12   A    
C115  C134  S    
C77   O25   A    
C73   O17   A    
C3    O3    A    
C72   O44   A    
C75   O23   A    
C79   O29   A    
C150  O94   S    
C101  O69   S    
C81   C121  A    
Cu4   O8    S    
C133  N8    A    
C71   O45   A    
C143  O87   S    
C85   C123  A    
C144  C154  A    
C135  N4    A    
C111  O79   S    
C69   O47   A    
C20   H14   S    
O90   H58   S    
C24   H10   S    
O83   H51   S    
C34   C58   T    
C139  O83   S    
C142  C156  A    
Cu3   O21   S    
C11   C143  A    
C82   C122  A    
C38   C62   T    
C12   H6    S    
C80   O32   A    
Cu7   O11   S    
C88   C124  A    
C141  O85   S    
Cu11  O41   S    
C35   C155  S    
O53   H21   S    
C33   C153  S    
Cu12  O45   S    
C111  C119  A    
O51   H19   S    
C37   C157  S    
C22   H12   S    
C2    C50   S    
C147  O91   S    
C92   C108  A    
C60   C67   S    
C95   O63   S    
Cu9   O36   S    
Cu1   O17   S    
C19   C151  A    
C2    O2    A    
C44   C52   T    
C112  O80   S    
C45   C53   T    
Cu5   Cu7   S    
O61   H29   S    
C66   O34   A    
Cu6   Cu8   S    
N8    N11   A    
C137  O81   S    
Cu2   O22   S    
C3    O7    A    
C77   O27   A    
C73   O19   A    
C1    O5    A    
C120  C129  S    
C76   C124  S    
Cu10  O39   S    
C75   O21   A    
C100  C114  A    
Cu4   O4    S    
C80   C128  S    
C83   C121  A    
C151  C159  A    
C135  N2    A    
C23   H11   S    
O69   H37   S    
C95   C127  A    
C58   C65   S    
C143  C155  A    
C139  C155  A    
O67   H35   S    
C10   C144  A    
C42   C50   T    
C6    O16   A    
Cu5   O9    S    
C14   C140  A    
C86   C124  A    
C149  O93   S    
C57   C68   S    
C86   C102  A    
C98   O66   S    
C26   C42   S    
C20   C32   A    
C16   H2    S    
C30   C46   S    
O56   H24   S    
C146  C158  A    
N1    N14   A    
Cu12  O47   S    
C136  N1    A    
C81   O49   S    
Cu8   O12   S    
C131  N12   A    
C79   O31   A    
C87   C123  A    
C141  C153  A    
C109  O77   S    
C67   O35   A    
C20   C150  A    
Cu5   O15   S    
C89   C105  A    
O64   H32   S    
C83   C99   A    
Cu7   O13   S    
C130  N15   A    
O52   H20   S    
C93   C109  A    
Cu6   O30   S    
C17   C29   A    
Cu10  O37   S    
C90   O58   S    
O94   H62   S    
C19   C31   A    
C9    C25   A    
O54   H22   S    
C65   O39   A    
C150  C160  A    
C12   C28   A    
C78   O28   A    
N5    N10   A    
C74   O20   A    
C96   C128  A    
C35   C59   T    
O87   H55   S    
C64   C71   S    
C14   H4    S    
C19   H15   S    
C17   H13   S    
O62   H30   S    
C70   O46   A    
Cu2   Cu4   S    
O80   H48   S    
Cu6   O26   S    
Cu9   O33   S    
O57   H25   S    
Cu2   O2    S    
C32   C48   S    
C105  C117  A    
C34   C154  S    
C16   C26   A    
C152  C158  A    
C96   O64   S    
C136  N3    A    
O76   H44   S    
Cu9   Cu10  S    
C131  N10   A    
C38   C158  S    
O70   H38   S    
C3    C51   S    
O93   H61   S    
C23   C147  A    
C94   C110  A    
C62   C69   S    
C146  O90   S    
C21   C145  A    
C103  C115  A    
O72   H40   S    
O65   H33   S    
C80   O30   A    
C96   C112  A    
O92   H60   S    
C6    O10   A    
C46   C54   T    
C92   O60   S    
C90   C106  A    
C130  N13   A    
C22   C32   A    
C70   O42   A    
C61   C72   S    
C134  N7    A    
C74   C122  S    
C140  O84   S    
C89   O57   S    
N3    N16   A    
C78   C126  S    
C86   O54   S    
O96   H64   S    
C109  C119  A    
Cu10  O40   S    
C103  O71   S    
C39   C159  S    
C40   C160  S    
C97   O65   S    
C99   C113  A    
C88   O56   S    
C94   C128  A    
C78   O26   A    
C74   O18   A    
C2    O8    A    
Cu11  O44   S    
C10   H8    S    
C145  O89   S    
O86   H54   S    
C24   C146  A    
C43   C51   T    
O79   H47   S    
O49   H17   S    
Cu12  O46   S    
C132  N9    A    
N4    N15   A    
C12   C142  A    
C110  O78   S    
C83   O51   S    
O85   H53   S    
C8    O14   A    
O82   H50   S    
C27   C43   S    
O75   H43   S    
Cu9   O35   S    
Cu11  O43   S    
C149  C157  A    
C107  C117  A    
C7    O11   A    
Cu11  Cu12  S    
O71   H39   S    
O88   H56   S    
C147  C159  A    
C18   H16   S    
C67   O37   A    
O77   H45   S    
C107  O75   S    
C21   H9    S    
Cu1   O7    S    
C4    C52   S    
C75   C123  S    
C5    C53   S    
C100  O68   S    
C84   C122  A    
C4    O6    A    
C148  O92   S    
C94   O62   S    
C134  N5    A    
Cu2   O18   S    
C108  O76   S    
C113  C136  S    
C114  C135  S    
C18   C30   A    
C1    O1    A    
O55   H23   S    
Cu6   O14   S    
C138  O82   S    
Cu8   O32   S    
C7    O15   A    
C10   C26   A    
C13   C25   A    
Cu11  O42   S    
C76   O22   A    
C108  C118  A    
C91   O59   S    
C110  C120  A    
C9    C141  A    
C66   O38   A    
O78   H46   S    
O63   H31   S    
Cu12  O48   S    
C132  N11   A    
C13   C137  A    
C106  O74   S    
C93   C127  A    
C63   C70   S    
O59   H27   S    
Cu4   O24   S    
C72   O48   A    
Cu6   O10   S    
C129  N14   A    
C87   O55   S    
O66   H34   S    
C97   C113  A    
O50   H18   S    
C85   C101  A    
C47   C55   T    
N7    N12   A    
C48   C56   T    
C33   C57   T    
Cu10  O38   S    
C17   C149  A    
C85   O53   S    
C36   C60   T    
C37   C61   T    
N2    N13   A    
Cu7   O27   S    
C102  O70   S    
Cu3   O19   S    
C39   C63   T    
C40   C64   T    
C15   H3    S    
C95   C111  A    
C81   C97   A    
C68   O40   A    
C104  O72   S    
O81   H49   S    
C24   C30   A    
C102  C116  A    
C152  O96   S    
C92   C126  A    
C14   C28   A    
O95   H63   S    
C99   O67   S    
C1    C49   S    
Cu1   O23   S    
