data_mof_unit_33454.cif
_audit_creation_date              2012-12-10T17:48:46-0500
_audit_creation_method            fapswitch 2.2
_symmetry_space_group_name_H-M    P1
_symmetry_Int_Tables_number       1
_space_group_crystal_system       triclinic
_cell_length_a                    15.736993
_cell_length_b                    10.727436
_cell_length_c                    9.884437
_cell_angle_alpha                 89.643589
_cell_angle_beta                  90.078996
_cell_angle_gamma                 91.590917
_cell_volume                      1667.9900767

loop_
_atom_site_label
_atom_site_type_symbol
_atom_type_description
_atom_site_fract_x
_atom_site_fract_y
_atom_site_fract_z
_atom_type_partial_charge
C1    C     C_R   0.506530 0.260228 0.501412 0.857227
C2    C     C_R   0.507697 0.051002 0.878333 -0.139098
C3    C     C_R   0.462123 0.938402 0.873476 -0.155552
C4    C     C_R   0.338322 0.499695 0.499962 0.881224
C5    C     C_R   0.447416 0.881027 0.749190 -0.164239
C6    C     C_R   0.478553 0.936381 0.627564 0.097804
C7    C     C_R   0.508144 0.060209 0.630845 0.095987
C8    C     C_R   0.512394 0.126652 0.506069 -0.118100
C9    C     C_R   0.507554 0.063941 0.382720 -0.232310
C10   C     C_R   0.496549 0.937064 0.381419 -0.208332
C11   C     C_R   0.483770 0.872319 0.502927 -0.139403
C12   C     C_3   0.949616 0.405540 0.612422 0.386986
C13   C     C_R   0.390005 0.334503 0.140979 -0.130199
C14   C     C_R   0.336500 0.252076 0.071030 -0.211947
C15   C     C_R   0.336562 0.252070 0.931086 -0.189447
C16   C     C_R   0.492277 0.739309 0.500326 0.881906
C17   C     C_R   0.390210 0.334379 0.860425 -0.120945
C18   C     C_R   0.446213 0.417985 0.928032 0.136986
C19   C     C_R   0.446111 0.418123 0.072646 0.063009
C20   C     C_R   0.552400 0.579010 0.072518 0.515077
C21   C     C_R   0.550803 0.579526 0.927391 -0.270888
C22   C     C_R   0.661654 0.500164 0.500078 0.913336
C23   C     C_3   0.917211 0.498278 0.502567 0.268872
C24   C     C_3   0.048985 0.407866 0.614179 -0.514820
C25   C     C_3   0.047629 0.453716 0.362781 -0.403529
C26   C     C_3   0.949503 0.455361 0.362575 -0.506066
C27   C     C_1   0.750492 0.499407 0.500602 -0.191031
C28   C     C_3   0.082645 0.497653 0.501728 0.323872
C29   C     C_3   0.946464 0.490339 0.837689 0.136778
C30   C     C_3   0.879522 0.540553 0.932152 -0.869650
C31   C     C_3   0.682546 0.687028 0.088447 0.075117
C32   C     C_3   0.742398 0.741581 0.194997 -0.812784
C33   C     C_3   0.953503 0.631886 0.526743 -0.413737
C34   C     C_3   0.051610 0.630884 0.529733 -0.411828
C35   C     C_1   0.825771 0.498888 0.501319 -0.051725
C36   C     C_1   0.174094 0.498501 0.500221 -0.096770
C37   C     C_1   0.249423 0.499120 0.499806 -0.192868
C38   C     C_R   0.530925 0.111747 0.758298 -0.161524
H1    H     H_    0.930825 0.310741 0.575635 0.094416
H2    H     H_    0.071430 0.312103 0.594417 0.147266
H3    H     H_    0.384962 0.330235 0.248154 0.204774
H4    H     H_    0.294321 0.188425 0.125919 0.143635
H5    H     H_    0.294573 0.188249 0.876737 0.145967
H6    H     H_    0.385679 0.329662 0.753253 0.203858
H7    H     H_    0.589860 0.645092 0.869992 0.158563
H8    H     H_    0.072808 0.515853 0.280652 0.179288
H9    H     H_    0.068749 0.357668 0.341214 0.169236
H10   H     H_    0.923281 0.360594 0.338554 0.170709
H11   H     H_    0.927532 0.519410 0.281417 0.194502
H12   H     H_    0.077692 0.434926 0.712452 0.156628
H13   H     H_    0.075299 0.663924 0.629737 0.159602
H14   H     H_    0.077459 0.697120 0.451922 0.173644
H15   H     H_    0.928232 0.671597 0.621501 0.175462
H16   H     H_    0.982867 0.571077 0.795132 0.129687
H17   H     H_    0.989917 0.432267 0.898544 0.143144
H18   H     H_    0.843061 0.462187 0.980550 0.261271
H19   H     H_    0.910558 0.597846 0.012381 0.199276
H20   H     H_    0.835127 0.599513 0.874303 0.250864
H21   H     H_    0.677665 0.756903 0.005481 0.140287
H22   H     H_    0.710745 0.600035 0.049700 0.138837
H23   H     H_    0.932801 0.694705 0.443572 0.172479
H24   H     H_    0.750864 0.673344 0.278301 0.256285
H25   H     H_    0.805401 0.763815 0.149036 0.196974
H26   H     H_    0.716107 0.828287 0.236816 0.256070
H27   H     H_    0.512564 0.112667 0.286543 0.172663
H28   H     H_    0.568503 0.197059 0.767504 0.170894
H29   H     H_    0.523269 0.092903 0.974944 0.141772
H30   H     H_    0.440282 0.893743 0.966104 0.140742
H31   H     H_    0.410726 0.794301 0.749604 0.162744
H32   H     H_    0.498795 0.889851 0.284910 0.189598
N1    N     N_R   0.499210 0.498800 0.142780 -0.153175
N2    N     N_R   0.499180 0.498720 0.857170 -0.135695
O1    O     O_R   0.500000 0.316780 0.614690 -0.652511
O2    O     O_3   0.601802 0.663430 0.147080 -0.577639
O3    O     O_R   0.499990 0.316750 0.385360 -0.646032
O4    O     O_R   0.377150 0.500020 0.614720 -0.637549
O5    O     O_R   0.377140 0.499990 0.385380 -0.636348
O6    O     O_R   0.500010 0.683250 0.614640 -0.628361
O7    O     O_R   0.500000 0.683220 0.385310 -0.569328
O8    O     O_R   0.622860 0.500010 0.614620 -0.607080
O9    O     O_R   0.622850 0.499980 0.385280 -0.577195
O10   O     O_3   0.905875 0.415206 0.738513 -0.606825
Zn1   Zn    Zn3+2 0.500010 0.500020 0.653130 0.925229
Zn2   Zn    Zn3+2 0.499990 0.499980 0.346870 0.973984

loop_
_geom_bond_atom_site_label_1
_geom_bond_atom_site_label_2
_ccdc_geom_bond_type
C1    C8    S    
C19   N1    A    
C3    H30   S    
C13   H3    S    
C7    C8    A    
C25   C28   S    
C12   C23   S    
C34   H13   S    
C36   C37   T    
O7    Zn2   S    
O3    Zn2   S    
C29   H16   S    
C30   H19   S    
C18   C19   A    
C23   C26   S    
C31   H21   S    
C5    H31   S    
O6    Zn1   S    
C38   H28   S    
C8    C9    A    
C23   C33   S    
C20   N1    A    
C9    C10   A    
C25   H9    S    
C26   H10   S    
C14   H4    S    
C28   C34   S    
C13   C14   A    
C18   N2    A    
O8    Zn1   S    
O4    Zn1   S    
C17   C18   A    
C21   H7    S    
C33   H15   S    
C13   C19   A    
C21   N2    A    
C12   O10   S    
C1    O3    A    
C22   O9    A    
C32   H26   S    
C2    H29   S    
C26   H11   S    
C6    C11   A    
C31   O2    S    
C29   H17   S    
O5    Zn2   S    
C27   C35   T    
C25   C26   S    
C30   H18   S    
C31   H22   S    
C29   C30   S    
C11   C16   S    
C2    C38   A    
C31   C32   S    
C33   C34   S    
C20   O2    S    
C4    C37   S    
C24   H12   S    
C10   H32   S    
C23   C35   S    
C22   C27   S    
O9    Zn2   S    
N1    Zn2   S    
C15   C17   A    
C24   C28   S    
C32   H25   S    
C3    C5    A    
C6    C7    A    
C12   C24   S    
C34   H14   S    
C16   O7    A    
C1    O1    A    
C12   H1    S    
C2    C3    A    
C17   H6    S    
C22   O8    A    
C29   O10   S    
C5    C6    A    
C30   H20   S    
C24   H2    S    
C7    C38   A    
C16   O6    A    
C9    H27   S    
C4    O4    A    
N2    Zn1   S    
C10   C11   A    
C15   H5    S    
C4    O5    A    
C20   C21   A    
C28   C36   S    
C33   H23   S    
C14   C15   A    
C32   H24   S    
C25   H8    S    
O1    Zn1   S    
