data_mof_unit_36476.cif
_audit_creation_date              2012-12-10T17:58:56-0500
_audit_creation_method            fapswitch 2.2
_symmetry_space_group_name_H-M    P1
_symmetry_Int_Tables_number       1
_space_group_crystal_system       triclinic
_cell_length_a                    9.546529
_cell_length_b                    10.834453
_cell_length_c                    13.961162
_cell_angle_alpha                 90.181796
_cell_angle_beta                  87.200741
_cell_angle_gamma                 90.363861
_cell_volume                      1442.26474625

loop_
_atom_site_label
_atom_site_type_symbol
_atom_type_description
_atom_site_fract_x
_atom_site_fract_y
_atom_site_fract_z
_atom_type_partial_charge
C1    C     C_R   0.500729 0.737711 0.498709 0.820274
C2    C     C_R   0.499273 0.262281 0.501273 0.817626
C3    C     C_R   0.498117 0.128398 0.501765 -0.041157
C4    C     C_R   0.501883 0.871581 0.498190 -0.041709
C5    C     C_R   0.480268 0.500023 0.682332 0.828089
C6    C     C_R   0.519764 0.499809 0.317639 0.826276
C7    C     C_R   0.922217 0.580473 0.556536 -0.004774
C8    C     C_R   0.077786 0.419508 0.443495 -0.004463
C9    C     C_R   0.070837 0.580504 0.556460 -0.027399
C10   C     C_R   0.929168 0.419352 0.443686 -0.023137
C11   C     C_1   0.525967 0.498253 0.215867 -0.180927
C12   C     C_1   0.474299 0.500798 0.784053 -0.180249
C13   C     C_2   0.556944 0.493744 0.026686 0.377730
C14   C     C_2   0.444218 0.503696 0.973169 0.374724
C15   C     C_1   0.465458 0.501955 0.869861 -0.057897
C16   C     C_1   0.535374 0.496440 0.130038 -0.053106
C17   C     C_R   0.618699 0.938415 0.460247 0.160070
C18   C     C_R   0.381280 0.061552 0.539672 0.159782
C19   C     C_R   0.615944 0.066541 0.462764 -0.295513
C20   C     C_R   0.384055 0.933432 0.537181 -0.294455
Cu1   Cu    Cu3+1 0.359340 0.499980 0.500000 0.956047
Cu2   Cu    Cu3+1 0.640660 0.500020 0.500000 0.955683
H1    H     H_    0.863647 0.644963 0.601942 0.124147
H2    H     H_    0.136363 0.354998 0.398119 0.121454
H3    H     H_    0.123836 0.645163 0.601732 0.119529
H4    H     H_    0.876172 0.354455 0.398625 0.110077
H5    H     H_    0.705512 0.117606 0.432519 0.151846
H6    H     H_    0.294488 0.882366 0.567432 0.153100
N1    N     N_R   0.147930 0.499970 0.499980 -0.156203
N2    N     N_R   0.852070 0.500030 0.500020 -0.155055
O1    O     O_R   0.381260 0.680340 0.500000 -0.598826
O2    O     O_R   0.618740 0.319660 0.500000 -0.599355
O3    O     O_R   0.618830 0.680370 0.500010 -0.553997
O4    O     O_R   0.381170 0.319630 0.499990 -0.555001
O5    O     O_R   0.364420 0.499960 0.637840 -0.580511
O6    O     O_R   0.635580 0.500040 0.362160 -0.582997
O7    O     O_R   0.601990 0.499990 0.637850 -0.572769
O8    O     O_R   0.398010 0.500010 0.362150 -0.573180
O9    O     O_3   0.311401 0.518465 0.018903 -0.631645
C21   C     C_3   0.199687 0.504591 0.956392 0.065394
H7    H     H_    0.107027 0.473648 0.000127 0.159502
H8    H     H_    0.217756 0.429488 0.902587 0.136460
C22   C     C_3   0.165115 0.627934 0.909193 -0.349139
H9    H     H_    0.128328 0.694804 0.965257 0.216608
H10   H     H_    0.260019 0.668158 0.872020 0.220171
C23   C     C_3   0.052468 0.611383 0.836201 -0.921073
H11   H     H_    0.089505 0.547089 0.778362 0.264087
H12   H     H_    0.029483 0.701872 0.803520 0.247082
H13   H     H_    0.954333 0.574222 0.871300 0.280144
O10   O     O_3   0.690947 0.486523 0.981284 -0.632610
C24   C     C_3   0.795104 0.447042 0.043253 0.053403
H14   H     H_    0.880554 0.404341 0.998164 0.143564
H15   H     H_    0.756476 0.371856 0.092274 0.137658
C25   C     C_3   0.856165 0.556695 0.098462 -0.356814
H16   H     H_    0.924966 0.612713 0.049231 0.214691
H17   H     H_    0.772086 0.619108 0.126500 0.229392
C26   C     C_3   0.938817 0.513092 0.182829 -0.879575
H18   H     H_    0.867767 0.464703 0.235820 0.258841
H19   H     H_    0.986262 0.593805 0.218556 0.266241
H20   H     H_    0.023688 0.449133 0.158511 0.251376
N3    N     N_3   0.738474 0.877023 0.416902 -0.569546
H21   H     H_    0.826785 0.904088 0.453353 0.212223
H22   H     H_    0.752212 0.907207 0.345978 0.209000
N4    N     N_3   0.261443 0.122919 0.582945 -0.570602
H23   H     H_    0.173208 0.095883 0.546400 0.212343
H24   H     H_    0.247570 0.092662 0.653841 0.209049

loop_
_geom_bond_atom_site_label_1
_geom_bond_atom_site_label_2
_ccdc_geom_bond_type
C25   H16   S    
C22   H9    S    
C6    O8    A    
C3    C19   A    
Cu1   O5    S    
C5    O7    A    
C19   H5    S    
C11   C16   T    
C10   N2    A    
C14   C15   S    
C12   C15   T    
C9    N1    A    
C24   C25   S    
N4    H23   S    
C2    O4    A    
C21   H8    S    
O10   C24   S    
C26   H18   S    
C1    O3    A    
C7    N2    A    
Cu2   N2    S    
C13   C14   D    
C22   H10   S    
C23   H13   S    
C18   N4    S    
Cu1   O1    S    
Cu2   O2    S    
C3    C18   A    
C7    H1    S    
C8    N1    A    
C5    O5    A    
C8    C10   A    
C21   H7    S    
C17   C19   A    
C6    O6    A    
C2    C3    S    
C18   C20   A    
C6    C11   S    
N3    H21   S    
C22   C23   S    
C25   H17   S    
C26   H19   S    
C1    C4    S    
C4    C17   A    
C9    H3    S    
C24   H14   S    
C4    C20   A    
C23   H12   S    
C1    O1    A    
Cu2   O6    S    
C8    H2    S    
C5    C12   S    
C2    O2    A    
C13   C16   S    
C10   H4    S    
O9    C21   S    
C7    C9    A    
Cu2   O3    S    
C23   H11   S    
C26   H20   S    
Cu1   O4    S    
C20   H6    S    
C17   N3    S    
C14   O9    S    
Cu1   Cu2   S    
Cu2   O7    S    
Cu1   N1    S    
C25   C26   S    
N3    H22   S    
Cu1   O8    S    
C13   O10   S    
C24   H15   S    
C21   C22   S    
N4    H24   S    
