data_mof_unit_39722.cif
_audit_creation_date              2013-03-05T16:32:59-0500
_audit_creation_method            fapswitch 2.2
_symmetry_space_group_name_H-M    P1
_symmetry_Int_Tables_number       1
_space_group_crystal_system       triclinic
_cell_length_a                    23.534398
_cell_length_b                    10.845474
_cell_length_c                    9.545989
_cell_angle_alpha                 90.594421
_cell_angle_beta                  90.015427
_cell_angle_gamma                 90.315652
_cell_volume                      2436.36624886

loop_
_atom_site_label
_atom_site_type_symbol
_atom_site_description
_atom_site_fract_x
_atom_site_fract_y
_atom_site_fract_z
_atom_type_partial_charge
O1    O     O_R   0.500000 0.319640 0.618810 -0.579637
O2    O     O_R   0.500010 0.319680 0.381230 -0.584202
C1    C     C_R   0.498708 0.262523 0.499356 0.805378
O3    O     O_R   0.417880 0.499940 0.618820 -0.592886
O4    O     O_R   0.417880 0.499980 0.381240 -0.593695
C2    C     C_R   0.390928 0.499830 0.499998 0.844338
Cu1   Cu    Cu3+1 0.500000 0.499980 0.640670 0.968191
Cu2   Cu    Cu3+1 0.500000 0.500020 0.359330 0.963669
O5    O     O_R   0.499990 0.680320 0.618770 -0.578725
O6    O     O_R   0.500000 0.680360 0.381190 -0.589839
O7    O     O_R   0.582120 0.500020 0.618760 -0.580043
O8    O     O_R   0.582120 0.500060 0.381180 -0.583167
C3    C     C_R   0.499559 0.737753 0.500400 0.852724
C4    C     C_R   0.609075 0.499401 0.499946 0.874975
C5    C     C_R   0.879869 0.611711 0.492918 0.658285
N1    N     N_R   0.851916 0.500882 0.498886 -0.460948
C6    C     C_R   0.880282 0.391613 0.504794 0.628945
C7    C     C_R   0.939683 0.390327 0.505145 -0.016274
C8    C     C_R   0.969718 0.503168 0.498840 -0.043581
C9    C     C_R   0.939948 0.616348 0.492441 -0.096256
C10   C     C_R   0.969535 0.278739 0.511706 -0.094857
C11   C     C_R   0.028676 0.278295 0.512128 -0.112600
C12   C     C_R   0.059261 0.389458 0.505844 -0.014952
C13   C     C_R   0.029776 0.502184 0.499007 -0.000915
C14   C     C_R   0.060346 0.613666 0.492365 -0.069811
C15   C     C_R   0.030958 0.725342 0.485916 -0.153290
C16   C     C_R   0.971637 0.728247 0.485958 0.309967
C17   C     C_R   0.118861 0.390909 0.506016 0.658537
N2    N     N_R   0.147810 0.500477 0.499369 -0.437045
C18   C     C_R   0.119961 0.610718 0.492552 0.677041
O9    O     O_2   0.849095 0.715870 0.487605 -0.421563
O10   O     O_2   0.850870 0.284572 0.510359 -0.465523
H1    H     H_    0.947278 0.191233 0.516671 0.224066
H2    H     H_    0.050300 0.190548 0.517334 0.205613
O11   O     O_2   0.147754 0.283964 0.512105 -0.494230
O12   O     O_2   0.149970 0.716932 0.486641 -0.493136
H3    H     H_    0.054130 0.811783 0.480851 0.214494
C19   C     C_R   0.238904 0.515139 0.372322 0.333863
C20   C     C_R   0.298395 0.515685 0.374525 -0.258744
H4    H     H_    0.321432 0.527464 0.277330 0.198023
C21   C     C_R   0.328305 0.499693 0.499844 -0.153145
C22   C     C_R   0.298217 0.483607 0.624958 -0.255535
H5    H     H_    0.321117 0.471822 0.722270 0.194609
C23   C     C_R   0.238723 0.484290 0.626826 0.334676
C24   C     C_R   0.208803 0.499822 0.499493 0.121012
C25   C     C_R   0.761009 0.495254 0.372063 0.298999
C26   C     C_R   0.701743 0.494706 0.372656 -0.222456
H6    H     H_    0.679394 0.491044 0.273629 0.181667
C27   C     C_R   0.671689 0.498260 0.499730 -0.129600
C28   C     C_R   0.701976 0.500562 0.626496 -0.199890
H7    H     H_    0.679828 0.501352 0.725698 0.178700
C29   C     C_R   0.761235 0.501682 0.626542 0.299373
C30   C     C_R   0.790989 0.499266 0.499159 0.201723
C31   C     C_R   0.495129 0.065826 0.624317 0.045199
C32   C     C_R   0.493322 0.129724 0.498693 -0.056945
C33   C     C_R   0.484796 0.063003 0.373340 -0.178262
H8    H     H_    0.479935 0.109711 0.274350 0.164619
C34   C     C_R   0.485501 0.934194 0.374263 -0.179702
H9    H     H_    0.480581 0.884766 0.275794 0.160471
C35   C     C_R   0.495494 0.871121 0.500197 -0.039520
C36   C     C_R   0.497865 0.939435 0.624912 0.024086
C37   C     C_3   0.537403 0.941367 0.749052 0.148865
C38   C     C_3   0.533160 0.081271 0.748233 -0.447283
H10   H     H_    0.518326 0.899773 0.844011 0.084034
H11   H     H_    0.510126 0.119265 0.840576 0.175561
H12   H     H_    0.573476 0.130033 0.722257 0.229012
C39   C     C_R   0.548597 0.525590 0.074184 0.245136
N3    N     N_R   0.500360 0.500930 0.147930 -0.191404
C40   C     C_R   0.453627 0.462131 0.073805 -0.064684
H13   H     H_    0.415787 0.432687 0.128406 0.153907
C41   C     C_R   0.453596 0.462296 0.925163 -0.057591
H14   H     H_    0.415736 0.432992 0.869860 0.152730
N4    N     N_R   0.500360 0.500890 0.852020 -0.193170
C42   C     C_R   0.548775 0.524425 0.926732 0.219631
C43   C     C_3   0.582856 0.640224 0.922477 -0.404197
C44   C     C_3   0.582257 0.642153 0.081252 -0.454842
H15   H     H_    0.625896 0.626107 0.877928 0.225153
H16   H     H_    0.558473 0.715895 0.875718 0.218185
H17   H     H_    0.625000 0.628664 0.127695 0.216969
H18   H     H_    0.557804 0.720469 0.126438 0.215240
Br1   Br    Br    0.800672 0.507183 0.801916 -0.334765
N5    N     N_R   0.595728 0.900765 0.720782 0.143348
O13   O     O_R   0.610336 0.852138 0.601011 -0.346267
O14   O     O_R   0.634046 0.914452 0.818000 -0.308142
Br2   Br    Br    0.939161 0.890584 0.476675 -0.339041
N6    N     N_R   0.209868 0.530203 0.240638 0.163063
O15   O     O_R   0.234740 0.587486 0.138166 -0.284606
O16   O     O_R   0.160720 0.478332 0.217673 -0.296574
N7    N     N_R   0.209519 0.469366 0.758374 0.163890
O17   O     O_R   0.160654 0.521389 0.781085 -0.296364
O18   O     O_R   0.234007 0.412070 0.861002 -0.288156
Br3   Br    Br    0.800151 0.490374 0.196361 -0.339904

loop_
_geom_bond_atom_site_label_1
_geom_bond_atom_site_label_2
_geom_bond_distance
_ccdc_geom_bond_type
C32   C33   1.405739 A    
C38   H11   1.111709 S    
C7    C10   1.404645 A    
N4    C42   1.365528 A    
C8    C9    1.418572 A    
C44   H17   1.110224 S    
Cu1   Cu2   2.685673 S    
Cu1   N4    2.017483 S    
C3    C35   1.450144 S    
C23   C24   1.416605 A    
Cu1   O7    1.943981 S    
C15   C16   1.396613 A    
N2    C18   1.368756 A    
C19   N6    1.441820 S    
C17   N2    1.368554 A    
C19   C20   1.400216 A    
O7    C4    1.299671 A    
N6    O16   1.300997 A    
C4    C27   1.473707 S    
C25   Br3   1.914173 S    
C31   C38   1.490662 S    
C34   C35   1.409654 A    
C5    N1    1.368775 A    
C33   H8    1.083121 S    
C40   C41   1.418958 A    
C7    C8    1.411738 A    
C21   C22   1.400602 A    
C16   Br2   1.926086 S    
O5    C3    1.295978 A    
N1    C30   1.433894 S    
C19   C24   1.416516 A    
C37   H10   1.110510 S    
C25   C26   1.394783 A    
C1    C32   1.445082 S    
C17   O11   1.349486 S    
N1    C6    1.365038 A    
C2    C21   1.473795 S    
C28   C29   1.394606 A    
C12   C13   1.411176 A    
N7    O18   1.301665 A    
C36   C37   1.506405 S    
C37   N5    1.468102 S    
C38   H12   1.112991 S    
C10   C11   1.391885 A    
C40   H13   1.080404 S    
C22   C23   1.400329 A    
O3    Cu1   1.943809 S    
C6    C7    1.398119 A    
C5    C9    1.414539 A    
C11   H2    1.083241 S    
C42   C43   1.487356 S    
C39   N3    1.362672 A    
C13   C14   1.405527 A    
C26   C27   1.404648 A    
C20   H4    1.083089 S    
C41   N4    1.369433 A    
N6    O15   1.301677 A    
N3    C40   1.369558 A    
C14   C15   1.399940 A    
N5    O13   1.301243 A    
N2    C24   1.435514 S    
C35   C36   1.396645 A    
O1    C1    1.292314 A    
C43   C44   1.515653 S    
C37   C38   1.521256 S    
C26   H6    1.081927 S    
Cu2   O8    1.943809 S    
C28   H7    1.081057 S    
C39   C42   1.407508 A    
C12   C17   1.402633 A    
C43   H15   1.109454 S    
O3    C2    1.299419 A    
C31   C36   1.372708 A    
O8    C4    1.299108 A    
Cu2   N3    2.018167 S    
N5    O14   1.300663 A    
C22   H5    1.082898 S    
C29   C30   1.403455 A    
C14   C18   1.403563 A    
Cu1   O5    1.969172 S    
C31   C32   1.392014 A    
O1    Cu1   1.964819 S    
O2    Cu2   1.969172 S    
C44   H18   1.112022 S    
O6    C3    1.291487 A    
O4    Cu2   1.943986 S    
C15   H3    1.083481 S    
C5    O9    1.346623 S    
C9    C16   1.422843 A    
C18   O12   1.349561 S    
O2    C1    1.292699 A    
C34   H9    1.083115 S    
C41   H14   1.080178 S    
O4    C2    1.299209 A    
C25   C30   1.403506 A    
C33   C34   1.397308 A    
C8    C13   1.413526 A    
C29   Br1   1.914186 S    
C43   H16   1.102154 S    
C10   H1    1.082939 S    
C20   C21   1.400677 A    
Cu2   O6    1.964818 S    
C27   C28   1.404190 A    
C6    O10   1.349870 S    
C11   C12   1.402577 A    
C39   C44   1.489081 S    
N7    O17   1.300998 A    
C23   N7    1.441863 S    
