data_mof_unit_45204.cif
_audit_creation_date              2012-12-10T20:28:45-0500
_audit_creation_method            fapswitch 2.2
_symmetry_space_group_name_H-M    P1
_symmetry_Int_Tables_number       1
_space_group_crystal_system       triclinic
_cell_length_a                    10.633218
_cell_length_b                    10.642868
_cell_length_c                    9.861247
_cell_angle_alpha                 89.697709
_cell_angle_beta                  90.105375
_cell_angle_gamma                 89.746619
_cell_volume                      1115.94858523

loop_
_atom_site_label
_atom_site_type_symbol
_atom_type_description
_atom_site_fract_x
_atom_site_fract_y
_atom_site_fract_z
_atom_type_partial_charge
C1    C     C_R   0.493908 0.259953 0.500533 0.869055
C2    C     C_R   0.422489 0.938349 0.380900 0.168441
C3    C     C_R   0.461398 0.871570 0.499200 -0.139522
C4    C     C_R   0.260514 0.497174 0.499870 0.860223
C5    C     C_R   0.468082 0.935330 0.622213 0.104286
C6    C     C_3   0.559323 0.925190 0.737510 -0.479933
C7    C     C_3   0.560086 0.067597 0.739653 -0.470535
C8    C     C_R   0.445339 0.403890 0.071635 0.219177
C9    C     C_R   0.564686 0.587954 0.071614 -0.132646
C10   C     C_R   0.564606 0.588033 0.927598 -0.124728
C11   C     C_R   0.445545 0.403771 0.929132 0.208866
C12   C     C_R   0.066931 0.386915 0.562226 0.095521
C13   C     C_3   0.311106 0.365121 0.923103 -0.505843
C14   C     C_3   0.310694 0.365786 0.077155 -0.505027
C15   C     C_R   0.490785 0.740126 0.499300 0.889002
C16   C     C_R   0.739603 0.496785 0.500094 0.871870
C17   C     C_R   0.132920 0.284253 0.620618 -0.197863
C18   C     C_R   0.068142 0.184865 0.680454 -0.131750
C19   C     C_R   0.937292 0.185173 0.681612 -0.138004
C20   C     C_R   0.870831 0.284848 0.622741 -0.184809
C21   C     C_R   0.935147 0.387089 0.562984 0.100024
C22   C     C_3   0.383659 0.875993 0.250318 -0.858422
C23   C     C_R   0.128471 0.488609 0.499194 -0.095328
C24   C     C_R   0.063825 0.584876 0.433073 -0.215575
C25   C     C_R   0.935302 0.584839 0.433382 -0.211347
C26   C     C_R   0.871971 0.488643 0.499972 -0.098128
C27   C     C_R   0.469151 0.063190 0.624132 0.116663
C28   C     C_R   0.465498 0.129646 0.502638 -0.155610
C29   C     C_R   0.426768 0.069150 0.384036 -0.223357
H1    H     H_    0.113217 0.661427 0.383715 0.145725
H2    H     H_    0.298721 0.270743 0.122372 0.192815
H3    H     H_    0.234397 0.278827 0.619083 0.145966
H4    H     H_    0.119657 0.106890 0.724902 0.134403
H5    H     H_    0.887257 0.107312 0.727030 0.130437
H6    H     H_    0.769402 0.280179 0.622694 0.141071
H7    H     H_    0.884876 0.661292 0.384087 0.147905
H8    H     H_    0.408544 0.122536 0.292140 0.166913
H9    H     H_    0.515929 0.883077 0.829512 0.203435
H10   H     H_    0.467181 0.836156 0.198518 0.248058
H11   H     H_    0.313811 0.801126 0.271329 0.242699
H12   H     H_    0.651088 0.883489 0.707132 0.197717
H13   H     H_    0.338808 0.944068 0.179191 0.216732
H14   H     H_    0.517021 0.107672 0.832635 0.201274
H15   H     H_    0.652159 0.108185 0.710708 0.193661
H16   H     H_    0.615239 0.660128 0.125620 0.143342
H17   H     H_    0.615022 0.660295 0.872982 0.145385
H18   H     H_    0.249211 0.438459 0.877396 0.230374
H19   H     H_    0.300104 0.269554 0.879846 0.195715
H20   H     H_    0.248979 0.439904 0.120604 0.226616
N1    N     N_R   0.499160 0.499140 0.142800 -0.104860
N2    N     N_R   0.499160 0.499180 0.857150 -0.104309
O1    O     O_R   0.500020 0.316790 0.614690 -0.626697
O2    O     O_R   0.500000 0.316760 0.385350 -0.617597
O3    O     O_R   0.316770 0.500020 0.614690 -0.623298
O4    O     O_R   0.316760 0.499980 0.385350 -0.621853
O5    O     O_R   0.500000 0.683240 0.614650 -0.616991
O6    O     O_R   0.499980 0.683210 0.385310 -0.618246
O7    O     O_R   0.683240 0.500020 0.614650 -0.618910
O8    O     O_R   0.683230 0.499980 0.385310 -0.608766
Zn1   Zn    Zn3+2 0.500010 0.500020 0.653130 0.937267
Zn2   Zn    Zn3+2 0.499990 0.499980 0.346870 0.939315

loop_
_geom_bond_atom_site_label_1
_geom_bond_atom_site_label_2
_ccdc_geom_bond_type
C12   C17   A    
C10   H17   S    
C13   H19   S    
C23   C24   A    
C6    H9    S    
C2    C22   S    
C6    C7    S    
C7    H14   S    
C1    C28   S    
C11   C13   S    
C9    C10   A    
C16   O8    A    
C19   C20   A    
C5    C27   A    
C14   H2    S    
C21   C26   A    
C22   H11   S    
C15   O5    A    
C17   C18   A    
C16   O7    A    
C7    C27   S    
O3    Zn1   S    
C7    H15   S    
C24   C25   A    
O6    Zn2   S    
C15   O6    A    
C12   C23   A    
C22   H13   S    
C2    C29   A    
C10   N2    A    
O4    Zn2   S    
C28   C29   A    
C18   H4    S    
C9    H16   S    
C2    C3    A    
C8    C11   A    
C4    O4    A    
C16   C26   S    
C5    C6    S    
C17   H3    S    
C1    O1    A    
C24   H1    S    
O8    Zn2   S    
C14   H20   S    
C11   N2    A    
C22   H10   S    
C25   H7    S    
O7    Zn1   S    
C8    N1    A    
C3    C15   S    
C20   C21   A    
C18   C19   A    
C29   H8    S    
C27   C28   A    
C13   H18   S    
N1    Zn2   S    
C1    O2    A    
C8    C14   S    
N2    Zn1   S    
O1    Zn1   S    
C4    O3    A    
C25   C26   A    
C13   C14   S    
C20   H6    S    
O2    Zn2   S    
C12   C21   A    
C6    H12   S    
C4    C23   S    
C9    N1    A    
O5    Zn1   S    
C3    C5    A    
C19   H5    S    
