data_mof_unit_26288.cif
_audit_creation_date              2012-12-11T15:42:56-0500
_audit_creation_method            fapswitch 2.2
_symmetry_space_group_name_H-M    P1
_symmetry_Int_Tables_number       1
_space_group_crystal_system       triclinic
_cell_length_a                    19.196713
_cell_length_b                    10.992618
_cell_length_c                    18.752852
_cell_angle_alpha                 89.685424
_cell_angle_beta                  90.404293
_cell_angle_gamma                 89.834894
_cell_volume                      3957.09179073

loop_
_atom_site_label
_atom_site_type_symbol
_atom_type_description
_atom_site_fract_x
_atom_site_fract_y
_atom_site_fract_z
_atom_type_partial_charge
C1    C     C_R   0.727052 0.370621 0.143308 0.550638
C2    C     C_R   0.287524 0.332754 0.861832 0.562874
C3    C     C_R   0.225607 0.866714 0.142021 0.552447
C4    C     C_R   0.774743 0.865548 0.858246 0.545566
C5    C     C_R   0.509651 0.388554 0.926084 -0.096878
C6    C     C_R   0.490438 0.389197 0.072932 -0.086560
C7    C     C_R   0.005541 0.890387 0.927234 -0.086951
C8    C     C_R   0.987482 0.888469 0.074215 -0.086023
C9    C     C_R   0.002610 0.999711 0.964470 -0.151912
C10   C     C_R   0.992232 0.998747 0.037609 -0.150190
C11   C     C_R   0.507385 0.498572 0.962788 -0.156414
C12   C     C_R   0.496051 0.498871 0.035807 -0.153907
C13   C     C_R   0.763239 0.890326 0.933376 0.003516
C14   C     C_R   0.236328 0.888288 0.066457 -0.001055
C15   C     C_R   0.276128 0.356980 0.937269 0.009584
C16   C     C_R   0.738619 0.396445 0.068456 -0.000432
C17   C     C_R   0.710538 0.832623 0.972004 -0.020915
C18   C     C_R   0.300550 0.867869 0.034101 0.047384
C19   C     C_R   0.218031 0.313464 0.973906 -0.013994
C20   C     C_R   0.802616 0.375634 0.035796 0.047464
C21   C     C_R   0.706441 0.843779 0.046021 -0.008097
C22   C     C_R   0.306863 0.876672 0.960132 0.058017
C23   C     C_R   0.209215 0.337070 0.046543 -0.012972
C24   C     C_R   0.808562 0.384666 0.961832 0.060633
C25   C     C_R   0.816209 0.948641 0.045059 -0.152991
C26   C     C_R   0.182779 0.908162 0.949321 -0.180046
C27   C     C_R   0.320569 0.437110 0.048023 -0.157503
C28   C     C_R   0.684736 0.419062 0.951905 -0.178800
C29   C     C_R   0.816843 0.947083 0.971571 -0.149812
C30   C     C_R   0.177121 0.904321 0.022967 -0.164018
C31   C     C_R   0.327595 0.418215 0.975688 -0.153894
C32   C     C_R   0.679591 0.416322 0.025311 -0.160952
C33   C     C_3   0.696524 0.700207 0.974496 -0.236512
C34   C     C_3   0.341283 0.752648 0.037321 -0.255935
C35   C     C_3   0.199003 0.184111 0.982404 -0.246567
C36   C     C_3   0.843215 0.260349 0.038589 -0.257947
C37   C     C_3   0.692102 0.710957 0.054291 -0.274301
C38   C     C_3   0.349276 0.762405 0.957694 -0.271278
C39   C     C_3   0.190429 0.207408 0.060874 -0.269250
C40   C     C_3   0.851369 0.271140 0.958974 -0.272783
C41   C     C_R   0.758248 0.906360 0.082650 0.017273
C42   C     C_R   0.248051 0.901484 0.917606 -0.007540
C43   C     C_R   0.259592 0.402808 0.083580 0.015641
C44   C     C_R   0.749396 0.408321 0.919639 -0.007578
C45   C     C_R   0.530105 0.155727 0.147328 0.562461
C46   C     C_R   0.469085 0.155324 0.853093 0.532986
C47   C     C_R   0.029990 0.655693 0.147438 0.560266
C48   C     C_R   0.968974 0.655473 0.853198 0.540344
C49   C     C_R   0.504292 0.156682 0.579830 -0.035382
C50   C     C_R   0.543169 0.159117 0.436218 -0.032447
C51   C     C_R   0.004287 0.656684 0.579826 -0.034889
C52   C     C_R   0.043166 0.659118 0.436216 -0.032486
C53   C     C_R   0.497993 0.053710 0.537451 -0.030987
C54   C     C_R   0.516990 0.054673 0.467864 -0.044437
C55   C     C_R   0.997983 0.553715 0.537446 -0.030596
C56   C     C_R   0.016982 0.554675 0.467860 -0.044446
C57   C     C_R   0.558777 0.259907 0.480393 0.243293
C58   C     C_R   0.543573 0.254877 0.554290 0.246414
C59   C     C_R   0.058775 0.759907 0.480391 0.243291
C60   C     C_R   0.043570 0.754876 0.554288 0.246334
C61   C     C_3   0.436359 0.975277 0.523301 -0.245228
C62   C     C_3   0.457578 0.975465 0.445854 -0.251317
C63   C     C_3   0.936344 0.475294 0.523294 -0.245257
C64   C     C_3   0.957565 0.475482 0.445847 -0.251410
C65   C     C_R   0.747431 0.947956 0.584334 -0.011550
C66   C     C_R   0.251102 0.918630 0.422435 -0.000991
C67   C     C_R   0.247433 0.447952 0.584332 -0.011596
C68   C     C_R   0.751100 0.418629 0.422437 -0.000849
C69   C     C_R   0.797137 0.017471 0.547694 -0.022924
C70   C     C_R   0.206614 0.998244 0.456078 0.065494
C71   C     C_R   0.297139 0.517467 0.547692 -0.022944
C72   C     C_R   0.706612 0.498243 0.456081 0.065558
C73   C     C_R   0.789406 0.040434 0.475882 0.032031
C74   C     C_R   0.198986 0.000324 0.528544 0.137983
C75   C     C_R   0.289407 0.540430 0.475880 0.031951
C76   C     C_R   0.698983 0.500320 0.528547 0.138089
C77   C     C_R   0.675374 0.952207 0.477091 -0.164428
C78   C     C_R   0.289867 0.848678 0.540018 -0.183333
C79   C     C_R   0.175374 0.452210 0.477090 -0.164595
C80   C     C_R   0.789864 0.348673 0.540019 -0.183464
C81   C     C_R   0.682755 0.928954 0.550658 -0.168475
C82   C     C_R   0.292228 0.840970 0.465494 -0.167298
C83   C     C_R   0.182756 0.428954 0.550656 -0.168319
C84   C     C_R   0.792225 0.340968 0.465496 -0.167144
C85   C     C_3   0.874861 0.001991 0.541700 -0.238950
C86   C     C_3   0.194843 0.130179 0.445705 -0.225941
C87   C     C_3   0.374863 0.501985 0.541697 -0.239138
C88   C     C_3   0.694838 0.630178 0.445710 -0.226084
C89   C     C_R   0.742748 0.965711 0.149692 0.550353
C90   C     C_R   0.258213 0.964897 0.850455 0.530548
C91   C     C_R   0.242714 0.465889 0.149444 0.548562
C92   C     C_R   0.758523 0.466080 0.850923 0.532549
C93   C     C_3   0.865135 0.019910 0.461589 0.141212
C94   C     C_3   0.179010 0.133348 0.525014 0.149018
C95   C     C_3   0.365136 0.519902 0.461587 0.141149
C96   C     C_3   0.679006 0.633343 0.525019 0.149066
C97   C     C_R   0.731099 0.001622 0.438154 0.018238
C98   C     C_R   0.246367 0.935060 0.572007 -0.024315
C99   C     C_R   0.231099 0.501622 0.438153 0.018107
C100  C     C_R   0.746364 0.435055 0.572009 -0.024156
C101  C     C_R   0.730881 0.379920 0.351434 0.556659
C102  C     C_R   0.269489 0.382821 0.649115 0.534937
C103  C     C_R   0.230881 0.879921 0.351433 0.557673
C104  C     C_R   0.769488 0.882821 0.649115 0.528769
C105  C     C_R   0.561874 0.152937 0.361230 0.565498
C106  C     C_R   0.467264 0.155925 0.646732 0.542665
C107  C     C_R   0.061873 0.652937 0.361229 0.565584
C108  C     C_R   0.967263 0.655926 0.646731 0.541778
C109  C     C_R   0.727971 0.021540 0.361154 0.563328
C110  C     C_R   0.258739 0.975196 0.644462 0.511491
C111  C     C_R   0.227971 0.521541 0.361154 0.563546
C112  C     C_R   0.758738 0.475193 0.644463 0.510546
C113  C     C_R   0.499181 0.163374 0.925510 -0.055632
C114  C     C_R   0.498390 0.164250 0.075413 -0.033960
C115  C     C_R   0.998713 0.664355 0.925767 -0.054775
C116  C     C_R   0.997967 0.664011 0.075681 -0.034241
C117  C     C_R   0.501795 0.276041 0.962251 -0.030952
C118  C     C_R   0.497224 0.276409 0.037595 -0.031006
C119  C     C_R   0.999466 0.776982 0.962911 -0.026693
C120  C     C_R   0.995204 0.776407 0.038306 -0.033542
C121  C     C_R   0.492943 0.054051 0.037885 0.277859
C122  C     C_R   0.502764 0.053180 0.964423 0.261889
C123  C     C_R   0.993834 0.554104 0.037794 0.278796
C124  C     C_R   0.003945 0.554174 0.964406 0.258761
Cr1   Cr    Cr6+3 0.772010 0.169670 0.250090 1.011753
Cr2   Cr    Cr6+3 0.227990 0.169670 0.749910 0.961036
Cr3   Cr    Cr6+3 0.272010 0.669670 0.250090 1.012345
Cr4   Cr    Cr6+3 0.727990 0.669670 0.749910 0.961172
Cr5   Cr    Cr6+3 0.615000 0.323260 0.249260 1.009189
Cr6   Cr    Cr6+3 0.385000 0.323260 0.750740 1.000452
Cr7   Cr    Cr6+3 0.115000 0.823260 0.249260 1.008616
Cr8   Cr    Cr6+3 0.885000 0.823260 0.750740 1.005449
Cr9   Cr    Cr6+3 0.616710 0.010760 0.250840 1.006426
Cr10  Cr    Cr6+3 0.383290 0.010760 0.749160 1.013454
Cr11  Cr    Cr6+3 0.116710 0.510760 0.250840 1.005557
Cr12  Cr    Cr6+3 0.883290 0.510760 0.749160 1.018203
H1    H     H_    0.886780 0.524949 0.532797 0.139470
H2    H     H_    0.975298 0.384798 0.427134 0.151763
H3    H     H_    0.386793 0.024923 0.532805 0.139597
H4    H     H_    0.475317 0.884785 0.427142 0.151776
H5    H     H_    0.441550 0.884580 0.549336 0.148505
H6    H     H_    0.419558 0.022817 0.410224 0.140362
H7    H     H_    0.941529 0.384596 0.549328 0.148505
H8    H     H_    0.919550 0.522844 0.410216 0.140190
H9    H     H_    0.628531 0.923216 0.449978 0.159707
H10   H     H_    0.324976 0.793314 0.572008 0.127033
H11   H     H_    0.128530 0.423222 0.449978 0.159736
H12   H     H_    0.824972 0.293308 0.572009 0.126620
H13   H     H_    0.640655 0.886066 0.578784 0.149117
H14   H     H_    0.326024 0.774706 0.441430 0.126562
H15   H     H_    0.140655 0.386066 0.578783 0.149560
H16   H     H_    0.826022 0.274706 0.441431 0.126582
H17   H     H_    0.895249 0.912386 0.559403 0.169992
H18   H     H_    0.150114 0.151885 0.410096 0.165651
H19   H     H_    0.395250 0.412380 0.559402 0.169715
H20   H     H_    0.650108 0.651883 0.410103 0.165618
H21   H     H_    0.902837 0.079266 0.566895 0.097162
H22   H     H_    0.243144 0.177416 0.430600 0.067205
H23   H     H_    0.402839 0.579259 0.566891 0.097615
H24   H     H_    0.743139 0.677418 0.430606 0.067108
H25   H     H_    0.891562 0.103121 0.441953 0.109585
H26   H     H_    0.214046 0.194219 0.555349 0.123824
H27   H     H_    0.391564 0.603112 0.441949 0.109609
H28   H     H_    0.714043 0.694215 0.555354 0.124376
H29   H     H_    0.521148 0.393031 0.869809 0.129729
H30   H     H_    0.478343 0.394168 0.129043 0.138955
H31   H     H_    0.016931 0.896412 0.871004 0.127858
H32   H     H_    0.975861 0.892264 0.130474 0.138959
H33   H     H_    0.007867 0.085429 0.936338 0.106849
H34   H     H_    0.987513 0.083520 0.066203 0.090701
H35   H     H_    0.513542 0.583743 0.934295 0.108500
H36   H     H_    0.491607 0.584059 0.063979 0.090351
H37   H     H_    0.858152 0.994890 0.072087 0.143141
H38   H     H_    0.137553 0.929670 0.917350 0.139062
H39   H     H_    0.360799 0.487971 0.074947 0.143402
H40   H     H_    0.639514 0.441486 0.920255 0.142702
H41   H     H_    0.861036 0.987096 0.945023 0.159335
H42   H     H_    0.126194 0.913918 0.045995 0.173119
H43   H     H_    0.373226 0.452919 0.949607 0.166884
H44   H     H_    0.628841 0.427883 0.048322 0.174978
H45   H     H_    0.244275 0.124867 0.970977 0.158053
H46   H     H_    0.809470 0.183937 0.054711 0.157079
H47   H     H_    0.742702 0.647473 0.957273 0.169296
H48   H     H_    0.307923 0.675720 0.053697 0.156055
H49   H     H_    0.646199 0.675793 0.948852 0.136671
H50   H     H_    0.390664 0.761262 0.067686 0.173952
H51   H     H_    0.149425 0.161987 0.954469 0.143553
H52   H     H_    0.892453 0.267914 0.069206 0.177282
H53   H     H_    0.639165 0.692416 0.075142 0.120180
H54   H     H_    0.403767 0.779833 0.941052 0.191347
H55   H     H_    0.136025 0.195730 0.079114 0.118230
H56   H     H_    0.905786 0.289353 0.942453 0.195434
H57   H     H_    0.734624 0.661786 0.083064 0.152423
H58   H     H_    0.322896 0.687893 0.928145 0.134147
H59   H     H_    0.229842 0.159329 0.094562 0.154950
H60   H     H_    0.825075 0.197536 0.928725 0.123427
O1    O     O_R   0.787520 0.042810 0.170440 -0.533356
O2    O     O_R   0.212480 0.042810 0.829560 -0.542894
O3    O     O_R   0.287520 0.542810 0.170440 -0.533596
O4    O     O_R   0.712480 0.542810 0.829560 -0.541666
O5    O     O_R   0.556610 0.252880 0.323980 -0.479306
O6    O     O_R   0.443390 0.252880 0.676020 -0.483785
O7    O     O_R   0.056610 0.752880 0.323980 -0.479288
O8    O     O_R   0.943390 0.752880 0.676020 -0.484939
O9    O     O_R   0.545950 0.051210 0.330860 -0.528865
O10   O     O_R   0.454050 0.051210 0.669140 -0.531161
O11   O     O_R   0.045950 0.551210 0.330860 -0.528931
O12   O     O_R   0.954050 0.551210 0.669140 -0.531062
O13   O     O_R   0.681390 0.959480 0.325510 -0.523245
O14   O     O_R   0.318610 0.959480 0.674490 -0.503594
O15   O     O_R   0.181390 0.459480 0.325510 -0.522801
O16   O     O_R   0.818610 0.459480 0.674490 -0.505315
O17   O     O_3   0.667900 0.167900 0.250060 -0.293714
O18   O     O_3   0.332100 0.167900 0.749940 -0.262771
O19   O     O_3   0.167900 0.667900 0.250060 -0.295114
O20   O     O_3   0.832100 0.667900 0.749940 -0.248126
O21   O     O_R   0.765640 0.292100 0.175020 -0.496517
O22   O     O_R   0.234360 0.292100 0.824980 -0.507697
O23   O     O_R   0.265640 0.792100 0.175020 -0.495658
O24   O     O_R   0.734360 0.792100 0.824980 -0.509165
O25   O     O_R   0.670190 0.408840 0.168540 -0.534208
O26   O     O_R   0.329810 0.408840 0.831460 -0.526102
O27   O     O_R   0.170190 0.908840 0.168540 -0.533380
O28   O     O_R   0.829810 0.908840 0.831460 -0.525872
O29   O     O_R   0.556620 0.251410 0.175160 -0.517791
O30   O     O_R   0.443380 0.251410 0.824840 -0.531221
O31   O     O_R   0.056620 0.751410 0.175160 -0.519434
O32   O     O_R   0.943380 0.751410 0.824840 -0.519757
O33   O     O_R   0.545960 0.049620 0.170320 -0.476352
O34   O     O_R   0.454040 0.049620 0.829680 -0.464544
O35   O     O_R   0.045960 0.549620 0.170320 -0.475656
O36   O     O_R   0.954040 0.549620 0.829680 -0.461500
O37   O     O_R   0.681390 0.958010 0.176690 -0.503087
O38   O     O_R   0.318610 0.958010 0.823310 -0.485179
O39   O     O_R   0.181390 0.458010 0.176690 -0.503309
O40   O     O_R   0.818610 0.458010 0.823310 -0.485642
O41   O     O_R   0.787510 0.044390 0.330970 -0.461416
O42   O     O_R   0.212490 0.044390 0.669030 -0.554774
O43   O     O_R   0.287510 0.544390 0.330970 -0.461113
O44   O     O_R   0.712490 0.544390 0.669030 -0.554715
O45   O     O_R   0.765630 0.293570 0.323840 -0.531201
O46   O     O_R   0.234370 0.293570 0.676160 -0.526011
O47   O     O_R   0.265630 0.793570 0.323840 -0.530594
O48   O     O_R   0.734370 0.793570 0.676160 -0.528715
O49   O     O_R   0.670190 0.410420 0.329080 -0.490598
O50   O     O_R   0.329810 0.410420 0.670920 -0.512864
O51   O     O_R   0.170190 0.910420 0.329080 -0.490167
O52   O     O_R   0.829810 0.910420 0.670920 -0.515540
O53   O     O_3   0.472546 0.949120 0.073887 -0.548189
C125  C     C_3   0.524762 0.858428 0.071785 -0.065322
H61   H     H_    0.577902 0.896898 0.067647 0.145264
H62   H     H_    0.514723 0.794261 0.027518 0.136664
H63   H     H_    0.522811 0.805073 0.122105 0.116077
O54   O     O_3   0.509397 0.941828 0.930740 -0.560985
C126  C     C_3   0.574741 0.936091 0.896503 -0.120949
H64   H     H_    0.616713 0.981809 0.927472 0.097592
H65   H     H_    0.572613 0.977267 0.842449 0.139069
H66   H     H_    0.588788 0.839200 0.889441 0.135029
O55   O     O_3   0.974314 0.448363 0.073392 -0.550664
C127  C     C_3   0.027323 0.359167 0.071229 -0.067003
H67   H     H_    0.080173 0.398998 0.066748 0.143633
H68   H     H_    0.017573 0.294403 0.027173 0.135826
H69   H     H_    0.025996 0.306111 0.121686 0.117255
O56   O     O_3   0.012082 0.443503 0.930435 -0.564740
C128  C     C_3   0.079255 0.438526 0.900240 -0.120225
H70   H     H_    0.120112 0.472964 0.937330 0.103387
H71   H     H_    0.081396 0.490790 0.849487 0.135695
H72   H     H_    0.091536 0.342373 0.887799 0.143029
O57   O     O_3   0.588921 0.361950 0.451728 -0.539299
C129  C     C_3   0.536138 0.447570 0.436650 -0.031964
H73   H     H_    0.559346 0.529025 0.412002 0.142672
H74   H     H_    0.509398 0.476989 0.485976 0.165293
H75   H     H_    0.499206 0.412015 0.396422 0.175071
O58   O     O_3   0.563028 0.348776 0.598719 -0.565120
C130  C     C_3   0.610250 0.303156 0.650748 -0.107714
H76   H     H_    0.657375 0.263447 0.625590 0.123673
H77   H     H_    0.586550 0.234611 0.686641 0.101875
H78   H     H_    0.626350 0.378494 0.685900 0.148300
O59   O     O_3   0.088920 0.861949 0.451727 -0.539333
C131  C     C_3   0.036138 0.947573 0.436651 -0.031963
H79   H     H_    0.059348 0.029036 0.412015 0.142710
H80   H     H_    0.009392 0.976977 0.485978 0.165271
H81   H     H_    0.999211 0.912027 0.396415 0.175055
O60   O     O_3   0.063029 0.848770 0.598718 -0.565560
C132  C     C_3   0.110258 0.803143 0.650739 -0.107114
H82   H     H_    0.157381 0.763448 0.625574 0.124414
H83   H     H_    0.086567 0.734586 0.686627 0.102863
H84   H     H_    0.126358 0.878471 0.685894 0.148274
O61   O     O_3   0.877384 0.919880 0.414921 -0.555356
C133  C     C_3   0.866277 0.803268 0.444703 -0.114053
H85   H     H_    0.857817 0.738188 0.400557 0.144327
H86   H     H_    0.820475 0.799587 0.480213 0.112043
H87   H     H_    0.913210 0.772478 0.474146 0.099339
O62   O     O_3   0.106519 0.154441 0.532985 -0.584075
C134  C     C_3   0.086702 0.154278 0.605076 -0.093290
H88   H     H_    0.119653 0.213729 0.638506 0.138897
H89   H     H_    0.086843 0.061102 0.627010 0.200765
H90   H     H_    0.032535 0.189100 0.608378 0.105091
O63   O     O_3   0.377381 0.419871 0.414918 -0.555245
C135  C     C_3   0.366280 0.303260 0.444704 -0.113954
H91   H     H_    0.357823 0.238175 0.400560 0.144531
H92   H     H_    0.320479 0.299576 0.480215 0.111771
H93   H     H_    0.413216 0.272479 0.474146 0.099350
O64   O     O_3   0.606515 0.654434 0.532993 -0.583946
C136  C     C_3   0.586701 0.654286 0.605086 -0.093535
H94   H     H_    0.619658 0.713736 0.638513 0.138157
H95   H     H_    0.586836 0.561113 0.627024 0.200886
H96   H     H_    0.532537 0.689121 0.608388 0.105027

loop_
_geom_bond_atom_site_label_1
_geom_bond_atom_site_label_2
_ccdc_geom_bond_type
C126  H65   S    
C11   H35   S    
Cr10  O14   S    
C133  H87   S    
C9    H33   S    
C102  O50   A    
C73   C93   S    
C58   O58   S    
C75   C95   S    
C12   H36   S    
Cr5   O49   S    
C45   O33   A    
Cr4   O44   S    
C79   C99   A    
O60   C132  S    
C124  O56   S    
C125  H62   S    
C22   C38   S    
C23   C43   A    
C1    O25   A    
O58   C130  S    
C103  O51   A    
C34   H50   S    
C8    H32   S    
Cr1   O17   S    
C113  C122  A    
C38   H54   S    
C70   C74   A    
Cr8   O20   S    
C107  O11   A    
Cr6   O6    S    
C125  H63   S    
C59   C60   A    
C29   H41   S    
C109  O13   A    
C25   C29   A    
C47   C116  S    
Cr7   O19   S    
C7    C119  A    
C28   C32   A    
C68   C101  S    
C25   C41   A    
C64   H2    S    
C123  O55   S    
C39   H59   S    
C28   C44   A    
C17   C21   A    
C36   H52   S    
C37   H57   S    
C19   C23   A    
C95   H27   S    
C66   C82   A    
C39   H55   S    
C78   C82   A    
C40   H56   S    
C93   H25   S    
C16   C20   A    
C45   O29   A    
C127  H68   S    
Cr4   O48   S    
C129  H74   S    
C35   H45   S    
Cr2   O42   S    
C135  H91   S    
C50   C57   A    
C66   C103  S    
C106  O10   A    
C49   C106  S    
C76   C100  A    
C86   H18   S    
C132  H83   S    
C19   C35   S    
C76   C96   S    
Cr3   O19   S    
C66   C70   A    
C81   H13   S    
C104  O48   A    
C87   H23   S    
Cr6   O18   S    
C51   C55   A    
C88   H24   S    
C111  O43   A    
C78   H10   S    
C25   H37   S    
C80   H12   S    
Cr6   O30   S    
C8    C10   A    
C5    C117  A    
C2    O22   A    
C32   H44   S    
Cr2   O22   S    
C41   C89   S    
C67   C83   A    
C116  C123  A    
Cr9   O13   S    
C108  O12   A    
C123  C124  A    
C74   C98   A    
C53   C54   A    
O53   C125  S    
C48   O32   A    
C49   C53   A    
C91   O39   A    
C89   O37   A    
Cr12  O16   S    
C53   C61   S    
C45   C114  S    
O56   C128  S    
C136  H95   S    
C87   C95   S    
Cr2   O46   S    
C50   C105  S    
C56   C64   S    
C77   C97   A    
C102  O46   A    
C9    C10   A    
Cr4   O24   S    
C135  H93   S    
Cr5   O5    S    
Cr2   O2    S    
C63   H1    S    
C62   H6    S    
Cr9   O33   S    
Cr10  O38   S    
C130  H78   S    
Cr3   O47   S    
C131  H79   S    
C104  O52   A    
C96   H28   S    
C88   C96   S    
C42   C90   S    
C107  O7    A    
Cr7   O31   S    
C97   C109  S    
C105  O5    A    
C99   C111  S    
C75   C99   A    
O61   C133  S    
C30   H42   S    
C114  C118  A    
C128  H71   S    
Cr4   O20   S    
C113  C117  A    
C3    O23   A    
C26   C30   A    
C115  C119  A    
C69   C85   S    
C26   C42   A    
Cr11  O11   S    
C61   H5    S    
C7    H31   S    
C3    O27   A    
C46   C113  S    
C18   C22   A    
C127  H67   S    
Cr3   O3    S    
C1    O21   A    
C110  O42   A    
C15   C31   A    
C16   C32   A    
C89   O1    A    
C13   C17   A    
C117  C118  A    
C57   C58   A    
Cr12  O40   S    
C87   H19   S    
Cr10  O34   S    
Cr5   O17   S    
C61   C62   S    
C63   C64   S    
C47   O31   A    
Cr5   O29   S    
C63   H7    S    
Cr7   O27   S    
C51   C60   A    
C96   O64   S    
C62   H4    S    
C92   O4    A    
O55   C127  S    
Cr11  O15   S    
C55   C56   A    
C6    H30   S    
Cr3   O43   S    
C98   C110  S    
C59   O59   S    
C74   C94   S    
C130  H76   S    
C131  H81   S    
C80   C84   A    
C101  O49   A    
Cr3   O23   S    
C15   C19   A    
C50   C54   A    
C85   H21   S    
C88   H20   S    
C13   C29   A    
C5    C11   A    
Cr8   O32   S    
C6    C12   A    
O62   C134  S    
C116  C120  A    
Cr10  O10   S    
C26   H38   S    
C2    O26   A    
C133  H85   S    
Cr2   O18   S    
C114  C121  A    
C52   C107  S    
C4    O24   A    
O59   C131  S    
C69   C73   A    
Cr7   O7    S    
C126  H66   S    
Cr11  O35   S    
O57   C129  S    
C46   O34   A    
C129  H75   S    
C110  O14   A    
C17   C33   S    
C127  H69   S    
C135  H92   S    
C83   H15   S    
Cr8   O8    S    
C68   C84   A    
Cr6   O26   S    
C134  H89   S    
C27   H39   S    
C134  H88   S    
Cr12  O12   S    
Cr8   O52   S    
C79   H11   S    
C54   C62   S    
C125  H61   S    
C27   C31   A    
C33   C37   S    
C38   H58   S    
C31   H43   S    
C35   C39   S    
O63   C135  S    
Cr4   O4    S    
C132  H82   S    
C65   C81   A    
C77   C81   A    
C1    C16   S    
Cr9   O37   S    
C2    C15   S    
C121  C122  A    
C3    C14   S    
Cr7   O51   S    
C71   C87   S    
C100  C112  S    
C24   C44   A    
Cr11  O39   S    
C36   H46   S    
Cr1   O41   S    
C115  C124  A    
Cr8   O28   S    
C28   H40   S    
C122  O54   S    
C119  C120  A    
C105  O9    A    
C10   H34   S    
Cr10  O18   S    
C93   O61   S    
C94   O62   S    
C79   C83   A    
C65   C69   A    
C92   O40   A    
C67   C71   A    
C111  O15   A    
C20   C36   S    
C27   C43   A    
C21   C37   S    
C35   H51   S    
C136  H94   S    
C129  H73   S    
C33   H49   S    
Cr1   O21   S    
C37   H53   S    
C14   C18   A    
C72   C76   A    
Cr6   O50   S    
C73   C97   A    
Cr12  O36   S    
O54   C126  S    
C112  O16   A    
C130  H77   S    
C131  H80   S    
C132  H84   S    
C47   O35   A    
Cr9   O9    S    
C90   O38   A    
C4    C13   S    
C86   C94   S    
Cr11  O19   S    
C20   C24   A    
C51   C108  S    
C78   C98   A    
C103  O47   A    
C60   O60   S    
C34   H48   S    
C57   O57   S    
C101  O45   A    
C128  H70   S    
C94   H26   S    
C68   C72   A    
C91   O3    A    
Cr1   O1    S    
C80   C100  A    
C85   C93   S    
C14   C30   A    
C72   C88   S    
C134  H90   S    
C36   C40   S    
Cr5   O25   S    
C61   H3    S    
C64   H8    S    
C112  O44   A    
C4    O28   A    
C43   C91   S    
C49   C58   A    
C55   C63   S    
C33   H47   S    
C52   C59   A    
C106  O6    A    
C121  O53   S    
C136  H96   S    
C46   O30   A    
C85   H17   S    
Cr1   O45   S    
C18   C34   S    
C82   H14   S    
C48   C115  S    
C84   H16   S    
O64   C136  S    
C44   C92   S    
C5    H29   S    
C21   C41   A    
C126  H64   S    
C70   C86   S    
C77   H9    S    
C8    C120  A    
C40   H60   S    
C7    C9    A    
C34   C38   S    
C95   O63   S    
C11   C12   A    
C86   H22   S    
C90   O2    A    
C109  O41   A    
Cr9   O17   S    
C108  O8    A    
C71   C75   A    
C22   C42   A    
C23   C39   S    
C24   C40   S    
C133  H86   S    
C128  H72   S    
C48   O36   A    
C65   C104  S    
C6    C118  A    
C52   C56   A    
C67   C102  S    
Cr12  O20   S    
