data_mof_unit_17686.cif
_audit_creation_date              2012-12-11T15:27:40-0500
_audit_creation_method            fapswitch 2.2
_symmetry_space_group_name_H-M    P1
_symmetry_Int_Tables_number       1
_space_group_crystal_system       triclinic
_cell_length_a                    23.252076
_cell_length_b                    7.298519
_cell_length_c                    15.078943
_cell_angle_alpha                 90.537689
_cell_angle_beta                  108.27927
_cell_angle_gamma                 89.478729
_cell_volume                      2429.69603712

loop_
_atom_site_label
_atom_site_type_symbol
_atom_type_description
_atom_site_fract_x
_atom_site_fract_y
_atom_site_fract_z
_atom_type_partial_charge
O1    O     O_R   0.711000 0.648610 0.341170 -0.530413
O2    O     O_R   0.289000 0.351390 0.658830 -0.530412
O3    O     O_R   0.789000 0.148610 0.158830 -0.542861
O4    O     O_R   0.211000 0.851390 0.841170 -0.542864
O5    O     O_R   0.829650 0.322030 0.336650 -0.541126
O6    O     O_R   0.170350 0.677970 0.663350 -0.541129
O7    O     O_R   0.670350 0.822030 0.163350 -0.534468
O8    O     O_R   0.329650 0.177970 0.836650 -0.534464
C1    C     C_R   0.854257 0.485590 0.356847 0.736345
C2    C     C_R   0.145743 0.514410 0.643153 0.736318
C3    C     C_R   0.645741 0.985993 0.143136 0.736963
C4    C     C_R   0.354259 0.014007 0.856864 0.736959
O9    O     O_R   0.713950 0.319280 0.352070 -0.545153
O10   O     O_R   0.286050 0.680720 0.647930 -0.545157
O11   O     O_R   0.786050 0.819280 0.147930 -0.532907
O12   O     O_R   0.213950 0.180720 0.852070 -0.532899
O13   O     O_R   0.672470 0.142870 0.174360 -0.538233
O14   O     O_R   0.327530 0.857130 0.825640 -0.538233
O15   O     O_R   0.827530 0.642870 0.325640 -0.531466
O16   O     O_R   0.172470 0.357130 0.674360 -0.531460
C5    C     C_R   0.702037 0.488633 0.376287 0.749122
C6    C     C_R   0.297963 0.511367 0.623713 0.749105
C7    C     C_R   0.798016 0.986386 0.123669 0.748791
C8    C     C_R   0.201984 0.013614 0.876331 0.748789
O17   O     O_3   0.736530 0.478650 0.191680 -0.381923
O18   O     O_3   0.263470 0.521350 0.808320 -0.381919
O19   O     O_3   0.763470 0.978650 0.308320 -0.379409
O20   O     O_3   0.236530 0.021350 0.691680 -0.379410
V1    V     V_3+5 0.752500 0.206170 0.260820 1.437747
V2    V     V_3+5 0.247500 0.793830 0.739180 1.437730
V3    V     V_3+5 0.747500 0.706170 0.239180 1.476571
V4    V     V_3+5 0.252500 0.293830 0.760820 1.476587
C9    C     C_R   0.826773 0.989090 0.050289 -0.103026
C10   C     C_R   0.173227 0.010912 0.949712 -0.103032
C11   C     C_R   0.673115 0.502246 0.449278 -0.102870
C12   C     C_R   0.326887 0.497754 0.550725 -0.102902
C13   C     C_R   0.823960 0.928923 0.891247 -0.277870
C14   C     C_R   0.176039 0.071121 0.108751 -0.277867
C15   C     C_R   0.675184 0.591448 0.604828 -0.276420
C16   C     C_R   0.324820 0.408557 0.395176 -0.276372
C17   C     C_R   0.793114 0.949409 0.957457 0.411977
C18   C     C_R   0.206885 0.050623 0.042541 0.411958
C19   C     C_R   0.706313 0.558626 0.539859 0.411591
C20   C     C_R   0.293692 0.441381 0.460142 0.411573
C21   C     C_R   0.889278 0.015914 0.075940 -0.297196
C22   C     C_R   0.110723 0.984076 0.924063 -0.297191
C23   C     C_R   0.610888 0.471351 0.424945 -0.296783
C24   C     C_R   0.389115 0.528646 0.575060 -0.296771
C25   C     C_R   0.921024 0.996388 0.010329 0.090273
C26   C     C_R   0.078977 0.003626 0.989672 0.090273
C27   C     C_R   0.578902 0.502583 0.489409 0.089971
C28   C     C_R   0.421102 0.497414 0.510597 0.089973
C29   C     C_R   0.886985 0.951190 0.917039 0.095012
C30   C     C_R   0.113014 0.048845 0.082960 0.095007
C31   C     C_R   0.612409 0.564433 0.580229 0.094125
C32   C     C_R   0.387595 0.435567 0.419776 0.094098
C33   C     C_R   0.985402 0.014714 0.034801 0.071078
C34   C     C_R   0.014598 0.985308 0.965199 0.071075
C35   C     C_R   0.514762 0.479404 0.465964 0.070931
C36   C     C_R   0.485242 0.520592 0.534042 0.070930
C37   C     C_R   0.978430 0.939149 0.873481 -0.190100
C38   C     C_R   0.021569 0.060891 0.126517 -0.190110
C39   C     C_R   0.520861 0.583060 0.623276 -0.190107
C40   C     C_R   0.479143 0.416935 0.376731 -0.190102
C41   C     C_R   0.916070 0.923799 0.850138 -0.186171
C42   C     C_R   0.083929 0.076252 0.149860 -0.186167
C43   C     C_R   0.583014 0.603235 0.645696 -0.185238
C44   C     C_R   0.416990 0.396765 0.354310 -0.185239
H1    H     H_    0.890357 0.887939 0.778836 0.130023
H2    H     H_    0.109641 0.112133 0.221160 0.130025
H3    H     H_    0.608307 0.651664 0.715072 0.130645
H4    H     H_    0.391698 0.348338 0.284933 0.130644
H5    H     H_    0.088210 0.955763 0.851264 0.117538
H6    H     H_    0.911793 0.044195 0.148742 0.117536
H7    H     H_    0.411247 0.570417 0.646202 0.117323
H8    H     H_    0.588755 0.429576 0.353803 0.117319
H9    H     H_    0.799267 0.889717 0.820137 0.106280
H10   H     H_    0.200731 0.110352 0.179858 0.106328
H11   H     H_    0.699415 0.643442 0.673816 0.107603
H12   H     H_    0.300587 0.356563 0.326189 0.107652
H13   H     H_    0.996715 0.912359 0.817344 0.124122
H14   H     H_    0.003283 0.087700 0.182652 0.124122
H15   H     H_    0.502292 0.619228 0.678078 0.124247
H16   H     H_    0.497712 0.380765 0.321929 0.124246
C45   C     C_1   0.416748 0.006525 0.918798 -0.189222
C46   C     C_1   0.583252 0.993475 0.081200 -0.189208
C47   C     C_1   0.083249 0.507483 0.581192 -0.188561
C48   C     C_1   0.916750 0.492517 0.418810 -0.188533
C49   C     C_1   0.469141 0.002177 0.969997 0.000229
C50   C     C_1   0.530860 0.997823 0.030002 0.000230
C51   C     C_1   0.030859 0.502650 0.529999 0.000035
C52   C     C_1   0.969140 0.497350 0.470004 0.000027
O21   O     O_3   0.268498 0.085195 0.063685 -0.560473
C53   C     C_3   0.302648 0.997247 0.146950 0.077396
H17   H     H_    0.285094 0.857815 0.153329 0.118717
H18   H     H_    0.302724 0.082360 0.208498 0.121683
C54   C     C_3   0.367848 0.976248 0.147161 -0.699908
H19   H     H_    0.387224 0.112722 0.141838 0.220558
H20   H     H_    0.395487 0.910244 0.212989 0.182774
H21   H     H_    0.369606 0.889639 0.087090 0.220115
O22   O     O_3   0.731498 0.914864 0.936310 -0.560478
C55   C     C_3   0.697350 0.002766 0.853026 0.077408
H22   H     H_    0.697264 0.917585 0.791493 0.121677
H23   H     H_    0.714914 0.142173 0.846614 0.118717
C56   C     C_3   0.632153 0.023851 0.852817 -0.699917
H24   H     H_    0.630407 0.110534 0.912872 0.220122
H25   H     H_    0.604516 0.089816 0.786972 0.182779
H26   H     H_    0.612768 0.887404 0.858173 0.220565
O23   O     O_3   0.232389 0.403813 0.440653 -0.559872
C57   C     C_3   0.197621 0.476857 0.353623 0.078887
H27   H     H_    0.198519 0.381551 0.296141 0.122450
H28   H     H_    0.213898 0.614647 0.341096 0.116912
C58   C     C_3   0.132161 0.497423 0.352162 -0.699945
H29   H     H_    0.129393 0.593828 0.408144 0.219314
H30   H     H_    0.104094 0.551853 0.283544 0.182866
H31   H     H_    0.114030 0.362318 0.363379 0.221479
O24   O     O_3   0.767616 0.596195 0.559333 -0.559881
C59   C     C_3   0.802387 0.523439 0.646426 0.078943
H32   H     H_    0.786117 0.385731 0.659083 0.116917
H33   H     H_    0.801483 0.618969 0.703815 0.122439
C60   C     C_3   0.867847 0.502792 0.647901 -0.700021
H34   H     H_    0.885966 0.637808 0.636529 0.221505
H35   H     H_    0.895921 0.448640 0.716575 0.182876
H36   H     H_    0.870624 0.406133 0.592028 0.219317

loop_
_geom_bond_atom_site_label_1
_geom_bond_atom_site_label_2
_ccdc_geom_bond_type
O17   V3    S    
O1    C5    A    
O22   C55   S    
C47   C51   T    
O19   V1    S    
C18   O21   S    
C9    C21   A    
O3    C7    A    
C10   C18   A    
O15   V3    S    
C54   H19   S    
C25   C33   A    
C33   C38   A    
O7    C3    A    
C56   H25   S    
C35   C40   A    
C26   C30   A    
C4    C45   S    
C36   C39   A    
C40   C44   A    
O9    V1    S    
C23   H8    S    
C14   C18   A    
C1    C48   S    
O4    C8    A    
C25   C29   A    
C3    C46   S    
O1    V3    S    
O13   V1    S    
C55   C56   S    
O2    V4    S    
O3    V1    S    
C57   H27   S    
C40   H16   S    
C60   H36   S    
C28   C36   A    
C57   H28   S    
C59   H32   S    
C1    O15   A    
C15   C31   A    
C48   C52   T    
C2    O16   A    
C7    C9    S    
O2    C6    A    
C16   H12   S    
C10   C22   A    
C11   C19   A    
C16   C20   A    
C43   H3    S    
C44   H4    S    
C58   H31   S    
C13   C29   A    
C20   O23   S    
C34   C37   A    
O11   C7    A    
C38   H14   S    
C11   C23   A    
C35   C36   A    
O12   C8    A    
C24   H7    S    
C55   H22   S    
O10   V2    S    
C54   H20   S    
O5    V1    S    
C56   H26   S    
C39   C43   A    
C2    C47   S    
O7    V3    S    
C38   C42   A    
O8    V4    S    
C46   C50   T    
C51   C52   S    
C45   C49   T    
O18   V4    S    
C15   C19   A    
C14   H10   S    
C53   C54   S    
C16   C32   A    
C32   C44   A    
C13   H9    S    
C8    C10   S    
C39   H15   S    
C21   H6    S    
C59   C60   S    
C26   C34   A    
C55   H23   S    
O5    C1    A    
C31   C43   A    
C14   C30   A    
C21   C25   A    
O8    C4    A    
O9    C5    A    
O21   C53   S    
C53   H18   S    
C57   C58   S    
C60   H34   S    
C19   O24   S    
O14   V2    S    
O6    V2    S    
C12   C20   A    
C27   C35   A    
C54   H21   S    
C29   C41   A    
C58   H29   S    
O16   V4    S    
C3    O13   A    
O6    C2    A    
C23   C27   A    
O11   V3    S    
C30   C42   A    
O12   V4    S    
C6    C12   S    
C56   H24   S    
C22   C26   A    
C9    C17   A    
O10   C6    A    
O20   V2    S    
C5    C11   S    
C37   H13   S    
O24   C59   S    
C33   C34   A    
C42   H2    S    
C41   H1    S    
C17   O22   S    
C12   C24   A    
C27   C31   A    
C13   C17   A    
C53   H17   S    
C59   H33   S    
C60   H35   S    
C37   C41   A    
C24   C28   A    
C4    O14   A    
C49   C50   S    
O23   C57   S    
C22   H5    S    
O4    V2    S    
C28   C32   A    
C15   H11   S    
C58   H30   S    
