data_mof_unit_51596.cif
_audit_creation_date              2013-03-05T16:35:19-0500
_audit_creation_method            fapswitch 2.2
_symmetry_space_group_name_H-M    P1
_symmetry_Int_Tables_number       1
_space_group_crystal_system       triclinic
_cell_length_a                    14.142736
_cell_length_b                    14.923592
_cell_length_c                    16.700038
_cell_angle_alpha                 89.708734
_cell_angle_beta                  93.594748
_cell_angle_gamma                 89.367699
_cell_volume                      3517.50899975

loop_
_atom_site_label
_atom_site_type_symbol
_atom_site_description
_atom_site_fract_x
_atom_site_fract_y
_atom_site_fract_z
_atom_type_partial_charge
O1    O     O_R   0.579480 0.369070 0.499990 -0.604918
O2    O     O_R   0.420520 0.630930 0.500010 -0.613602
O3    O     O_R   0.420520 0.369060 0.499990 -0.626792
O4    O     O_R   0.579480 0.630940 0.500010 -0.617080
C1    C     C_R   0.500659 0.327882 0.500684 0.881625
C2    C     C_R   0.499362 0.672525 0.500701 0.876494
O5    O     O_R   0.588340 0.499180 0.616130 -0.625425
O6    O     O_R   0.411660 0.500820 0.383870 -0.623943
O7    O     O_R   0.429390 0.499170 0.616130 -0.622009
O8    O     O_R   0.570610 0.500830 0.383870 -0.633830
C3    C     C_R   0.511406 0.501272 0.653747 0.893154
C4    C     C_R   0.488507 0.498002 0.346288 0.873922
Zn1   Zn    Zn3+2 0.606140 0.500010 0.500000 0.946318
Zn2   Zn    Zn3+2 0.393860 0.499990 0.500000 0.945535
C5    C     C_R   0.515240 0.511756 0.740294 -0.044242
C6    C     C_R   0.483467 0.483655 0.260138 -0.046315
C7    C     C_R   0.430017 0.520654 0.778165 -0.292587
C8    C     C_R   0.566284 0.460694 0.222505 -0.275404
C9    C     C_R   0.430387 0.533025 0.860463 0.005242
C10   C     C_R   0.563223 0.445870 0.140169 0.016279
C11   C     C_R   0.518283 0.531143 0.905639 0.269738
C12   C     C_R   0.475500 0.456395 0.095677 0.264600
C13   C     C_R   0.603359 0.526573 0.867645 -0.215150
C14   C     C_R   0.392285 0.473387 0.133840 -0.199714
C15   C     C_R   0.602075 0.517423 0.784941 -0.236948
C16   C     C_R   0.396080 0.487427 0.215908 -0.233504
N1    N     N_2   0.522532 0.524062 0.989430 -0.192542
N2    N     N_2   0.471449 0.462561 0.011972 -0.195776
H1    H     H_    0.633314 0.453500 0.257229 0.160385
H2    H     H_    0.362651 0.520172 0.743468 0.174756
H3    H     H_    0.670482 0.525843 0.902685 0.159005
H4    H     H_    0.325328 0.480843 0.099117 0.163470
H5    H     H_    0.668572 0.512237 0.756373 0.161647
H6    H     H_    0.331204 0.503194 0.244320 0.161727
C17   C     C_R   0.564336 0.088259 0.544483 -0.013400
C18   C     C_R   0.428828 0.913471 0.526755 -0.016220
C19   C     C_R   0.560665 0.181645 0.552869 -0.068711
C20   C     C_R   0.429531 0.820006 0.535578 -0.071193
C21   C     C_R   0.502723 0.232118 0.497267 -0.072810
C22   C     C_R   0.497025 0.768988 0.495910 -0.083137
C23   C     C_R   0.451266 0.191799 0.433532 -0.207685
C24   C     C_R   0.560645 0.809976 0.446895 -0.207644
H7    H     H_    0.408400 0.231534 0.390204 0.147553
H8    H     H_    0.611083 0.770760 0.415090 0.152225
C25   C     C_R   0.455320 0.100190 0.424901 -0.193491
C26   C     C_R   0.559711 0.901737 0.438140 -0.200424
H9    H     H_    0.413334 0.068824 0.376509 0.135405
H10   H     H_    0.610887 0.933211 0.401700 0.135654
C27   C     C_R   0.509176 0.048744 0.481003 0.059612
C28   C     C_R   0.496390 0.953072 0.479483 0.062539
C29   C     C_R   0.109374 0.436831 0.545452 -0.287341
C30   C     C_R   0.889768 0.527404 0.432175 -0.283042
H11   H     H_    0.076898 0.385452 0.580149 0.128014
H12   H     H_    0.921293 0.547640 0.377617 0.130273
C31   C     C_R   0.208629 0.437952 0.544460 0.021836
C32   C     C_R   0.790504 0.526997 0.433291 0.011660
H13   H     H_    0.250755 0.388801 0.579127 0.121919
H14   H     H_    0.747869 0.548215 0.380427 0.120206
N3    N     N_R   0.252470 0.499980 0.500000 -0.086417
N4    N     N_R   0.747530 0.500020 0.500000 -0.088492
C33   C     C_R   0.200616 0.562490 0.456136 0.025628
C34   C     C_R   0.800701 0.473167 0.566923 0.017445
H15   H     H_    0.236466 0.611747 0.421594 0.117952
H16   H     H_    0.766107 0.452098 0.619655 0.137155
C35   C     C_R   0.101238 0.564121 0.455795 -0.301277
C36   C     C_R   0.900160 0.472998 0.568520 -0.293820
H17   H     H_    0.062443 0.615797 0.421470 0.129278
H18   H     H_    0.939937 0.452802 0.623236 0.127937
C37   C     C_R   0.053501 0.500488 0.500650 0.142183
C38   C     C_R   0.946789 0.500338 0.500484 0.143515
C39   C     C_R   0.651635 0.422120 0.100884 0.135351
C40   C     C_R   0.652088 0.352553 0.044299 -0.126864
C41   C     C_R   0.734122 0.332623 0.005035 -0.156290
C42   C     C_R   0.816607 0.381354 0.022218 -0.125372
C43   C     C_R   0.817271 0.449962 0.078860 -0.142489
C44   C     C_R   0.735306 0.470353 0.118124 -0.162498
H19   H     H_    0.588878 0.313888 0.030400 0.125286
H20   H     H_    0.733683 0.279416 0.961210 0.127454
H21   H     H_    0.880011 0.365946 0.991654 0.118253
H22   H     H_    0.881206 0.487755 0.092015 0.122454
H23   H     H_    0.736721 0.524788 0.160804 0.119220
C45   C     C_R   0.339035 0.548565 0.897930 0.130132
C46   C     C_R   0.261112 0.492897 0.879605 -0.163694
C47   C     C_R   0.175267 0.508060 0.914771 -0.148385
C48   C     C_R   0.166307 0.578891 0.968245 -0.126183
C49   C     C_R   0.243127 0.634839 0.986530 -0.154821
C50   C     C_R   0.329102 0.619974 0.951507 -0.145806
H24   H     H_    0.267052 0.437230 0.838804 0.120954
H25   H     H_    0.115697 0.464759 0.900662 0.121921
H26   H     H_    0.099817 0.590457 0.995462 0.119653
H27   H     H_    0.236047 0.689818 0.027821 0.128169
H28   H     H_    0.387722 0.664398 0.965801 0.127998
C51   C     C_R   0.622442 0.031945 0.603012 0.122880
C52   C     C_R   0.599642 0.026847 0.683547 -0.144024
C53   C     C_R   0.653758 0.973006 0.738107 -0.148930
C54   C     C_R   0.731420 0.924478 0.712844 -0.110442
C55   C     C_R   0.755438 0.930244 0.633093 -0.128719
C56   C     C_R   0.701479 0.984089 0.578391 -0.145088
H29   H     H_    0.539880 0.064345 0.703965 0.129733
H30   H     H_    0.635489 0.968935 0.799977 0.125093
H31   H     H_    0.773246 0.882762 0.755135 0.121328
H32   H     H_    0.816008 0.893150 0.613696 0.125897
H33   H     H_    0.721487 0.988803 0.517012 0.117163
C57   C     C_R   0.359574 0.969866 0.567922 0.125308
C58   C     C_R   0.365991 0.977713 0.651825 -0.144682
C59   C     C_R   0.301790 0.032129 0.690062 -0.145931
C60   C     C_R   0.230383 0.078552 0.644881 -0.115567
C61   C     C_R   0.222712 0.070094 0.561435 -0.131127
C62   C     C_R   0.286767 0.015634 0.523031 -0.142112
H34   H     H_    0.420811 0.941970 0.687519 0.127149
H35   H     H_    0.307438 0.038333 0.754718 0.123906
H36   H     H_    0.180782 0.120772 0.674539 0.116465
H37   H     H_    0.167061 0.105659 0.526512 0.123982
H38   H     H_    0.279633 0.009047 0.458411 0.114675
C63   C     C_R   0.613651 0.225664 0.621096 0.129479
C64   C     C_R   0.712832 0.230775 0.623376 -0.090922
C65   C     C_R   0.762603 0.269308 0.689279 -0.163586
C66   C     C_R   0.713754 0.302212 0.753374 -0.129201
C67   C     C_R   0.615033 0.296871 0.751544 -0.129692
C68   C     C_R   0.564904 0.259563 0.685289 -0.183059
H39   H     H_    0.751333 0.204738 0.574325 0.118691
H40   H     H_    0.839046 0.273476 0.690747 0.120207
H41   H     H_    0.752354 0.331790 0.804465 0.121570
H42   H     H_    0.577323 0.321713 0.801469 0.145553
H43   H     H_    0.488424 0.255567 0.684541 0.121108
C69   C     C_R   0.362415 0.777048 0.588256 0.146296
C70   C     C_R   0.267581 0.764683 0.560942 -0.104544
C71   C     C_R   0.203852 0.726459 0.611615 -0.131398
C72   C     C_R   0.234068 0.701993 0.690079 -0.110254
C73   C     C_R   0.328119 0.715399 0.717807 -0.133513
C74   C     C_R   0.392631 0.751469 0.666760 -0.165548
H44   H     H_    0.243326 0.784438 0.500554 0.106474
H45   H     H_    0.130928 0.716369 0.590244 0.129550
H46   H     H_    0.184548 0.673159 0.729546 0.131227
H47   H     H_    0.350986 0.698181 0.778982 0.140621
H48   H     H_    0.465426 0.761351 0.688793 0.122536

loop_
_geom_bond_atom_site_label_1
_geom_bond_atom_site_label_2
_geom_bond_distance
_ccdc_geom_bond_type
C36   H18   1.082250 S    
C58   H34   1.081963 S    
C69   C70   1.403776 A    
C31   N3    1.362358 A    
C41   C42   1.396760 A    
C53   C54   1.397327 A    
C65   H40   1.082341 S    
C71   C72   1.398002 A    
C55   C56   1.397926 A    
C21   C23   1.394135 A    
Zn1   N4    1.999643 S    
C36   C38   1.409786 A    
C48   C49   1.397053 A    
C61   C62   1.398019 A    
O5    C3    1.290216 A    
Zn2   N3    1.999643 S    
C51   C52   1.404457 A    
O1    C1    1.279558 A    
C69   C74   1.402911 A    
C12   C14   1.394512 A    
C9    C11   1.413040 A    
C14   C16   1.385307 A    
C49   H27   1.082261 S    
C57   C62   1.404028 A    
C5    C15   1.399785 A    
C59   C60   1.397433 A    
C63   C64   1.403758 A    
C64   C65   1.398440 A    
N4    C34   1.363286 A    
C24   C26   1.376271 A    
C25   H9    1.083793 S    
O4    Zn1   1.985906 S    
C33   H15   1.082020 S    
C66   C67   1.397769 A    
C34   H16   1.080899 S    
C7    C9    1.387339 A    
C70   H44   1.083051 S    
C3    C5    1.452257 S    
C16   H6    1.083202 S    
C4    C6    1.453055 S    
C35   H17   1.082176 S    
C56   H33   1.082483 S    
C17   C27   1.411739 A    
C41   H20   1.082422 S    
C10   C39   1.488271 S    
C9    C45   1.486849 S    
C43   H22   1.082390 S    
C29   C31   1.405154 A    
C55   H32   1.082290 S    
C22   C24   1.397564 A    
C46   H24   1.082986 S    
C11   N1    1.400230 S    
C12   N2    1.397985 S    
C50   H28   1.082936 S    
C7    H2    1.083729 S    
C23   H7    1.084172 S    
O2    C2    1.281601 A    
C24   H8    1.083943 S    
C57   C58   1.404002 A    
C20   C69   1.482659 S    
C30   H12   1.082230 S    
C59   H35   1.082224 S    
C17   C51   1.487502 S    
C11   C13   1.396178 A    
C6    C16   1.399914 A    
C26   H10   1.083809 S    
N3    C33   1.362077 A    
C42   C43   1.397195 A    
C34   C36   1.405183 A    
C54   H31   1.082269 S    
C47   C48   1.397047 A    
O4    C2    1.286608 A    
C74   H48   1.083251 S    
C64   H39   1.083033 S    
O7    Zn2   1.972622 S    
C49   C50   1.397961 A    
C67   H42   1.082379 S    
C45   C46   1.406710 A    
C32   N4    1.363195 A    
C29   H11   1.082257 S    
C13   H3    1.083408 S    
C61   H37   1.082288 S    
C43   C44   1.398534 A    
C14   H4    1.083297 S    
C40   H19   1.082928 S    
C33   C35   1.405073 A    
C46   C47   1.398137 A    
C25   C27   1.392004 A    
O6    C4    1.289061 A    
C54   C55   1.397417 A    
C8    H1    1.083814 S    
C67   C68   1.397673 A    
O7    C3    1.284798 A    
O3    Zn2   1.985905 S    
O8    C4    1.286062 A    
C62   H38   1.082620 S    
C73   H47   1.080917 S    
C10   C12   1.412395 A    
C27   C28   1.441294 S    
C42   H21   1.082360 S    
C31   H13   1.082103 S    
C2    C22   1.441300 S    
O1    Zn1   1.994217 S    
C47   H25   1.082374 S    
C60   C61   1.397444 A    
C70   C71   1.398548 A    
C18   C28   1.409898 A    
C72   C73   1.397612 A    
C5    C7    1.401171 A    
O6    Zn2   1.971230 S    
C17   C19   1.402090 A    
C53   H30   1.082226 S    
C40   C41   1.397922 A    
O3    C1    1.282673 A    
O8    Zn1   1.972624 S    
C44   H23   1.082967 S    
C48   H26   1.082345 S    
C19   C63   1.484164 S    
C58   C59   1.397627 A    
C26   C28   1.390447 A    
C18   C57   1.487410 S    
C1    C21   1.430628 S    
C73   C74   1.397375 A    
C39   C40   1.407645 A    
C19   C21   1.408867 A    
C71   H45   1.082371 S    
C20   C22   1.413532 A    
C39   C44   1.406945 A    
C52   H29   1.082324 S    
C35   C37   1.410341 A    
C18   C20   1.401721 A    
C68   H43   1.083237 S    
C32   H14   1.081392 S    
C8    C10   1.391876 A    
C66   H41   1.082401 S    
C13   C15   1.387585 A    
C52   C53   1.397529 A    
O2    Zn2   1.994218 S    
C37   C38   1.509060 S    
C30   C38   1.409815 A    
C72   H46   1.082457 S    
C30   C32   1.405249 A    
O5    Zn1   1.971229 S    
C6    C8    1.403533 A    
C63   C68   1.403898 A    
N1    N2    1.245493 D    
C23   C25   1.376388 A    
C60   H36   1.082304 S    
C29   C37   1.410224 A    
C65   C66   1.398117 A    
C51   C56   1.404148 A    
C45   C50   1.406455 A    
C15   H5    1.083084 S    
