data_mof_unit_37540.cif
_audit_creation_date              2012-12-10T18:05:42-0500
_audit_creation_method            fapswitch 2.2
_symmetry_space_group_name_H-M    P1
_symmetry_Int_Tables_number       1
_space_group_crystal_system       triclinic
_cell_length_a                    10.890659
_cell_length_b                    10.827011
_cell_length_c                    9.550224
_cell_angle_alpha                 89.964026
_cell_angle_beta                  90.974612
_cell_angle_gamma                 89.581458
_cell_volume                      1125.90501039

loop_
_atom_site_label
_atom_site_type_symbol
_atom_type_description
_atom_site_fract_x
_atom_site_fract_y
_atom_site_fract_z
_atom_type_partial_charge
C1    C     C_R   0.499925 0.262182 0.499986 0.782899
C2    C     C_R   0.500075 0.737818 0.500013 0.782898
C3    C     C_R   0.871729 0.502020 0.504050 -0.086178
C4    C     C_R   0.128271 0.497981 0.495949 -0.086178
C5    C     C_R   0.941483 0.526485 0.626769 -0.004660
C6    C     C_R   0.058517 0.473517 0.373231 -0.004660
C7    C     C_R   0.493721 0.064004 0.372819 -0.195066
C8    C     C_R   0.506279 0.935996 0.627181 -0.195067
C9    C     C_R   0.493927 0.936234 0.372807 -0.194086
C10   C     C_R   0.506073 0.063766 0.627193 -0.194086
C11   C     C_R   0.500141 0.871719 0.499986 -0.012521
C12   C     C_R   0.499859 0.128281 0.500014 -0.012521
C13   C     C_R   0.541805 0.399875 0.075057 -0.026984
C14   C     C_R   0.458195 0.600125 0.924943 -0.026986
C15   C     C_R   0.541956 0.399956 0.926665 -0.016784
C16   C     C_R   0.458044 0.600044 0.073334 -0.016787
C17   C     C_R   0.262237 0.498641 0.498496 0.793405
C18   C     C_R   0.737763 0.501359 0.501504 0.793404
C19   C     C_R   0.172087 0.518928 0.006923 -0.133793
C20   C     C_R   0.827915 0.481072 0.993077 -0.133795
C21   C     C_R   0.121943 0.542687 0.137581 -0.116794
C22   C     C_R   0.878061 0.457314 0.862421 -0.116799
C23   C     C_R   0.112980 0.447481 0.236186 0.135508
C24   C     C_R   0.887019 0.552520 0.763813 0.135506
C25   C     C_R   0.153844 0.328052 0.202792 -0.123017
C26   C     C_R   0.846149 0.671947 0.797205 -0.123010
C27   C     C_R   0.203301 0.304407 0.071216 -0.150775
C28   C     C_R   0.796691 0.695591 0.928781 -0.150772
C29   C     C_R   0.212030 0.399718 0.973121 -0.105651
C30   C     C_R   0.787967 0.600281 0.026877 -0.105650
C31   C     C_R   0.931548 0.475907 0.379174 -0.245780
C32   C     C_R   0.068452 0.524094 0.620826 -0.245781
Cu1   Cu    Cu3+1 0.500000 0.500020 0.640660 0.938654
Cu2   Cu    Cu3+1 0.500000 0.499980 0.359340 0.938654
H1    H     H_    0.250798 0.381433 0.871596 0.150027
H2    H     H_    0.749197 0.618566 0.128402 0.150028
H3    H     H_    0.577167 0.320035 0.872332 0.111746
H4    H     H_    0.422834 0.679965 0.127668 0.111746
H5    H     H_    0.181366 0.593842 0.933187 0.113169
H6    H     H_    0.818639 0.406159 0.066815 0.113170
H7    H     H_    0.090829 0.635254 0.162375 0.118261
H8    H     H_    0.909180 0.364748 0.837628 0.118263
H9    H     H_    0.147273 0.253836 0.278324 0.112368
H10   H     H_    0.852716 0.746163 0.721672 0.112366
H11   H     H_    0.235064 0.212387 0.045398 0.117321
H12   H     H_    0.764923 0.787610 0.954598 0.117319
H13   H     H_    0.879191 0.455569 0.285291 0.155010
H14   H     H_    0.120809 0.544433 0.714709 0.155010
H15   H     H_    0.488547 0.112137 0.273389 0.139831
H16   H     H_    0.511453 0.887863 0.726611 0.139830
H17   H     H_    0.576859 0.319861 0.130826 0.110669
H18   H     H_    0.423142 0.680139 0.869174 0.110669
N1    N     N_R   0.500030 0.500030 0.852070 -0.153273
N2    N     N_R   0.499970 0.499970 0.147930 -0.153274
O1    O     O_R   0.499990 0.319660 0.618740 -0.598927
O2    O     O_R   0.500010 0.680340 0.381260 -0.598927
O3    O     O_R   0.499990 0.319630 0.381170 -0.592221
O4    O     O_R   0.500010 0.680370 0.618830 -0.592222
O5    O     O_R   0.319650 0.500020 0.618780 -0.596453
O6    O     O_R   0.680350 0.499980 0.381220 -0.596453
O7    O     O_R   0.319640 0.500000 0.381210 -0.562879
O8    O     O_R   0.680360 0.500000 0.618790 -0.562879
H19   H     H_    0.488979 0.888296 0.273375 0.136979
H20   H     H_    0.511021 0.111704 0.726625 0.136979

loop_
_geom_bond_atom_site_label_1
_geom_bond_atom_site_label_2
_ccdc_geom_bond_type
Cu1   O1    S    
Cu2   O3    S    
C3    C31   A    
C16   H4    S    
C2    O4    A    
Cu2   O2    S    
Cu1   O4    S    
C14   C16   A    
C1    O3    A    
C27   C29   A    
C32   H14   S    
C29   H1    S    
C26   C28   A    
C13   C15   A    
C30   H2    S    
C5    C32   A    
C10   H20   S    
C25   H9    S    
C28   C30   A    
C6    C31   A    
C1    O1    A    
C26   H10   S    
Cu1   O5    S    
C31   H13   S    
C23   C25   A    
Cu2   O6    S    
C9    C11   A    
C28   H12   S    
C22   H8    S    
C1    C12   S    
C19   H5    S    
C17   O5    A    
C8    C11   A    
C21   H7    S    
C2    C11   S    
C15   N1    A    
C22   C24   A    
C4    C6    A    
C19   C21   A    
C20   C22   A    
Cu2   N2    S    
C10   C12   A    
C21   C23   A    
Cu1   N1    S    
C7    C12   A    
C20   H6    S    
C16   N2    A    
C25   C27   A    
C27   H11   S    
C4    C17   S    
C4    C32   A    
C19   C29   A    
C8    H16   S    
C14   N1    A    
Cu1   Cu2   S    
C13   H17   S    
C7    H15   S    
C3    C18   S    
C8    C10   A    
C13   N2    A    
Cu2   O7    S    
C15   H3    S    
C18   O6    A    
C7    C9    A    
C18   O8    A    
C5    C24   S    
C20   C30   A    
C17   O7    A    
C6    C23   S    
C9    H19   S    
C2    O2    A    
C14   H18   S    
C24   C26   A    
Cu1   O8    S    
C3    C5    A    
