data_mof_unit_6482.cif
_audit_creation_date              2012-12-10T17:50:41-0500
_audit_creation_method            fapswitch 2.2
_symmetry_space_group_name_H-M    P1
_symmetry_Int_Tables_number       1
_space_group_crystal_system       triclinic
_cell_length_a                    15.687835
_cell_length_b                    10.714835
_cell_length_c                    9.987348
_cell_angle_alpha                 92.19512
_cell_angle_beta                  88.553568
_cell_angle_gamma                 93.228158
_cell_volume                      1674.45660324

loop_
_atom_site_label
_atom_site_type_symbol
_atom_type_description
_atom_site_fract_x
_atom_site_fract_y
_atom_site_fract_z
_atom_type_partial_charge
C1    C     C_R   0.508182 0.261793 0.497885 0.835769
C2    C     C_R   0.594621 0.087209 0.842067 -0.105139
C3    C     C_R   0.553658 0.971682 0.865804 -0.132236
C4    C     C_R   0.338163 0.500193 0.501354 0.884106
C5    C     C_R   0.514933 0.902116 0.760758 -0.218305
C6    C     C_R   0.517370 0.947140 0.628718 0.104327
C7    C     C_R   0.543765 0.072644 0.612785 0.094199
C8    C     C_R   0.519917 0.130093 0.495456 -0.108467
C9    C     C_R   0.491025 0.059478 0.384246 -0.224288
C10   C     C_R   0.480617 0.932373 0.390924 -0.218381
C11   C     C_R   0.494104 0.874654 0.511320 -0.112905
C12   C     C_3   0.082640 0.500236 0.502881 0.188949
C13   C     C_R   0.409618 0.310491 0.139538 -0.129354
C14   C     C_R   0.383945 0.199663 0.072839 -0.230346
C15   C     C_R   0.387034 0.192784 0.934583 -0.211574
C16   C     C_R   0.496496 0.740163 0.503520 0.879452
C17   C     C_R   0.406266 0.301598 0.864138 0.040017
C18   C     C_R   0.452473 0.406230 0.927657 0.127886
C19   C     C_R   0.454263 0.406943 0.071547 0.132951
C20   C     C_R   0.548136 0.585806 0.073349 -0.018477
C21   C     C_R   0.551886 0.581961 0.929612 -0.074541
C22   C     C_R   0.661867 0.500541 0.498591 0.908055
C23   C     C_3   0.973256 0.595233 0.579232 -0.156681
C24   C     C_3   0.966274 0.391102 0.544910 -0.167925
C25   C     C_3   0.026760 0.405260 0.421063 -0.167517
C26   C     C_1   0.249058 0.500322 0.504175 -0.129144
C27   C     C_1   0.750964 0.500474 0.495664 -0.132116
C28   C     C_3   0.023978 0.486072 0.626749 -0.138054
C29   C     C_2   0.595620 0.687247 0.148071 0.635865
C30   C     C_2   0.341583 0.314809 0.764071 0.508115
C31   C     C_2   0.618717 0.659967 0.858183 0.386391
C32   C     C_3   0.917375 0.500267 0.497397 0.191288
C33   C     C_3   0.033735 0.609392 0.455384 -0.170244
C34   C     C_3   0.976049 0.514421 0.373545 -0.143051
C35   C     C_1   0.173608 0.500289 0.504653 -0.051557
C36   C     C_1   0.826410 0.500372 0.495383 -0.051032
C37   C     C_R   0.589654 0.138072 0.716547 -0.158984
H1    H     H_    0.050883 0.327585 0.356594 0.142242
H2    H     H_    0.045821 0.474503 0.730191 0.158107
H3    H     H_    0.474419 0.102439 0.292892 0.171651
H4    H     H_    0.460401 0.879428 0.301550 0.157573
H5    H     H_    0.574591 0.781850 0.146647 -0.026378
H6    H     H_    0.341713 0.257687 0.671920 0.026743
H7    H     H_    0.611534 0.685168 0.756694 0.149104
H8    H     H_    0.949132 0.672903 0.643709 0.152837
H9    H     H_    0.621179 0.229124 0.701689 0.161636
H10   H     H_    0.627241 0.139620 0.922207 0.146650
H11   H     H_    0.552373 0.935351 0.965495 0.131993
H12   H     H_    0.480035 0.817025 0.787793 0.164530
H13   H     H_    0.393467 0.318383 0.243670 0.201130
H14   H     H_    0.355241 0.122328 0.127919 0.149848
H15   H     H_    0.357090 0.110389 0.884881 0.141059
H16   H     H_    0.936449 0.301884 0.581310 0.143269
H17   H     H_    0.954248 0.525975 0.270078 0.153804
H18   H     H_    0.063547 0.698618 0.418988 0.141281
N1    N     N_R   0.499210 0.498800 0.142780 -0.159459
N2    N     N_R   0.499180 0.498720 0.857170 -0.166261
O1    O     O_R   0.500000 0.316780 0.614690 -0.653864
O2    O     O_2   0.281613 0.380194 0.790593 -0.582286
O3    O     O_2   0.685885 0.693863 0.910964 -0.567262
O4    O     O_R   0.499990 0.316750 0.385360 -0.641030
O5    O     O_R   0.376780 0.500000 0.614650 -0.585292
O6    O     O_R   0.376770 0.499980 0.385310 -0.643976
O7    O     O_R   0.500010 0.683250 0.614640 -0.668420
O8    O     O_R   0.500000 0.683220 0.385310 -0.627869
O9    O     O_R   0.623230 0.500020 0.614690 -0.649096
O10   O     O_R   0.623220 0.500000 0.385350 -0.552092
O11   O     O_2   0.661254 0.667557 0.204564 -0.527980
Zn1   Zn    Zn3+2 0.500010 0.500020 0.653130 0.931126
Zn2   Zn    Zn3+2 0.499990 0.499980 0.346870 0.959631

loop_
_geom_bond_atom_site_label_1
_geom_bond_atom_site_label_2
_ccdc_geom_bond_type
C31   O3    D    
C33   H18   S    
C4    C26   S    
C24   C25   S    
C24   C32   S    
O1    Zn1   S    
C21   N2    A    
C6    C7    A    
C23   H8    S    
C25   H1    S    
C24   H16   S    
C29   O11   D    
C24   C28   S    
C9    C10   A    
C12   C25   S    
C18   N2    A    
C22   C27   S    
C14   H14   S    
C2    C37   A    
O6    Zn2   S    
C25   C34   S    
C20   N1    A    
O10   Zn2   S    
C10   C11   A    
C30   O2    D    
C15   H15   S    
C33   C34   S    
C7    C37   A    
C7    C8    A    
O4    Zn2   S    
O7    Zn1   S    
C23   C32   S    
C12   C35   S    
C17   C30   S    
C21   C31   S    
C4    O6    A    
C5    H12   S    
C1    O1    A    
C12   C28   S    
C30   H6    S    
C32   C36   S    
C2    H10   S    
C37   H9    S    
C19   N1    A    
C17   C18   A    
N1    Zn2   S    
C20   C29   S    
N2    Zn1   S    
C5    C6    A    
C29   H5    S    
C22   O10   A    
O9    Zn1   S    
C23   C28   S    
C31   H7    S    
C13   C19   A    
O8    Zn2   S    
C1    C8    S    
C4    O5    A    
C3    H11   S    
C6    C11   A    
C20   C21   A    
C23   C33   S    
C18   C19   A    
C11   C16   S    
C26   C35   T    
C15   C17   A    
C34   H17   S    
C14   C15   A    
C22   O9    A    
C2    C3    A    
C16   O8    A    
C16   O7    A    
C28   H2    S    
C3    C5    A    
C12   C33   S    
C13   C14   A    
C27   C36   T    
C9    H3    S    
C13   H13   S    
O5    Zn1   S    
C32   C34   S    
C8    C9    A    
C10   H4    S    
C1    O4    A    
