data_mof_unit_49077.cif
_audit_creation_date              2012-12-10T18:31:54-0500
_audit_creation_method            fapswitch 2.2
_symmetry_space_group_name_H-M    P1
_symmetry_Int_Tables_number       1
_space_group_crystal_system       triclinic
_cell_length_a                    10.669115
_cell_length_b                    15.01776
_cell_length_c                    15.458593
_cell_angle_alpha                 82.67749
_cell_angle_beta                  89.683914
_cell_angle_gamma                 104.281006
_cell_volume                      2378.99393381

loop_
_atom_site_label
_atom_site_type_symbol
_atom_type_description
_atom_site_fract_x
_atom_site_fract_y
_atom_site_fract_z
_atom_type_partial_charge
C1    C     C_R   0.479450 0.442093 0.662178 0.843549
C2    C     C_3   0.121039 0.498412 0.500218 0.106352
C3    C     C_3   0.103030 0.586436 0.441578 -0.483326
C4    C     C_3   0.070317 0.499690 0.595341 0.021367
C5    C     C_R   0.446998 0.407553 0.754316 -0.061653
C6    C     C_R   0.503602 0.591180 0.245989 -0.061917
C7    C     C_R   0.358802 0.284007 0.870911 -0.198692
C8    C     C_R   0.398791 0.313107 0.783711 -0.201556
C9    C     C_R   0.452805 0.472217 0.811997 -0.248675
C10   C     C_R   0.406750 0.445436 0.898367 0.046451
C11   C     C_R   0.364213 0.349282 0.929783 0.149483
C12   C     C_R   0.742216 0.501481 0.496767 0.849054
C13   C     C_R   0.411283 0.512682 0.955199 0.064851
C14   C     C_R   0.399644 0.483499 0.045641 0.017589
C15   C     C_R   0.350787 0.388233 0.076128 -0.239827
C16   C     C_R   0.330365 0.321230 0.019179 0.185745
C17   C     C_R   0.429317 0.608283 0.924790 -0.219504
C18   C     C_R   0.452051 0.673955 0.982404 -0.242994
C19   C     C_R   0.463077 0.646478 0.070944 0.180712
C20   C     C_R   0.438918 0.550860 0.102725 0.108049
C21   C     C_R   0.500980 0.713111 0.127957 -0.211272
C22   C     C_R   0.520096 0.685490 0.215506 -0.203180
C23   C     C_R   0.515173 0.557764 0.337883 0.856548
C24   C     C_R   0.464715 0.525274 0.189311 -0.272732
C25   C     C_R   0.696894 0.848878 0.631370 -0.316627
C26   C     C_R   0.664922 0.758219 0.613429 0.365913
C27   C     C_R   0.513319 0.793069 0.509889 -0.119011
C28   C     C_R   0.542895 0.886673 0.526401 -0.005699
C29   C     C_R   0.637429 0.912933 0.588438 0.135218
C30   C     C_R   0.483359 0.954901 0.484218 0.093698
C31   C     C_R   0.519938 0.047365 0.506198 0.081876
C32   C     C_R   0.617094 0.069554 0.567044 -0.240171
C33   C     C_R   0.673866 0.003324 0.607512 -0.203786
C34   C     C_R   0.258195 0.499859 0.498674 0.863023
C35   C     C_R   0.389127 0.934231 0.421037 -0.244356
C36   C     C_R   0.332125 0.001591 0.380798 -0.213417
C37   C     C_R   0.365409 0.091335 0.402831 0.181980
C38   C     C_R   0.458803 0.115127 0.466333 -0.003879
C39   C     C_R   0.305604 0.157818 0.362168 -0.318282
C40   C     C_R   0.337930 0.246725 0.385435 0.012299
C41   C     C_R   0.485984 0.206409 0.487704 -0.066834
C42   C     C_3   0.901581 0.417042 0.450962 0.057755
C43   C     C_3   0.041916 0.411346 0.462544 -0.396435
C44   C     C_3   0.961962 0.592329 0.449020 -0.463964
C45   C     C_3   0.920729 0.489415 0.594863 -0.027569
C46   C     C_3   0.878382 0.499660 0.497539 0.121193
H1    H     H_    0.115056 0.569945 0.613168 0.147316
H2    H     H_    0.957137 0.650653 0.485725 0.185726
H3    H     H_    0.166615 0.650796 0.461159 0.187157
H4    H     H_    0.459292 0.453665 0.212938 0.163461
H5    H     H_    0.548280 0.737587 0.258920 0.158816
H6    H     H_    0.466911 0.746628 0.957039 0.144984
H7    H     H_    0.324517 0.210294 0.891498 0.150786
H8    H     H_    0.391765 0.261812 0.739474 0.160046
H9    H     H_    0.497236 0.544009 0.788968 0.165708
H10   H     H_    0.838423 0.350240 0.482700 0.170237
H11   H     H_    0.324522 0.364863 0.144324 0.146131
H12   H     H_    0.423454 0.633784 0.856765 0.149489
H13   H     H_    0.517327 0.786363 0.104604 0.136351
H14   H     H_    0.747616 0.023315 0.654290 0.140486
H15   H     H_    0.552653 0.231083 0.536278 0.126760
H16   H     H_    0.292588 0.298901 0.354495 0.124946
H17   H     H_    0.260551 0.983032 0.332376 0.144247
H18   H     H_    0.769261 0.869491 0.678980 0.151388
H19   H     H_    0.443727 0.767024 0.463296 0.135559
H20   H     H_    0.043609 0.347353 0.507013 0.163001
H21   H     H_    0.653231 0.137857 0.584969 0.132870
H22   H     H_    0.357354 0.866489 0.400832 0.136321
H23   H     H_    0.234502 0.141166 0.313090 0.140236
H24   H     H_    0.087274 0.405027 0.399201 0.182914
H25   H     H_    0.925768 0.608581 0.383019 0.190182
H26   H     H_    0.129916 0.583967 0.372401 0.185712
H27   H     H_    0.901887 0.548421 0.625443 0.141486
N1    N     N_R   0.573860 0.731700 0.552730 -0.098920
N2    N     N_R   0.426060 0.268290 0.447230 -0.098800
O1    O     O_R   0.462770 0.383110 0.605620 -0.614207
O2    O     O_R   0.510160 0.531900 0.639510 -0.623631
O3    O     O_R   0.661510 0.425600 0.483070 -0.625012
O4    O     O_R   0.708900 0.574390 0.516960 -0.631944
O5    O     O_R   0.489840 0.468100 0.360490 -0.625422
O6    O     O_R   0.537230 0.616890 0.394380 -0.615851
O7    O     O_R   0.291100 0.425610 0.483040 -0.624928
O8    O     O_R   0.338490 0.574400 0.516930 -0.629651
Zn1   Zn    Zn3+2 0.468350 0.400660 0.477370 0.926834
Zn2   Zn    Zn3+2 0.531650 0.599340 0.522630 0.928397
C47   C     C_3   0.869885 0.423611 0.352975 -0.917330
H28   H     H_    0.940418 0.481343 0.313344 0.247312
H29   H     H_    0.874258 0.358213 0.328033 0.238914
H30   H     H_    0.771495 0.433597 0.341737 0.261726
C48   C     C_3   0.277861 0.220609 0.055962 -0.945573
H31   H     H_    0.255136 0.211681 0.127246 0.239684
H32   H     H_    0.187266 0.191130 0.023509 0.241157
H33   H     H_    0.350476 0.180973 0.045318 0.242316
C49   C     C_3   0.736863 0.695076 0.663502 -0.888807
H34   H     H_    0.710770 0.623469 0.650806 0.289755
H35   H     H_    0.842314 0.722023 0.648087 0.209895
H36   H     H_    0.719336 0.693859 0.734607 0.211982
C50   C     C_3   0.838912 0.400818 0.650942 -0.918908
H37   H     H_    0.859794 0.402772 0.720980 0.252265
H38   H     H_    0.733956 0.396177 0.646308 0.235574
H39   H     H_    0.858132 0.336940 0.630995 0.243820
C51   C     C_3   0.115015 0.432241 0.665633 -0.880654
H40   H     H_    0.082063 0.359233 0.653038 0.248999
H41   H     H_    0.221862 0.450328 0.667804 0.234717
H42   H     H_    0.079095 0.438741 0.731450 0.246626

loop_
_geom_bond_atom_site_label_1
_geom_bond_atom_site_label_2
_ccdc_geom_bond_type
C26   C49   S    
C16   C48   S    
C1    O2    A    
C19   C20   A    
C41   H15   S    
O5    Zn1   S    
O1    Zn1   S    
C3    H3    S    
C18   H6    S    
C7    C8    A    
C45   C46   S    
C7    C11   A    
C30   C35   A    
C51   H42   S    
C1    C5    S    
C36   C37   A    
C19   C21   A    
C21   H13   S    
C45   C50   S    
C30   C31   A    
C47   H29   S    
N2    Zn1   S    
C15   C16   A    
C6    C22   A    
C12   O4    A    
C29   C33   A    
C40   H16   S    
C44   H25   S    
C45   H27   S    
C18   C19   A    
C42   C46   S    
C42   H10   S    
C20   C24   A    
C4    C51   S    
C42   C47   S    
C23   O5    A    
C36   H17   S    
C9    C10   A    
C17   H12   S    
C49   H35   S    
C2    C34   S    
O2    Zn2   S    
C21   C22   A    
C25   C29   A    
C15   H11   S    
C51   H40   S    
C44   C46   S    
C4    C45   S    
C24   H4    S    
C3    C44   S    
C14   C20   A    
C38   C41   A    
C12   C46   S    
C8    H8    S    
C39   C40   A    
C47   H28   S    
C49   H36   S    
C25   C26   A    
C47   H30   S    
C12   O3    A    
C25   H18   S    
C2    C4    S    
C5    C9    A    
C37   C38   A    
C27   H19   S    
C41   N2    A    
C11   C16   A    
C48   H32   S    
C31   C32   A    
C2    C43   S    
C6    C24   A    
C17   C18   A    
C39   H23   S    
C51   H41   S    
C32   H21   S    
C9    H9    S    
O8    Zn2   S    
C33   H14   S    
C50   H38   S    
C42   C43   S    
C7    H7    S    
C27   N1    A    
O4    Zn2   S    
C48   H33   S    
C28   C29   A    
C23   O6    A    
C1    O1    A    
C10   C13   A    
C5    C8    A    
C40   N2    A    
C43   H24   S    
C50   H39   S    
O7    Zn1   S    
C31   C38   A    
C13   C17   A    
C32   C33   A    
C28   C30   A    
C2    C3    S    
C37   C39   A    
C48   H31   S    
C35   H22   S    
C43   H20   S    
C6    C23   S    
C26   N1    A    
C3    H26   S    
N1    Zn2   S    
C49   H34   S    
C10   C11   A    
O3    Zn1   S    
C50   H37   S    
C34   O8    A    
C27   C28   A    
C14   C15   A    
C35   C36   A    
C34   O7    A    
C13   C14   A    
O6    Zn2   S    
C44   H2    S    
C22   H5    S    
C4    H1    S    
