data_mof_unit_9090.cif
_audit_creation_date              2012-12-10T17:11:11-0500
_audit_creation_method            fapswitch 2.2
_symmetry_space_group_name_H-M    P1
_symmetry_Int_Tables_number       1
_space_group_crystal_system       triclinic
_cell_length_a                    10.028003
_cell_length_b                    10.933547
_cell_length_c                    16.397662
_cell_angle_alpha                 89.290671
_cell_angle_beta                  86.013443
_cell_angle_gamma                 88.851784
_cell_volume                      1793.04752294

loop_
_atom_site_label
_atom_site_type_symbol
_atom_type_description
_atom_site_fract_x
_atom_site_fract_y
_atom_site_fract_z
_atom_type_partial_charge
C1    C     C_R   0.497491 0.735398 0.506082 0.782008
C2    C     C_R   0.524239 0.560646 0.263352 -0.142238
C3    C     C_2   0.602836 0.063782 0.510942 0.396698
C4    C     C_R   0.482185 0.502208 0.654266 0.928397
C5    C     C_2   0.499557 0.139968 0.534795 0.273685
C6    C     C_2   0.587883 0.931745 0.501075 -0.357739
C7    C     C_2   0.490144 0.859899 0.532060 0.329922
C8    C     C_2   0.082197 0.467057 0.437807 -0.123323
C9    C     C_2   0.933620 0.445824 0.445058 0.030223
C10   C     C_R   0.500889 0.264209 0.505590 0.855193
C11   C     C_R   0.517317 0.509263 0.346282 0.922377
C12   C     C_R   0.369997 0.618667 0.766282 -0.352121
C13   C     C_R   0.470122 0.532316 0.741152 -0.257684
C14   C     C_R   0.559970 0.487730 0.797828 0.421835
C15   C     C_R   0.551153 0.535592 0.876174 -0.271847
C16   C     C_R   0.453666 0.623563 0.899919 0.001120
C17   C     C_R   0.359959 0.663808 0.845592 0.539485
C18   C     C_3   0.805776 0.488557 0.066499 0.110694
C19   C     C_3   0.945935 0.458200 0.093051 -0.346256
C20   C     C_3   0.991454 0.329429 0.067522 -0.913625
C21   C     C_3   0.832515 0.078791 0.510299 0.022315
C22   C     C_3   0.839673 0.146545 0.591133 -0.279089
C23   C     C_R   0.423147 0.696636 0.164269 0.429554
C24   C     C_3   0.974034 0.125936 0.627502 -0.927668
C25   C     C_3   0.360370 0.168338 0.653216 0.088357
C26   C     C_3   0.407163 0.093909 0.726161 -0.272626
C27   C     C_3   0.367101 0.157599 0.806764 -0.781691
C28   C     C_3   0.267805 0.865192 0.589686 0.217385
C29   C     C_3   0.213631 0.911922 0.508216 -0.374896
C30   C     C_3   0.090107 0.842556 0.488870 -0.934549
C31   C     C_3   0.877829 0.608436 0.612473 0.194452
C32   C     C_3   0.792466 0.719843 0.641925 -0.405860
C33   C     C_3   0.814707 0.750669 0.730334 -0.779538
C34   C     C_R   0.414659 0.629539 0.238207 -0.337046
C35   C     C_3   0.216229 0.803014 0.194463 0.133284
C36   C     C_3   0.100362 0.713179 0.196114 -0.371505
C37   C     C_3   0.999498 0.736145 0.268510 -0.902887
C38   C     C_R   0.644291 0.558651 0.214935 -0.315150
C39   C     C_R   0.652035 0.615474 0.137878 0.456085
C40   C     C_R   0.540567 0.682866 0.112245 -0.137120
C41   C     C_2   0.438912 0.653201 0.986245 -0.182623
C42   C     C_2   0.533637 0.710721 0.024527 0.516069
H1    H     H_    0.660515 0.892894 0.455568 0.160548
H2    H     H_    0.725070 0.293982 0.897842 0.359848
H3    H     H_    0.808340 0.482726 0.998864 0.187984
H4    H     H_    0.734335 0.417980 0.091337 0.104065
H5    H     H_    0.017701 0.524968 0.064523 0.263022
H6    H     H_    0.946552 0.465341 0.160544 0.204389
H7    H     H_    0.922818 0.260610 0.096637 0.271284
H8    H     H_    0.093642 0.310670 0.087262 0.263890
H9    H     H_    0.993649 0.320777 0.000002 0.280226
H10   H     H_    0.920467 0.103724 0.468930 0.177172
H11   H     H_    0.839724 0.978574 0.520624 0.141988
H12   H     H_    0.136613 0.449219 0.379573 0.146671
H13   H     H_    0.824312 0.246231 0.580579 0.266554
H14   H     H_    0.760024 0.112663 0.635690 0.244125
H15   H     H_    0.992323 0.026859 0.638640 0.262547
H16   H     H_    0.974008 0.174299 0.686652 0.303099
H17   H     H_    0.055186 0.163092 0.585417 0.251058
H18   H     H_    0.250954 0.184725 0.662889 0.162030
H19   H     H_    0.406351 0.259803 0.652949 0.141770
H20   H     H_    0.361006 0.002603 0.728831 0.275784
H21   H     H_    0.517540 0.081047 0.719460 0.247269
H22   H     H_    0.403562 0.252745 0.805657 0.277736
H23   H     H_    0.098291 0.491726 0.555745 0.191333
H24   H     H_    0.410726 0.106675 0.857848 0.310893
H25   H     H_    0.256527 0.159873 0.817858 0.244606
H26   H     H_    0.207517 0.911936 0.639788 0.161644
H27   H     H_    0.248053 0.767038 0.602067 0.151440
H28   H     H_    0.187258 0.010658 0.512971 0.239878
H29   H     H_    0.287496 0.901696 0.455091 0.216558
H30   H     H_    0.117853 0.746556 0.473270 0.306176
H31   H     H_    0.043702 0.886268 0.436038 0.254711
H32   H     H_    0.017417 0.843076 0.542629 0.262424
H33   H     H_    0.977920 0.617498 0.636518 0.119353
H34   H     H_    0.893393 0.383203 0.402674 0.101534
H35   H     H_    0.835763 0.523048 0.639860 0.199748
H36   H     H_    0.816157 0.800808 0.602885 0.216981
H37   H     H_    0.684995 0.702211 0.638695 0.247951
H38   H     H_    0.790744 0.670777 0.770755 0.308339
H39   H     H_    0.748441 0.828887 0.750120 0.271537
H40   H     H_    0.920091 0.776686 0.736116 0.286634
H41   H     H_    0.653466 0.945068 0.878962 0.385129
H42   H     H_    0.208801 0.932250 0.947927 0.385320
H43   H     H_    0.176903 0.893947 0.175526 0.172702
H44   H     H_    0.253416 0.818284 0.255868 0.117225
H45   H     H_    0.323800 0.631272 0.277556 0.175353
H46   H     H_    0.048938 0.723619 0.138453 0.275970
H47   H     H_    0.138570 0.617371 0.199642 0.208196
H48   H     H_    0.047262 0.718712 0.326715 0.264043
H49   H     H_    0.914489 0.673165 0.265726 0.276603
H50   H     H_    0.960477 0.831893 0.267098 0.271716
H51   H     H_    0.731220 0.510873 0.236095 0.164155
H52   H     H_    0.300046 0.652203 0.723484 0.199439
H53   H     H_    0.362682 0.601616 0.021409 0.143716
H54   H     H_    0.617260 0.500133 0.920651 0.165610
N1    N     N_2   0.147950 0.498670 0.499150 -0.191615
N2    N     N_2   0.852290 0.498640 0.499130 0.059765
O1    O     O_R   0.386960 0.680940 0.500010 -0.627581
O2    O     O_2   0.814981 0.411691 0.771493 -0.351314
O3    O     O_3   0.661620 0.265519 0.858787 -0.550569
O4    O     O_3   0.769912 0.610478 0.088413 -0.579732
O5    O     O_3   0.716495 0.113328 0.470523 -0.653886
O6    O     O_3   0.384372 0.103100 0.578870 -0.639719
O7    O     O_3   0.404592 0.891617 0.599022 -0.623037
O8    O     O_3   0.896335 0.606284 0.525993 -0.568560
O9    O     O_2   0.716227 0.885358 0.030543 -0.263903
O10   O     O_2   0.764015 0.722028 0.931113 -0.269102
O11   O     O_3   0.584275 0.886584 0.899209 -0.528436
O12   O     O_R   0.613100 0.680900 0.499990 -0.604761
O13   O     O_2   0.167431 0.822232 0.802239 -0.364578
O14   O     O_2   0.123918 0.700563 0.927547 -0.275040
O15   O     O_3   0.288078 0.880701 0.931121 -0.497963
O16   O     O_3   0.318159 0.767408 0.134968 -0.621176
O17   O     O_R   0.373570 0.500040 0.615810 -0.642218
O18   O     O_R   0.599710 0.500000 0.615790 -0.591315
O19   O     O_R   0.386900 0.319100 0.500010 -0.613780
O20   O     O_R   0.613040 0.319060 0.499990 -0.589293
O21   O     O_R   0.400290 0.500000 0.384210 -0.620132
O22   O     O_R   0.626430 0.499960 0.384190 -0.608349
O23   O     O_2   0.647854 0.297547 0.703244 -0.363721
S1    S     S_3+6 0.674928 0.364521 0.779317 -0.037822
S2    S     S_3+6 0.655913 0.802276 0.971315 0.082515
S3    S     S_3+6 0.228822 0.767907 0.875844 0.034967
Zn1   Zn    Zn3+2 0.349000 0.500030 0.500020 0.920975
Zn2   Zn    Zn3+2 0.651000 0.499970 0.499980 1.007349

loop_
_geom_bond_atom_site_label_1
_geom_bond_atom_site_label_2
_ccdc_geom_bond_type
C36   H47   S    
C8    C9    S    
C9    N2    D    
C14   S1    S    
C41   C42   D    
C4    O17   A    
C19   C20   S    
O9    S2    D    
C26   H21   S    
C3    C6    S    
C11   O21   A    
C1    O1    A    
O1    Zn1   S    
C36   H46   S    
C26   C27   S    
H42   O15   S    
C37   H48   S    
C36   C37   S    
C28   H26   S    
O14   S3    D    
C20   H9    S    
C38   C39   A    
C30   H32   S    
C35   H44   S    
O22   Zn2   S    
C11   O22   A    
C23   C40   A    
C35   O16   S    
C18   C19   S    
C18   O4    S    
C4    C13   S    
C20   H8    S    
C28   H27   S    
C16   C17   A    
C12   C17   A    
C7    O7    S    
C25   H18   S    
C33   H40   S    
C2    C34   A    
C40   C42   S    
C5    O6    S    
O18   Zn2   S    
C13   C14   A    
C12   H52   S    
C2    C11   S    
C18   H4    S    
C42   S2    S    
C31   H35   S    
C37   H49   S    
N1    Zn1   S    
C8    H12   S    
C39   C40   A    
C30   H31   S    
C19   H6    S    
C24   H15   S    
C22   H14   S    
C25   C26   S    
C35   C36   S    
C8    N1    D    
C29   C30   S    
C10   O20   A    
C1    O12   A    
C20   H7    S    
C2    C38   A    
C17   S3    S    
C31   H33   S    
C31   C32   S    
C28   O7    S    
C23   C34   A    
H41   O11   S    
C25   O6    S    
C25   H19   S    
O23   S1    D    
C22   H13   S    
O12   Zn2   S    
O21   Zn1   S    
C9    H34   S    
C6    H1    S    
C31   O8    S    
C22   C24   S    
O10   S2    D    
C18   H3    S    
C15   H54   S    
C39   O4    S    
C29   H28   S    
C3    O5    S    
C28   C29   S    
C37   H50   S    
O13   S3    D    
C1    C7    S    
C4    O18   A    
O11   S2    S    
C3    C5    D    
O17   Zn1   S    
C30   H30   S    
H2    O3    S    
C33   H38   S    
C6    C7    D    
O3    S1    S    
N2    O8    S    
C32   C33   S    
C26   H20   S    
H23   N1    S    
C5    C10   S    
C10   O19   A    
C23   O16   S    
C21   H11   S    
C35   H43   S    
C41   H53   S    
O15   S3    S    
C33   H39   S    
C24   H17   S    
C38   H51   S    
O2    S1    D    
C34   H45   S    
C27   H25   S    
C27   H22   S    
C32   H36   S    
C21   O5    S    
N2    Zn2   S    
C12   C13   A    
C24   H16   S    
C19   H5    S    
C27   H24   S    
C14   C15   A    
O20   Zn2   S    
C29   H29   S    
C21   C22   S    
O19   Zn1   S    
C16   C41   S    
C21   H10   S    
C15   C16   A    
C32   H37   S    
