data_mof_unit_30878.cif
_audit_creation_date              2012-12-10T19:09:33-0500
_audit_creation_method            fapswitch 2.2
_symmetry_space_group_name_H-M    P1
_symmetry_Int_Tables_number       1
_space_group_crystal_system       triclinic
_cell_length_a                    15.108867
_cell_length_b                    15.168183
_cell_length_c                    9.825066
_cell_angle_alpha                 88.330941
_cell_angle_beta                  90.000836
_cell_angle_gamma                 89.999778
_cell_volume                      2250.69496375

loop_
_atom_site_label
_atom_site_type_symbol
_atom_type_description
_atom_site_fract_x
_atom_site_fract_y
_atom_site_fract_z
_atom_type_partial_charge
C1    C     C_R   0.123574 0.381935 0.501593 0.858969
C2    C     C_R   0.119355 0.622475 0.498913 0.851120
C3    C     C_R   0.619356 0.877526 0.501088 0.851118
C4    C     C_R   0.623584 0.118053 0.498410 0.858960
C5    C     C_3   0.921879 0.550128 0.078575 -0.318204
C6    C     C_3   0.928485 0.559219 0.916445 -0.316883
C7    C     C_3   0.428484 0.940784 0.083553 -0.316876
C8    C     C_3   0.421888 0.949858 0.921421 -0.318200
C9    C     C_R   0.878781 0.378626 0.501056 0.823313
C10   C     C_R   0.877314 0.619514 0.499361 0.833173
C11   C     C_R   0.377313 0.880488 0.500638 0.833189
C12   C     C_R   0.378784 0.121376 0.498941 0.823344
C13   C     C_3   0.834294 0.232640 0.607411 -0.159810
C14   C     C_3   0.802850 0.270691 0.353792 -0.147796
C15   C     C_3   0.850162 0.780052 0.468497 -0.160034
C16   C     C_3   0.762452 0.689672 0.643701 -0.143193
C17   C     C_3   0.350164 0.719948 0.531468 -0.160030
C18   C     C_3   0.262432 0.810347 0.356310 -0.143199
C19   C     C_3   0.334349 0.267420 0.392713 -0.159842
C20   C     C_3   0.302769 0.229224 0.646243 -0.147802
C21   C     C_3   0.276848 0.649023 0.535938 -0.425577
C22   C     C_3   0.193303 0.736478 0.354843 -0.429677
C23   C     C_3   0.266937 0.342685 0.404119 -0.421655
C24   C     C_3   0.239243 0.307415 0.644224 -0.412912
C25   C     C_3   0.766912 0.157353 0.595984 -0.421679
C26   C     C_3   0.739311 0.192508 0.355825 -0.412928
C27   C     C_3   0.776844 0.850976 0.464022 -0.425572
C28   C     C_3   0.693329 0.763546 0.645171 -0.429692
C29   C     C_3   0.719485 0.347709 0.540021 -0.393428
C30   C     C_3   0.736177 0.667977 0.391195 -0.388938
C31   C     C_3   0.236189 0.832014 0.608829 -0.388913
C32   C     C_3   0.219507 0.152312 0.459794 -0.393312
C33   C     C_3   0.810561 0.309320 0.501408 0.054281
C34   C     C_3   0.807946 0.687327 0.499539 0.075142
C35   C     C_3   0.307944 0.812676 0.500461 0.075128
C36   C     C_3   0.310561 0.190680 0.498583 0.054247
C37   C     C_3   0.186720 0.691375 0.497834 0.134257
C38   C     C_3   0.192957 0.315201 0.504642 0.116586
C39   C     C_3   0.692969 0.184787 0.495363 0.116588
C40   C     C_3   0.686722 0.808628 0.502168 0.134266
C41   C     C_3   0.162678 0.762336 0.602949 -0.399409
C42   C     C_3   0.149657 0.225382 0.469024 -0.385659
C43   C     C_3   0.649649 0.274623 0.530829 -0.385622
C44   C     C_3   0.662664 0.737653 0.397084 -0.399406
C45   C     C_3   0.992687 0.408823 0.083645 -0.098103
C46   C     C_3   0.976789 0.411926 0.924801 -0.102500
C47   C     C_3   0.083247 0.535351 0.918329 -0.091985
C48   C     C_3   0.077889 0.546498 0.078351 -0.089949
C49   C     C_3   0.583246 0.964648 0.081674 -0.091961
C50   C     C_3   0.577897 0.953519 0.921649 -0.089944
C51   C     C_3   0.492652 0.091173 0.916353 -0.098092
C52   C     C_3   0.476793 0.088076 0.075209 -0.102527
H1    H     H_    0.901923 0.207388 0.586229 0.116868
H2    H     H_    0.869176 0.247329 0.320797 0.125308
H3    H     H_    0.896883 0.795226 0.552293 0.113302
H4    H     H_    0.813135 0.704417 0.722171 0.131574
H5    H     H_    0.396877 0.704785 0.447658 0.113306
H6    H     H_    0.313104 0.795605 0.277824 0.131578
H7    H     H_    0.401956 0.292674 0.414048 0.116806
H8    H     H_    0.369078 0.252562 0.679367 0.125365
H9    H     H_    0.293465 0.596562 0.463162 0.157082
H10   H     H_    0.213741 0.687705 0.278518 0.177236
H11   H     H_    0.301325 0.403211 0.438043 0.146864
H12   H     H_    0.278666 0.367977 0.660505 0.177231
H13   H     H_    0.801334 0.096826 0.562142 0.146899
H14   H     H_    0.778725 0.131929 0.339625 0.177185
H15   H     H_    0.793470 0.903450 0.536773 0.157057
H16   H     H_    0.713784 0.812330 0.721469 0.177233
H17   H     H_    0.271788 0.616134 0.638670 0.184104
H18   H     H_    0.126862 0.761509 0.322863 0.188034
H19   H     H_    0.237915 0.361990 0.304525 0.227060
H20   H     H_    0.191137 0.302075 0.728682 0.224497
H21   H     H_    0.737858 0.138067 0.695559 0.227066
H22   H     H_    0.691227 0.197832 0.271333 0.224524
H23   H     H_    0.771768 0.883849 0.361280 0.184125
H24   H     H_    0.626892 0.738523 0.677187 0.188047
H25   H     H_    0.720661 0.373267 0.644778 0.204883
H26   H     H_    0.701337 0.404529 0.471446 0.168592
H27   H     H_    0.765588 0.669179 0.287306 0.185442
H28   H     H_    0.707535 0.601033 0.408891 0.167272
H29   H     H_    0.265614 0.830805 0.712710 0.185447
H30   H     H_    0.207541 0.898958 0.591154 0.167294
H31   H     H_    0.220740 0.126831 0.354989 0.204895
H32   H     H_    0.201332 0.095444 0.528253 0.168602
H33   H     H_    0.154110 0.731834 0.706513 0.178405
H34   H     H_    0.098911 0.794605 0.574129 0.162932
H35   H     H_    0.112811 0.230750 0.371537 0.190675
H36   H     H_    0.100528 0.206255 0.548966 0.173954
H37   H     H_    0.612770 0.269303 0.628287 0.190663
H38   H     H_    0.600547 0.293703 0.450825 0.173995
H39   H     H_    0.654075 0.768141 0.293515 0.178400
H40   H     H_    0.598904 0.705384 0.425939 0.162939
H41   H     H_    0.935375 0.374690 0.132085 0.132838
H42   H     H_    0.904778 0.401975 0.912200 0.142068
H43   H     H_    0.094792 0.602232 0.872304 0.112734
H44   H     H_    0.070632 0.618568 0.095264 0.107776
H45   H     H_    0.594779 0.897759 0.127682 0.112729
H46   H     H_    0.570658 0.881449 0.904720 0.107776
H47   H     H_    0.435305 0.125271 0.867947 0.132808
H48   H     H_    0.404786 0.098046 0.087864 0.142039
H49   H     H_    0.858871 0.517043 0.107987 0.179962
H50   H     H_    0.863184 0.543585 0.870895 0.183927
H51   H     H_    0.942010 0.629163 0.885697 0.156943
H52   H     H_    0.918339 0.616992 0.121580 0.183295
H53   H     H_    0.442001 0.870840 0.114319 0.156950
H54   H     H_    0.418369 0.882989 0.878428 0.183281
H55   H     H_    0.358873 0.982923 0.891990 0.179957
H56   H     H_    0.363181 0.956427 0.129086 0.183901
N1    N     N_3   0.998760 0.500000 0.138610 -0.080383
N2    N     N_3   0.998760 0.500000 0.861390 -0.083844
N3    N     N_3   0.498760 0.000000 0.138610 -0.083859
N4    N     N_3   0.498760 0.000000 0.861390 -0.080394
O1    O     O_R   0.092530 0.407440 0.616040 -0.617004
O2    O     O_R   0.092530 0.407440 0.383960 -0.620671
O3    O     O_R   0.092530 0.592560 0.383960 -0.624210
O4    O     O_R   0.092530 0.592560 0.616040 -0.642272
O5    O     O_R   0.592530 0.907440 0.616040 -0.624221
O6    O     O_R   0.592530 0.907440 0.383960 -0.642271
O7    O     O_R   0.592530 0.092560 0.383960 -0.617017
O8    O     O_R   0.592530 0.092560 0.616040 -0.620657
O9    O     O_R   0.907330 0.407420 0.616040 -0.616975
O10   O     O_R   0.907330 0.407420 0.383960 -0.633572
O11   O     O_R   0.907330 0.592580 0.383960 -0.621149
O12   O     O_R   0.907330 0.592580 0.616040 -0.639862
O13   O     O_R   0.407330 0.907420 0.616040 -0.621146
O14   O     O_R   0.407330 0.907420 0.383960 -0.639864
O15   O     O_R   0.407330 0.092580 0.383960 -0.616991
O16   O     O_R   0.407330 0.092580 0.616040 -0.633581
Zn1   Zn    Zn3+2 0.999890 0.500000 0.654960 0.931844
Zn2   Zn    Zn3+2 0.999890 0.500000 0.345040 0.935860
Zn3   Zn    Zn3+2 0.499890 0.000000 0.654960 0.935862
Zn4   Zn    Zn3+2 0.499890 0.000000 0.345040 0.931829
C53   C     C_1   0.830576 0.258039 0.751342 0.242510
N5    N     N_1   0.823191 0.273324 0.865364 -0.220676
C54   C     C_1   0.771081 0.336103 0.249296 0.219642
N6    N     N_1   0.745557 0.386547 0.167831 -0.224978
C55   C     C_1   0.902127 0.784278 0.340822 0.163561
N7    N     N_1   0.942793 0.787727 0.240992 -0.234334
C56   C     C_1   0.720990 0.604688 0.685289 0.163562
N8    N     N_1   0.688250 0.538554 0.718437 -0.230587
C57   C     C_1   0.402143 0.715709 0.659132 0.163550
N9    N     N_1   0.442819 0.712250 0.758954 -0.234325
C58   C     C_1   0.220971 0.895338 0.314750 0.163553
N10   N     N_1   0.188232 0.961477 0.281625 -0.230621
C59   C     C_1   0.330745 0.242103 0.248739 0.242475
N11   N     N_1   0.323449 0.226889 0.134677 -0.220756
C60   C     C_1   0.270940 0.163755 0.750608 0.219603
N12   N     N_1   0.245372 0.113262 0.831969 -0.225046
C61   C     C_1   0.069737 0.352803 0.118309 0.205561
N13   N     N_1   0.129569 0.306951 0.139236 -0.212041
C62   C     C_1   0.014071 0.336344 0.853320 0.258410
N14   N     N_1   0.040069 0.274225 0.800714 -0.237807
C63   C     C_1   0.161228 0.484369 0.878596 0.215674
N15   N     N_1   0.225110 0.446547 0.853475 -0.241035
C64   C     C_1   0.161550 0.525697 0.149960 0.234291
N16   N     N_1   0.228450 0.512034 0.203707 -0.251452
C65   C     C_1   0.661236 0.015608 0.121441 0.215645
N17   N     N_1   0.725129 0.053405 0.146597 -0.241084
C66   C     C_1   0.661553 0.974342 0.850049 0.234269
N18   N     N_1   0.728452 0.988017 0.796309 -0.251478
C67   C     C_1   0.569653 0.147239 0.881622 0.205631
N19   N     N_1   0.629440 0.193138 0.860645 -0.212047
C68   C     C_1   0.514132 0.163644 0.146660 0.258535
N20   N     N_1   0.540176 0.225756 0.199235 -0.237757

loop_
_geom_bond_atom_site_label_1
_geom_bond_atom_site_label_2
_ccdc_geom_bond_type
C16   C28   S    
O16   Zn3   S    
C65   N17   T    
O8    Zn3   S    
C6    N2    S    
C68   N20   T    
C45   H41   S    
C14   C33   S    
C59   N11   T    
C7    C8    S    
C12   O15   A    
C45   C46   S    
C41   H34   S    
C19   C59   S    
C31   H30   S    
O1    Zn1   S    
C32   C36   S    
C18   C58   S    
C11   O13   A    
C38   C42   S    
C10   O12   A    
C19   C36   S    
C8    N4    S    
C5    C6    S    
C45   N1    S    
C26   C39   S    
C14   C54   S    
C28   C40   S    
C58   N10   T    
C29   C33   S    
N2    Zn1   S    
C17   C57   S    
C20   C24   S    
O15   Zn4   S    
C3    O5    A    
C16   C34   S    
C2    O4    A    
C18   H6    S    
C29   H26   S    
C60   N12   T    
C9    O9    A    
C62   N14   T    
C7    H53   S    
C4    O7    A    
C51   C67   S    
C12   C36   S    
C48   H44   S    
C18   C35   S    
C15   C34   S    
C21   H9    S    
C44   H40   S    
C49   N3    S    
C30   H28   S    
C23   H11   S    
C46   C62   S    
C5    H52   S    
C24   H12   S    
C29   C43   S    
C9    C33   S    
O2    Zn2   S    
C30   C44   S    
C1    O1    A    
C27   H23   S    
C67   N19   T    
C13   H1    S    
C51   H47   S    
C15   C27   S    
C32   H32   S    
C5    H49   S    
C50   H46   S    
C43   H38   S    
C30   C34   S    
C51   C52   S    
C26   H14   S    
C47   C48   S    
C23   H19   S    
C54   N6    T    
C11   O14   A    
C25   H13   S    
C49   C65   S    
C45   C61   S    
C10   O11   A    
C39   C43   S    
C47   C63   S    
C52   N3    S    
C19   H7    S    
C22   C37   S    
C52   H48   S    
C17   C21   S    
C21   H17   S    
C15   H3    S    
C19   C23   S    
C16   H4    S    
C13   C33   S    
C3    O6    A    
C22   H10   S    
C2    O3    A    
O13   Zn3   S    
C24   C38   S    
C66   N18   T    
C46   H42   S    
C4    C39   S    
O14   Zn4   S    
C27   C40   S    
C50   N4    S    
O7    Zn4   S    
C20   C60   S    
C29   H25   S    
C10   C34   S    
C27   H15   S    
C43   H37   S    
C6    H51   S    
C14   C26   S    
C44   H39   S    
C1    C38   S    
C30   H27   S    
C14   H2    S    
C48   C64   S    
C3    C40   S    
C46   N2    S    
O11   Zn2   S    
C53   N5    T    
C31   C35   S    
C16   C56   S    
C42   H36   S    
C1    O2    A    
C9    O10   A    
C47   N2    S    
C8    H55   S    
N1    Zn2   S    
C22   H18   S    
C24   H20   S    
C32   H31   S    
C32   C42   S    
C31   C41   S    
C28   H16   S    
C18   C22   S    
C13   C53   S    
O9    Zn1   S    
C13   C25   S    
C8    H54   S    
C56   N8    T    
C12   O16   A    
C50   C66   S    
C23   C38   S    
C41   H33   S    
C55   N7    T    
C31   H29   S    
C11   C35   S    
C63   N15   T    
C61   N13   T    
C25   C39   S    
C2    C37   S    
O4    Zn1   S    
C5    N1    S    
C26   H22   S    
C7    N3    S    
O12   Zn1   S    
C48   N1    S    
C25   H21   S    
C6    H50   S    
N4    Zn3   S    
C37   C41   S    
O5    Zn3   S    
O6    Zn4   S    
C51   N4    S    
C52   C68   S    
C49   H45   S    
C20   C36   S    
N3    Zn4   S    
C40   C44   S    
C21   C37   S    
C49   C50   S    
C64   N16   T    
C47   H43   S    
C7    H56   S    
C4    O8    A    
C42   H35   S    
C17   C35   S    
C20   H8    S    
C57   N9    T    
O10   Zn2   S    
C17   H5    S    
C15   C55   S    
O3    Zn2   S    
C28   H24   S    
