data_mof_unit_34967.cif
_audit_creation_date              2012-12-10T16:53:10-0500
_audit_creation_method            fapswitch 2.2
_symmetry_space_group_name_H-M    P1
_symmetry_Int_Tables_number       1
_space_group_crystal_system       triclinic
_cell_length_a                    10.860242
_cell_length_b                    10.940627
_cell_length_c                    9.667424
_cell_angle_alpha                 89.957866
_cell_angle_beta                  89.012627
_cell_angle_gamma                 89.92256
_cell_volume                      1148.4907039

loop_
_atom_site_label
_atom_site_type_symbol
_atom_type_description
_atom_site_fract_x
_atom_site_fract_y
_atom_site_fract_z
_atom_type_partial_charge
C1    C     C_R   0.501820 0.265309 0.500093 0.841478
C2    C     C_R   0.058176 0.477788 0.633345 0.045780
C3    C     C_R   0.126501 0.504467 0.509202 -0.107888
C4    C     C_R   0.064428 0.519180 0.384428 -0.197365
C5    C     C_R   0.937803 0.509391 0.380578 -0.195256
C6    C     C_R   0.871022 0.475240 0.499187 -0.115530
C7    C     C_2   0.509272 0.933007 0.386799 -0.151427
C8    C     C_2   0.494186 0.866612 0.502373 -0.317786
C9    C     C_2   0.505483 0.066975 0.386462 -0.163045
C10   C     C_2   0.507749 0.133426 0.502756 -0.318535
C11   C     C_2   0.552440 0.416766 0.921301 -0.074017
C12   C     C_R   0.261629 0.503952 0.502431 0.805009
C13   C     C_2   0.558089 0.420667 0.076788 -0.076337
C14   C     C_R   0.499032 0.734697 0.500070 0.862005
C15   C     C_R   0.737185 0.489047 0.499229 0.797169
C16   C     C_R   0.106610 0.484846 0.768700 -0.266883
C17   C     C_R   0.042500 0.436208 0.883217 0.504556
C18   C     C_R   0.928023 0.382644 0.864430 -0.207323
C19   C     C_R   0.874288 0.385531 0.734925 -0.237509
C20   C     C_R   0.933470 0.444699 0.621900 0.106793
Cu1   Cu    Cu3+1 0.500020 0.500020 0.638630 0.932489
Cu2   Cu    Cu3+1 0.499980 0.499980 0.361370 0.930495
H1    H     H_    0.113589 0.542192 0.289601 0.192954
H2    H     H_    0.516557 0.092714 0.604034 0.144292
H3    H     H_    0.598705 0.341461 0.869387 0.143151
H4    H     H_    0.459147 0.573021 0.894684 0.190578
H5    H     H_    0.614977 0.352924 0.127124 0.150073
H6    H     H_    0.439791 0.559199 0.107172 0.186277
H7    H     H_    0.786075 0.341282 0.724322 0.159944
H8    H     H_    0.892078 0.530453 0.284708 0.185315
H9    H     H_    0.476229 0.907339 0.602558 0.145215
N1    N     N_2   0.498640 0.498660 0.846910 -0.288079
N2    N     N_2   0.498610 0.498630 0.153040 -0.290290
O1    O     O_R   0.500020 0.321960 0.617040 -0.589814
O2    O     O_R   0.499980 0.321920 0.382900 -0.585580
O3    O     O_R   0.319670 0.500020 0.617100 -0.592215
O4    O     O_R   0.319630 0.499980 0.382950 -0.588482
O5    O     O_R   0.500020 0.678080 0.617100 -0.580079
O6    O     O_R   0.499980 0.678040 0.382960 -0.573460
O7    O     O_R   0.680370 0.500020 0.617050 -0.568624
O8    O     O_R   0.680330 0.499980 0.382900 -0.576290
H10   H     H_    0.189009 0.534954 0.791487 0.175451
O9    O     O_3   0.084866 0.452236 0.016032 -0.635682
C21   C     C_3   0.189531 0.378156 0.038335 0.021492
H11   H     H_    0.248555 0.426836 0.112841 0.187872
H12   H     H_    0.247742 0.362438 0.943709 0.141073
C22   C     C_3   0.150273 0.255952 0.102248 -0.344555
H13   H     H_    0.089695 0.272983 0.194139 0.235038
H14   H     H_    0.097567 0.202580 0.025525 0.208173
C23   C     C_3   0.261726 0.181687 0.146797 -0.903422
H15   H     H_    0.324201 0.163805 0.056857 0.248600
H16   H     H_    0.230789 0.092876 0.190734 0.256067
H17   H     H_    0.312675 0.232087 0.227272 0.276501
H18   H     H_    0.878492 0.342731 0.951496 0.140693
H19   H     H_    0.523528 0.888225 0.287529 0.166218
H20   H     H_    0.502480 0.111613 0.286205 0.164726

loop_
_geom_bond_atom_site_label_1
_geom_bond_atom_site_label_2
_ccdc_geom_bond_type
C1    O1    A    
C23   H16   S    
O9    C21   S    
C17   O9    S    
H4    N1    S    
Cu1   O1    S    
C14   O5    A    
C6    C20   A    
C9    C10   D    
C19   C20   A    
C21   C22   S    
C7    H19   S    
Cu2   O4    S    
C2    C3    A    
C6    C15   S    
C7    C8    D    
C22   H14   S    
C9    H20   S    
Cu1   Cu2   S    
C13   N2    D    
Cu2   O2    S    
C11   C13   S    
C15   O8    A    
C16   C17   A    
Cu1   O7    S    
Cu2   O6    S    
C21   H12   S    
C11   N1    D    
C23   H15   S    
C22   C23   S    
C5    C6    A    
Cu1   N1    S    
C15   O7    A    
C23   H17   S    
C12   O3    A    
H6    N2    S    
C11   H3    S    
C2    C20   A    
C3    C4    A    
Cu2   O8    S    
C16   H10   S    
Cu1   O5    S    
C2    C16   A    
C21   H11   S    
C1    O2    A    
C17   C18   A    
C18   C19   A    
C5    H8    S    
C12   O4    A    
C7    C9    S    
Cu2   N2    S    
C18   H18   S    
C13   H5    S    
C8    C14   S    
C3    C12   S    
C10   H2    S    
C14   O6    A    
C8    H9    S    
Cu1   O3    S    
C4    H1    S    
C1    C10   S    
C22   H13   S    
C4    C5    A    
C19   H7    S    
