data_mof_unit_22521.cif
_audit_creation_date              2012-10-26T21:32:55-0400
_audit_creation_method            fapswitch 2.2
_symmetry_space_group_name_H-M    P1
_symmetry_Int_Tables_number       1
_space_group_crystal_system       triclinic
_cell_length_a                    28.256038
_cell_length_b                    18.529443
_cell_length_c                    17.064942
_cell_angle_alpha                 89.974105
_cell_angle_beta                  60.687337
_cell_angle_gamma                 89.934676
_cell_volume                      7790.67824264

loop_
_atom_site_label
_atom_site_type_symbol
_atom_type_description
_atom_site_fract_x
_atom_site_fract_y
_atom_site_fract_z
_atom_type_partial_charge
C1    C     C_R   0.701874 0.268844 0.675816 0.868942
C2    C     C_R   0.973541 0.612471 0.414795 -0.208063
C3    C     C_R   0.073950 0.900354 0.934004 0.909872
C4    C     C_R   0.574024 0.599533 0.933916 0.907649
C5    C     C_R   0.425980 0.400458 0.066083 0.908440
C6    C     C_R   0.426009 0.599593 0.066036 0.907941
C7    C     C_R   0.573983 0.400401 0.933971 0.908434
C8    C     C_R   0.549679 0.006737 0.500577 0.020849
C9    C     C_R   0.454116 0.007352 0.486088 0.023203
C10   C     C_R   0.048378 0.501811 0.505239 0.020651
C11   C     C_R   0.951634 0.498197 0.494727 0.020702
C12   C     C_R   0.538039 0.066712 0.460645 0.048457
C13   C     C_R   0.928537 0.380468 0.566841 -0.214235
C14   C     C_R   0.464387 0.948953 0.529675 0.048202
C15   C     C_R   0.489666 0.067475 0.454524 0.047226
C16   C     C_R   0.512789 0.948339 0.536459 0.045881
C17   C     C_R   0.035489 0.560261 0.464950 0.047556
C18   C     C_R   0.964524 0.439747 0.535015 0.047214
C19   C     C_R   0.987231 0.557870 0.458329 0.046465
C20   C     C_R   0.012781 0.442140 0.541642 0.046735
C21   C     C_R   0.614321 0.943973 0.536004 0.048729
C22   C     C_R   0.393516 0.066623 0.440589 0.053722
C23   C     C_R   0.373397 0.945022 0.499349 0.055946
C24   C     C_R   0.071480 0.619537 0.433118 -0.214935
C25   C     C_R   0.633754 0.065097 0.475278 0.059293
C26   C     C_R   0.113838 0.442916 0.540948 0.046844
C27   C     C_R   0.886171 0.557092 0.459028 0.046395
C28   C     C_R   0.868670 0.436057 0.519875 0.060675
C29   C     C_R   0.131345 0.563947 0.480087 0.061187
C30   C     C_R   0.668776 0.939596 0.521785 -0.174691
C31   C     C_R   0.344441 0.066083 0.437506 -0.137136
C32   C     C_R   0.333643 0.939976 0.470226 -0.201373
C33   C     C_R   0.680129 0.064484 0.486092 -0.226063
C34   C     C_R   0.168528 0.439359 0.524311 -0.172491
C35   C     C_R   0.526289 0.890966 0.576891 -0.206563
C36   C     C_R   0.831480 0.560645 0.475669 -0.172504
C37   C     C_R   0.821361 0.435842 0.511065 -0.226226
C38   C     C_R   0.178653 0.564161 0.488901 -0.227544
C39   C     C_R   0.702881 0.999829 0.488633 -0.093990
C40   C     C_R   0.322809 0.000729 0.432034 -0.100813
C41   C     C_R   0.202212 0.499762 0.490008 -0.097619
C42   C     C_R   0.797798 0.500239 0.509968 -0.096634
C43   C     C_R   0.599108 0.005113 0.503869 0.081247
C44   C     C_R   0.407529 0.005929 0.474309 0.074581
C45   C     C_R   0.097711 0.502852 0.508640 0.079844
C46   C     C_R   0.475479 0.126440 0.417369 -0.211211
C47   C     C_R   0.902301 0.497154 0.491327 0.080039
C48   C     C_R   0.075861 0.387932 0.584590 -0.169832
C49   C     C_R   0.924145 0.612081 0.415393 -0.169228
C50   C     C_R   0.881798 0.378789 0.559436 -0.167822
C51   C     C_R   0.118219 0.621215 0.440525 -0.168324
C52   C     C_R   0.575689 0.889041 0.576872 -0.171402
C53   C     C_R   0.428435 0.125966 0.410982 -0.155682
C54   C     C_R   0.380509 0.892227 0.552018 -0.170316
C55   C     C_R   0.622833 0.122512 0.433260 -0.165580
C56   C     C_2   0.763334 0.995269 0.439199 0.489811
C57   C     C_R   0.425062 0.893709 0.566089 -0.211843
C58   C     C_2   0.291232 0.998720 0.383183 0.465643
C59   C     C_2   0.262676 0.495695 0.438918 0.490523
C60   C     C_2   0.737335 0.504304 0.561069 0.490395
C61   C     C_R   0.576348 0.123235 0.425573 -0.210553
C62   C     C_R   0.720835 0.266255 0.953750 0.113960
C63   C     C_R   0.279071 0.733621 0.046356 0.112890
C64   C     C_R   0.279218 0.266297 0.046164 0.113077
C65   C     C_R   0.298136 0.731178 0.324179 0.863453
C66   C     C_R   0.720792 0.733669 0.953840 0.114603
C67   C     C_R   0.220785 0.766192 0.953817 0.113259
C68   C     C_R   0.779051 0.233571 0.046365 0.113737
C69   C     C_R   0.779203 0.766338 0.046167 0.114563
C70   C     C_R   0.220748 0.233739 0.953894 0.114562
C71   C     C_R   0.744449 0.197908 0.945655 -0.178314
C72   C     C_R   0.255432 0.801948 0.054441 -0.177547
C73   C     C_R   0.255557 0.198021 0.054418 -0.172541
C74   C     C_R   0.744434 0.801961 0.945567 -0.175112
C75   C     C_R   0.244419 0.697862 0.945740 -0.179194
C76   C     C_R   0.298097 0.268910 0.324211 0.880939
C77   C     C_R   0.755433 0.301915 0.054465 -0.179326
C78   C     C_R   0.755561 0.698046 0.054440 -0.175704
C79   C     C_R   0.244408 0.302014 0.945643 -0.175569
C80   C     C_R   0.773009 0.181743 0.991431 -0.180317
C81   C     C_R   0.226838 0.818056 0.008705 -0.179526
C82   C     C_R   0.226875 0.181926 0.008835 -0.175244
C83   C     C_R   0.773087 0.818111 0.991179 -0.175546
C84   C     C_R   0.273011 0.681753 0.991480 -0.179969
C85   C     C_R   0.726874 0.318080 0.008689 -0.180257
C86   C     C_R   0.726908 0.681896 0.008828 -0.175475
C87   C     C_R   0.701917 0.731062 0.675778 0.872076
C88   C     C_R   0.273088 0.318110 0.991228 -0.175389
C89   C     C_R   0.643491 0.327110 0.946017 -0.202780
C90   C     C_R   0.356459 0.672828 0.054031 -0.202991
C91   C     C_R   0.356497 0.327238 0.053990 -0.200448
C92   C     C_R   0.643525 0.672710 0.946001 -0.201380
C93   C     C_R   0.143416 0.826992 0.946098 -0.204160
C94   C     C_R   0.856431 0.172769 0.054048 -0.204533
C95   C     C_R   0.856472 0.827295 0.054003 -0.202660
C96   C     C_R   0.143458 0.172824 0.946068 -0.202282
C97   C     C_R   0.616522 0.347446 0.898298 -0.068826
C98   C     C_R   0.201880 0.768857 0.675814 0.900732
C99   C     C_R   0.383464 0.652546 0.101713 -0.069097
C100  C     C_R   0.383448 0.347535 0.101744 -0.066741
C101  C     C_R   0.616576 0.652416 0.898241 -0.066124
C102  C     C_R   0.116440 0.847314 0.898383 -0.066351
C103  C     C_R   0.883440 0.152502 0.101728 -0.069157
C104  C     C_R   0.883423 0.847586 0.101761 -0.066053
C105  C     C_R   0.116489 0.152565 0.898328 -0.064611
C106  C     C_R   0.633288 0.322404 0.813125 -0.262534
C107  C     C_R   0.366728 0.677639 0.186857 -0.262903
C108  C     C_R   0.366694 0.322440 0.186906 -0.269140
C109  C     C_R   0.798124 0.231153 0.324185 0.864396
C110  C     C_R   0.633348 0.677479 0.813065 -0.268614
C111  C     C_R   0.133181 0.822209 0.813236 -0.260044
C112  C     C_R   0.866694 0.177577 0.186880 -0.264270
C113  C     C_R   0.866653 0.822519 0.186935 -0.270669
C114  C     C_R   0.133208 0.177740 0.813205 -0.265655
C115  C     C_R   0.679624 0.281755 0.770914 -0.044455
C116  C     C_R   0.320387 0.718282 0.229079 -0.040938
C117  C     C_R   0.320430 0.281735 0.229046 -0.042141
C118  C     C_R   0.679616 0.718172 0.770924 -0.050985
C119  C     C_R   0.179561 0.781635 0.770979 -0.053252
C120  C     C_R   0.798084 0.768937 0.324221 0.869796
C121  C     C_R   0.820343 0.218194 0.229108 -0.043456
C122  C     C_R   0.820385 0.781828 0.229077 -0.050705
C123  C     C_R   0.179518 0.218366 0.771015 -0.052459
C124  C     C_R   0.707807 0.260650 0.816991 -0.203422
C125  C     C_R   0.292182 0.739355 0.183028 -0.198206
C126  C     C_R   0.292354 0.260565 0.182862 -0.179127
C127  C     C_R   0.707703 0.739317 0.817100 -0.194606
C128  C     C_R   0.207738 0.760530 0.817071 -0.202462
C129  C     C_R   0.792117 0.239224 0.183078 -0.204713
C130  C     C_R   0.792296 0.760686 0.182903 -0.194693
C131  C     C_R   0.201876 0.231147 0.675808 0.888654
C132  C     C_R   0.207616 0.239481 0.817188 -0.193579
C133  C     C_R   0.689896 0.283586 0.905586 0.071806
C134  C     C_R   0.310055 0.716357 0.094467 0.071944
C135  C     C_R   0.310190 0.283603 0.094309 0.067076
C136  C     C_R   0.689845 0.716314 0.905670 0.070057
C137  C     C_R   0.189822 0.783467 0.905673 0.073466
C138  C     C_R   0.810010 0.216262 0.094500 0.071865
C139  C     C_R   0.810151 0.783691 0.094335 0.069931
C140  C     C_R   0.189771 0.216446 0.905749 0.071133
C141  C     C_R   0.702672 0.129866 0.501337 0.907918
C142  C     C_R   0.026466 0.387544 0.585186 -0.208460
C143  C     C_R   0.305048 0.872620 0.476840 0.890489
C144  C     C_R   0.309472 0.130305 0.461417 0.903404
C145  C     C_R   0.693687 0.872105 0.526962 0.875889
C146  C     C_R   0.201810 0.629513 0.503116 0.913061
C147  C     C_R   0.798200 0.370491 0.496859 0.907545
C148  C     C_R   0.806296 0.628051 0.472472 0.876244
C149  C     C_R   0.193706 0.371951 0.527520 0.877652
C150  C     C_R   0.073992 0.099581 0.933946 0.909842
C151  C     C_R   0.925975 0.900468 0.066085 0.907836
C152  C     C_R   0.926006 0.099586 0.066037 0.908251
H1    H     H_    0.083523 0.344892 0.619754 0.163679
H2    H     H_    0.000000 0.656832 0.379469 0.137960
H3    H     H_    0.935211 0.333749 0.597637 0.138106
H4    H     H_    0.064808 0.666254 0.402316 0.137872
H5    H     H_    0.499987 0.845493 0.607917 0.139166
H6    H     H_    0.499402 0.174724 0.393055 0.138449
H7    H     H_    0.427273 0.850437 0.606288 0.139141
H8    H     H_    0.572459 0.168879 0.390199 0.138083
H9    H     H_    0.710238 0.371803 0.015274 0.130577
H10   H     H_    0.289661 0.628041 0.984910 0.130525
H11   H     H_    0.289733 0.371788 0.984512 0.129959
H12   H     H_    0.916479 0.655126 0.380239 0.164062
H13   H     H_    0.710272 0.628209 0.015564 0.130066
H14   H     H_    0.210188 0.871769 0.015275 0.131982
H15   H     H_    0.789649 0.128022 0.984844 0.130705
H16   H     H_    0.789723 0.871798 0.984443 0.130173
H17   H     H_    0.210227 0.128249 0.015555 0.131636
H18   H     H_    0.740050 0.156373 0.905074 0.134568
H19   H     H_    0.259842 0.843516 0.094975 0.138070
H20   H     H_    0.260004 0.156474 0.094991 0.140550
H21   H     H_    0.739993 0.843479 0.904957 0.133239
H22   H     H_    0.240011 0.656298 0.905200 0.133786
H23   H     H_    0.854681 0.333525 0.589545 0.165365
H24   H     H_    0.759835 0.343452 0.095040 0.134162
H25   H     H_    0.760003 0.656528 0.095050 0.132785
H26   H     H_    0.239961 0.343562 0.905073 0.132448
H27   H     H_    0.628991 0.346419 0.013895 0.148257
H28   H     H_    0.370930 0.653472 0.986181 0.148444
H29   H     H_    0.370948 0.346632 0.986161 0.150017
H30   H     H_    0.629057 0.653344 0.013847 0.149475
H31   H     H_    0.128930 0.846334 0.013958 0.147296
H32   H     H_    0.870916 0.153438 0.986184 0.147701
H33   H     H_    0.870938 0.846664 0.986159 0.148924
H34   H     H_    0.145337 0.666479 0.410417 0.166049
H35   H     H_    0.129019 0.153400 0.013882 0.148733
H36   H     H_    0.612231 0.338832 0.777265 0.181773
H37   H     H_    0.387806 0.661247 0.222696 0.181267
H38   H     H_    0.387696 0.338874 0.222816 0.178751
H39   H     H_    0.612344 0.661050 0.777156 0.179255
H40   H     H_    0.112103 0.838596 0.777396 0.177923
H41   H     H_    0.887783 0.161206 0.222709 0.181438
H42   H     H_    0.887659 0.838944 0.222842 0.178809
H43   H     H_    0.112167 0.161380 0.777333 0.175730
H44   H     H_    0.744981 0.229648 0.782705 0.151209
H45   H     H_    0.582678 0.844145 0.610368 0.168085
H46   H     H_    0.255011 0.770361 0.217321 0.150022
H47   H     H_    0.255274 0.229471 0.217080 0.154915
H48   H     H_    0.744794 0.770387 0.782876 0.154280
H49   H     H_    0.244926 0.729557 0.782778 0.151106
H50   H     H_    0.754929 0.270196 0.217383 0.151335
H51   H     H_    0.755204 0.729616 0.217128 0.154592
H52   H     H_    0.244720 0.270525 0.782954 0.154235
H53   H     H_    0.784609 0.990910 0.366485 0.017457
H54   H     H_    0.249974 0.978831 0.414569 0.091281
H55   H     H_    0.283294 0.492989 0.366100 0.016508
H56   H     H_    0.420733 0.171633 0.379186 0.163851
H57   H     H_    0.716722 0.507011 0.633888 0.016699
H58   H     H_    0.351204 0.849937 0.585592 0.173161
H59   H     H_    0.651602 0.165977 0.401655 0.161981
H60   H     H_    0.000003 0.343188 0.620522 0.137630
O1    O     O_R   0.746490 0.236330 0.638080 -0.651097
O2    O     O_R   0.325830 0.813840 0.483730 -0.627443
O3    O     O_R   0.325830 0.186160 0.483730 -0.636614
O4    O     O_R   0.674170 0.813840 0.516270 -0.641349
O5    O     O_R   0.174170 0.686160 0.516270 -0.636837
O6    O     O_R   0.825830 0.313840 0.483730 -0.637876
O7    O     O_R   0.825830 0.686160 0.483730 -0.639880
O8    O     O_R   0.174170 0.313840 0.516270 -0.640396
O9    O     O_R   0.739960 0.127620 0.525000 -0.570316
O10   O     O_R   0.260040 0.872380 0.475000 -0.654765
O11   O     O_R   0.260040 0.127620 0.475000 -0.622948
O12   O     O_R   0.253510 0.763670 0.361920 -0.655813
O13   O     O_R   0.739960 0.872380 0.525000 -0.576456
O14   O     O_R   0.239960 0.627620 0.525000 -0.570934
O15   O     O_R   0.760040 0.372380 0.475000 -0.571175
O16   O     O_R   0.760040 0.627620 0.475000 -0.576685
O17   O     O_R   0.239960 0.372380 0.525000 -0.576718
O18   O     O_R   0.680700 0.294870 0.629350 -0.629812
O19   O     O_R   0.319300 0.705130 0.370650 -0.630364
O20   O     O_R   0.319300 0.294870 0.370650 -0.637852
O21   O     O_R   0.680700 0.705130 0.629350 -0.631877
O22   O     O_R   0.180700 0.794870 0.629350 -0.625453
O23   O     O_R   0.253510 0.236330 0.361920 -0.629787
O24   O     O_R   0.819300 0.205130 0.370650 -0.631366
O25   O     O_R   0.819300 0.794870 0.370650 -0.633403
O26   O     O_R   0.180700 0.205130 0.629350 -0.635327
O27   O     O_R   0.062020 0.072840 0.007170 -0.628611
O28   O     O_R   0.937980 0.927160 0.992830 -0.629316
O29   O     O_R   0.937980 0.072840 0.992830 -0.630418
O30   O     O_R   0.062020 0.927160 0.007170 -0.629794
O31   O     O_R   0.562020 0.572840 0.007170 -0.629000
O32   O     O_R   0.437980 0.427160 0.992830 -0.628969
O33   O     O_R   0.437980 0.572840 0.992830 -0.630039
O34   O     O_R   0.746490 0.763670 0.638080 -0.632486
O35   O     O_R   0.562020 0.427160 0.007170 -0.630042
O36   O     O_R   0.947860 0.073950 0.109290 -0.621429
O37   O     O_R   0.052140 0.926050 0.890710 -0.622897
O38   O     O_R   0.052140 0.073950 0.890710 -0.624213
O39   O     O_R   0.947860 0.926050 0.109290 -0.622773
O40   O     O_R   0.447860 0.573950 0.109290 -0.621379
O41   O     O_R   0.552140 0.426050 0.890710 -0.621171
O42   O     O_R   0.552140 0.573950 0.890710 -0.622486
O43   O     O_R   0.447860 0.426050 0.109290 -0.622566
O44   O     O_2   0.789294 0.998001 0.479071 -0.534368
O45   O     O_R   0.246490 0.736330 0.638080 -0.640240
O46   O     O_2   0.310867 0.023604 0.307385 -0.580624
O47   O     O_2   0.289372 0.497434 0.477571 -0.534280
O48   O     O_2   0.710632 0.502561 0.522427 -0.533608
O49   O     O_R   0.753510 0.263670 0.361920 -0.652685
O50   O     O_R   0.753510 0.736330 0.361920 -0.632534
O51   O     O_R   0.246490 0.263670 0.638080 -0.629435
O52   O     O_R   0.674170 0.186160 0.516270 -0.633841
Zn1   Zn    Zn3+2 0.792340 0.208750 0.507670 0.984758
Zn2   Zn    Zn3+2 0.494040 0.500000 0.919480 0.944652
Zn3   Zn    Zn3+2 0.005960 1.000000 0.080520 0.941826
Zn4   Zn    Zn3+2 0.994040 1.000000 0.919480 0.934670
Zn5   Zn    Zn3+2 0.207660 0.791250 0.492330 0.931498
Zn6   Zn    Zn3+2 0.207660 0.208750 0.492330 0.957409
Zn7   Zn    Zn3+2 0.792340 0.791250 0.507670 0.994970
Zn8   Zn    Zn3+2 0.292340 0.708750 0.507670 0.993913
Zn9   Zn    Zn3+2 0.707660 0.291250 0.492330 0.987075
Zn10  Zn    Zn3+2 0.707660 0.708750 0.492330 0.996228
Zn11  Zn    Zn3+2 0.292340 0.291250 0.507670 0.997423
Zn12  Zn    Zn3+2 0.505960 0.500000 0.080520 0.944006

loop_
_geom_bond_atom_site_label_1
_geom_bond_atom_site_label_2
_ccdc_geom_bond_type
C126  H47   S    
C68   C80   A    
C96   C105  A    
C28   C47   A    
C70   C140  S    
C81   H14   S    
O1    Zn1   S    
C123  C132  A    
C78   H25   S    
C85   H9    S    
C113  H42   S    
O28   Zn4   S    
C6    O33   A    
C11   C47   A    
O33   Zn2   S    
C96   H35   S    
C8    C43   A    
C142  H60   S    
C74   C83   A    
C128  C137  A    
C59   O47   D    
C127  H48   S    
C25   C43   A    
C143  O10   A    
C30   C39   A    
C69   C78   A    
C98   C119  S    
C11   C18   A    
O36   Zn3   S    
C95   C104  A    
O23   Zn6   S    
C151  O28   A    
C86   H13   S    
O7    Zn7   S    
C11   C19   A    
C126  C135  A    
C33   C39   A    
O3    Zn11  S    
C124  C133  A    
C58   O46   D    
C69   C83   A    
C104  C151  S    
C122  C130  A    
C62   C133  S    
C68   C138  S    
C141  O9    A    
C16   C35   A    
C90   C134  A    
O5    Zn5   S    
C75   C84   A    
C64   C88   A    
O49   Zn9   S    
C58   H54   S    
C131  O26   A    
C27   C47   A    
C120  C122  S    
C66   C74   A    
C95   H33   S    
C7    O35   A    
C110  H39   S    
C37   C42   A    
O6    Zn1   S    
C152  O29   A    
C31   C40   A    
C93   C137  A    
C111  C119  A    
C38   C41   A    
C31   C144  S    
O26   Zn6   S    
C38   C146  S    
C32   C143  S    
C26   C45   A    
O14   Zn8   S    
O12   Zn5   S    
C21   C43   A    
O10   Zn5   S    
C36   C42   A    
C1    O18   A    
C36   C148  S    
C106  H36   S    
C22   C44   A    
C56   H53   S    
C10   C20   A    
C144  O11   A    
C148  O16   A    
C29   C38   A    
C76   O20   A    
C64   C73   A    
C5    C100  S    
O13   Zn7   S    
C4    O42   A    
C91   C100  A    
O8    Zn6   S    
C60   H57   S    
C4    O31   A    
C18   C20   A    
C72   C81   A    
C26   C48   A    
C120  O25   A    
C128  H49   S    
C90   C99   A    
C121  C129  A    
C119  C128  A    
C78   C86   A    
C24   C51   A    
C89   H27   S    
C57   H7    S    
C82   H17   S    
C77   C85   A    
C111  H40   S    
C8    C16   A    
C3    C102  S    
C7    O41   A    
C75   H22   S    
C146  O5    A    
O20   Zn11  S    
C108  H38   S    
C102  C111  A    
C92   C136  A    
C34   C41   A    
C28   C50   A    
C49   H12   S    
C67   C137  S    
C130  C139  A    
C108  C117  A    
C152  O36   A    
C79   C88   A    
C148  O7    A    
C34   C149  S    
C26   C34   A    
C150  O38   A    
C22   C53   A    
C131  O51   A    
O50   Zn10  S    
C62   C85   A    
C90   H28   S    
C100  C108  A    
C17   C24   A    
C40   C58   S    
C22   C31   A    
C113  C122  A    
O2    Zn8   S    
C63   C134  S    
C20   C142  A    
C105  C114  A    
C89   C133  A    
C127  C136  A    
C41   C59   S    
C87   C118  S    
O34   Zn7   S    
C114  H43   S    
C61   H8    S    
C42   C60   S    
C147  O15   A    
C151  O39   A    
C146  O14   A    
C33   C141  S    
C101  C110  A    
C145  O13   A    
O22   Zn5   S    
C23   C44   A    
C104  C113  A    
C89   C97   A    
C50   H23   S    
C3    O30   A    
C13   H3    S    
C9    C14   A    
C35   H5    S    
C96   C140  A    
C7    C97   S    
C105  C150  S    
C2    C49   A    
C145  O4    A    
C107  C116  A    
C39   C56   S    
C98   O22   A    
C12   C15   A    
C54   H58   S    
C8    C12   A    
C4    C101  S    
C107  H37   S    
C10   C45   A    
C21   C30   A    
O29   Zn4   S    
O27   Zn3   S    
C69   C139  S    
O25   Zn7   S    
O45   Zn8   S    
O30   Zn3   S    
C37   C147  S    
C73   H20   S    
C110  C118  A    
O40   Zn12  S    
C132  H52   S    
C92   C101  A    
O11   Zn6   S    
C143  O2    A    
C66   C136  S    
C114  C123  A    
C13   C18   A    
C98   O45   A    
C48   H1    S    
C125  H46   S    
C67   C81   A    
C77   H24   S    
O51   Zn11  S    
C116  C125  A    
C91   H29   S    
O18   Zn9   S    
C1    O1    A    
O24   Zn1   S    
C129  C138  A    
C141  O52   A    
C14   C16   A    
C46   H6    S    
C30   C145  S    
C67   C75   A    
C118  C127  A    
C129  H50   S    
C109  O49   A    
C10   C17   A    
O39   Zn3   S    
C73   C82   A    
C84   H10   S    
C72   H19   S    
O37   Zn4   S    
C23   C54   A    
O42   Zn2   S    
C29   C51   A    
C59   H55   S    
C68   C77   A    
C94   H32   S    
C14   C57   A    
O17   Zn11  S    
C9    C44   A    
O4    Zn10  S    
C115  C124  A    
C80   H15   S    
C74   H21   S    
C123  C131  S    
C2    C19   A    
C95   C139  A    
C53   H56   S    
C3    O37   A    
C79   H26   S    
C94   C103  A    
C93   C102  A    
C66   C86   A    
C144  O3    A    
C71   C80   A    
C124  H44   S    
O41   Zn2   S    
C132  C140  A    
C88   H11   S    
C99   C107  A    
C83   H16   S    
C106  C115  A    
C120  O50   A    
O52   Zn9   S    
C87   O21   A    
C65   O12   A    
C6    O40   A    
O43   Zn12  S    
C27   C36   A    
C149  O17   A    
C6    C99   S    
C60   O48   D    
C56   O44   D    
O15   Zn9   S    
O38   Zn4   S    
C112  C121  A    
C125  C134  A    
C103  C152  S    
C23   C32   A    
C65   O19   A    
C12   C61   A    
C93   H31   S    
C109  C121  S    
C70   C79   A    
C28   C37   A    
C94   C138  A    
O21   Zn10  S    
C55   C61   A    
C46   C53   A    
C17   C19   A    
C25   C55   A    
C62   C71   A    
C76   O23   A    
O32   Zn2   S    
C87   O34   A    
C32   C40   A    
C5    O32   A    
C9    C15   A    
C5    O43   A    
C70   C82   A    
C76   C117  S    
C71   H18   S    
C112  H41   S    
C64   C135  S    
O9    Zn1   S    
C55   H59   S    
C13   C50   A    
C109  O24   A    
C24   H4    S    
C65   C116  S    
C48   C142  A    
C91   C135  A    
C63   C72   A    
C2    H2    S    
C150  O27   A    
O16   Zn10  S    
C29   C45   A    
C35   C52   A    
C51   H34   S    
O19   Zn8   S    
C147  O6    A    
C103  C112  A    
C117  C126  A    
C92   H30   S    
C52   H45   S    
C1    C115  S    
C15   C46   A    
O35   Zn12  S    
C63   C84   A    
O31   Zn12  S    
C149  O8    A    
C21   C52   A    
C130  H51   S    
C27   C49   A    
C25   C33   A    
C54   C57   A    
C97   C106  A    
