data_mof_unit_23236.cif
_audit_creation_date              2012-12-10T17:33:48-0500
_audit_creation_method            fapswitch 2.2
_symmetry_space_group_name_H-M    P1
_symmetry_Int_Tables_number       1
_space_group_crystal_system       triclinic
_cell_length_a                    10.671646
_cell_length_b                    11.982416
_cell_length_c                    12.911576
_cell_angle_alpha                 92.704547
_cell_angle_beta                  89.962631
_cell_angle_gamma                 86.928715
_cell_volume                      1646.81414194

loop_
_atom_site_label
_atom_site_type_symbol
_atom_type_description
_atom_site_fract_x
_atom_site_fract_y
_atom_site_fract_z
_atom_type_partial_charge
C1    C     C_R   0.493468 0.521150 0.700321 0.879087
C2    C     C_R   0.462535 0.449462 0.977020 0.132789
C3    C     C_R   0.506992 0.548350 0.025248 0.169396
C4    C     C_R   0.741953 0.501173 0.502275 0.880623
C5    C     C_R   0.522924 0.555322 0.131135 -0.259256
C6    C     C_R   0.453706 0.366473 0.143281 -0.208200
C7    C     C_R   0.436560 0.358624 0.037435 -0.206257
C8    C     C_R   0.386502 0.956023 0.402364 -0.348444
C9    C     C_R   0.396190 0.839766 0.410860 0.145122
C10   C     C_R   0.548781 0.857371 0.543586 -0.069764
C11   C     C_R   0.542422 0.975547 0.537758 0.035053
C12   C     C_3   0.120998 0.496782 0.512514 0.020444
C13   C     C_R   0.459621 0.024522 0.465530 0.068593
C14   C     C_R   0.451600 0.141559 0.457903 -0.047513
C15   C     C_R   0.603859 0.162862 0.589749 -0.015615
C16   C     C_R   0.501760 0.478405 0.299946 0.900920
C17   C     C_R   0.615256 0.046641 0.600981 -0.096050
C18   C     C_R   0.257902 0.499615 0.507551 0.853704
C19   C     C_3   0.925627 0.432508 0.599104 -0.402333
C20   C     C_3   0.071552 0.429569 0.607046 0.218481
C21   C     C_3   0.933687 0.450762 0.402028 0.035588
C22   C     C_3   0.921592 0.623968 0.524059 -0.202565
C23   C     C_3   0.077714 0.441634 0.408741 -0.444442
C24   C     C_3   0.878057 0.502195 0.507103 -0.002352
C25   C     C_1   0.394777 0.344626 0.820571 0.192125
C26   C     C_1   0.701012 0.004041 0.677867 0.124003
C27   C     C_1   0.320295 0.771505 0.344328 0.213936
C28   C     C_1   0.108366 0.486035 0.706415 0.117034
C29   C     C_3   0.066721 0.234145 0.672276 -0.788476
C30   C     C_3   0.884754 0.310605 0.264070 -0.779858
C31   C     C_1   0.875154 0.678724 0.623058 0.206782
C32   C     C_3   0.064688 0.620518 0.520023 -0.458725
C33   C     C_R   0.495333 0.465217 0.189657 -0.049385
C34   C     C_R   0.486048 0.532603 0.811813 -0.097721
C35   C     C_R   0.535482 0.639140 0.967526 -0.207330
C36   C     C_R   0.526022 0.630950 0.860989 -0.200031
C37   C     C_R   0.447840 0.443073 0.869776 -0.071406
H1    H     H_    0.891254 0.347558 0.587202 0.190524
H2    H     H_    0.388169 0.180240 0.403027 0.125199
H3    H     H_    0.880164 0.465536 0.672853 0.151259
H4    H     H_    0.659141 0.218161 0.637658 0.134575
H5    H     H_    0.322456 0.992727 0.346610 0.145237
H6    H     H_    0.611096 0.816753 0.597934 0.151776
H7    H     H_    0.114026 0.352733 0.402000 0.199705
H8    H     H_    0.884811 0.676260 0.460566 0.148240
H9    H     H_    0.104367 0.667259 0.588027 0.196784
H10   H     H_    0.218405 0.304829 0.614069 0.272303
H11   H     H_    0.136617 0.165689 0.690386 0.251441
H12   H     H_    0.092350 0.665017 0.450415 0.198662
H13   H     H_    0.988199 0.193481 0.632037 0.237449
H14   H     H_    0.033671 0.276217 0.746600 0.251368
H15   H     H_    0.914876 0.277549 0.419456 0.247540
H16   H     H_    0.839799 0.229626 0.251609 0.244624
H17   H     H_    0.982394 0.301371 0.233749 0.236020
H18   H     H_    0.830032 0.374624 0.220786 0.243213
H19   H     H_    0.906499 0.510408 0.341052 0.139522
H20   H     H_    0.117511 0.483759 0.341962 0.164986
H21   H     H_    0.556339 0.631312 0.168159 0.154636
H22   H     H_    0.431216 0.296627 0.189006 0.156971
H23   H     H_    0.568656 0.715090 0.004538 0.148711
H24   H     H_    0.403351 0.281175 0.003947 0.153406
H25   H     H_    0.554326 0.700129 0.816826 0.177079
N1    N     N_R   0.523380 0.207800 0.519350 -0.108597
N2    N     N_R   0.476620 0.792180 0.480650 -0.124760
N3    N     N_1   0.353343 0.265559 0.782268 -0.220642
N4    N     N_1   0.769813 0.970647 0.739825 -0.185602
N5    N     N_1   0.259034 0.717224 0.290326 -0.228263
N6    N     N_1   0.137067 0.530101 0.783821 -0.201091
N7    N     N_2   0.122875 0.312589 0.605407 -0.309660
N8    N     N_2   0.884985 0.341949 0.373651 -0.277784
N9    N     N_1   0.838889 0.720684 0.700690 -0.201682
O1    O     O_R   0.506240 0.421700 0.658830 -0.625070
O2    O     O_R   0.491240 0.609310 0.646410 -0.624221
O3    O     O_R   0.692710 0.406190 0.506230 -0.610765
O4    O     O_R   0.677700 0.593810 0.493810 -0.638698
O5    O     O_R   0.508760 0.390690 0.353590 -0.618696
O6    O     O_R   0.493760 0.578300 0.341170 -0.621285
O7    O     O_R   0.322300 0.406190 0.506190 -0.646058
O8    O     O_R   0.307290 0.593810 0.493770 -0.617191
Zn1   Zn    Zn3+2 0.510020 0.374730 0.508290 0.947966
Zn2   Zn    Zn3+2 0.489980 0.625270 0.491710 0.952911

loop_
_geom_bond_atom_site_label_1
_geom_bond_atom_site_label_2
_ccdc_geom_bond_type
C8    C9    A    
C8    C13   A    
C9    N2    A    
C2    C7    A    
C30   H17   S    
C12   C23   S    
C22   C32   S    
C5    H21   S    
C17   C26   S    
C28   N6    T    
C8    H5    S    
C4    C24   S    
O7    Zn1   S    
C34   C37   A    
C23   H20   S    
C16   O6    A    
C7    H24   S    
C4    O4    A    
C25   C37   S    
C14   H2    S    
H10   N7    S    
C19   C20   S    
C18   O8    A    
C5    C33   A    
O6    Zn2   S    
C4    O3    A    
N1    Zn1   S    
C31   N9    T    
O3    Zn1   S    
C13   C14   A    
C12   C32   S    
C36   H25   S    
O2    Zn2   S    
C30   N8    S    
C1    C34   S    
C29   N7    S    
C29   H13   S    
C32   H12   S    
C30   H16   S    
C1    O1    A    
C22   C31   S    
C29   H11   S    
C26   N4    T    
C25   N3    T    
C15   H4    S    
C10   C11   A    
O8    Zn2   S    
O4    Zn2   S    
C20   C28   S    
C23   H7    S    
C35   H23   S    
C35   C36   A    
C19   H1    S    
C16   C33   S    
C3    C35   A    
C18   O7    A    
C12   C20   S    
C27   N5    T    
C21   C23   S    
C22   C24   S    
C20   N7    S    
C9    C27   S    
C29   H14   S    
C15   C17   A    
C11   C17   A    
C10   H6    S    
C16   O5    A    
C32   H9    S    
C6    H22   S    
C10   N2    A    
O5    Zn1   S    
C3    C5    A    
C21   H19   S    
C6    C7    A    
C30   H18   S    
C6    C33   A    
C21   N8    S    
C1    O2    A    
C2    C3    A    
O1    Zn1   S    
C11   C13   A    
C2    C37   A    
C14   N1    A    
C19   C24   S    
C34   C36   A    
N2    Zn2   S    
H15   N8    S    
C19   H3    S    
C22   H8    S    
C21   C24   S    
C12   C18   S    
C15   N1    A    
