data_mof_unit_17859.cif
_audit_creation_date              2012-12-10T20:51:45-0500
_audit_creation_method            fapswitch 2.2
_symmetry_space_group_name_H-M    P1
_symmetry_Int_Tables_number       1
_space_group_crystal_system       triclinic
_cell_length_a                    8.093259
_cell_length_b                    8.933893
_cell_length_c                    16.745883
_cell_angle_alpha                 89.534138
_cell_angle_beta                  92.666855
_cell_angle_gamma                 90.027959
_cell_volume                      1209.4481813

loop_
_atom_site_label
_atom_site_type_symbol
_atom_type_description
_atom_site_fract_x
_atom_site_fract_y
_atom_site_fract_z
_atom_type_partial_charge
C1    C     C_R   0.499951 0.217935 0.500000 0.966507
C2    C     C_R   0.635587 0.515234 0.139681 -0.125846
C3    C     C_R   0.502283 0.426608 0.904763 0.189377
C4    C     C_R   0.497709 0.573373 0.095236 0.189376
C5    C     C_R   0.640664 0.373267 0.866383 0.342600
C6    C     C_R   0.359328 0.626715 0.133615 0.342596
C7    C     C_R   0.650724 0.392565 0.783398 -0.156084
C8    C     C_R   0.349272 0.607422 0.216601 -0.156078
C9    C     C_1   0.499954 0.065176 0.500004 -0.150117
C10   C     C_1   0.500046 0.934824 0.499995 -0.150118
C11   C     C_2   0.795616 0.484046 0.103005 1.101569
C12   C     C_R   0.500049 0.782065 0.500000 0.966506
C13   C     C_2   0.204377 0.515936 0.896992 1.101571
C14   C     C_2   0.791682 0.326988 0.742262 1.025034
C15   C     C_2   0.208315 0.673001 0.257737 1.025033
C16   C     C_R   0.518444 0.491668 0.654019 0.931512
C17   C     C_R   0.481556 0.508330 0.345981 0.931509
C18   C     C_R   0.520306 0.467803 0.740457 -0.187999
C19   C     C_R   0.479693 0.532190 0.259543 -0.188000
C20   C     C_R   0.377857 0.510003 0.779200 -0.216623
C21   C     C_R   0.622141 0.489988 0.220799 -0.216619
C22   C     C_R   0.364407 0.484751 0.860317 -0.125846
Cl1   Cl    Cl    0.797815 0.277988 0.923324 -0.469780
Cl2   Cl    Cl    0.202173 0.721988 0.076675 -0.469787
H1    H     H_    0.725676 0.439641 0.254511 0.225310
H2    H     H_    0.274323 0.560354 0.745488 0.225307
H3    H     H_    0.011364 0.370375 0.108673 0.394465
H4    H     H_    0.988629 0.629609 0.891325 0.394464
H5    H     H_    0.867163 0.190129 0.655937 0.347190
H6    H     H_    0.132839 0.809876 0.344057 0.347191
N1    N     N_1   0.073640 0.500030 0.499990 -0.021348
N2    N     N_1   0.926360 0.499970 0.500010 -0.021347
N3    N     N_2   0.510242 0.434575 0.988519 -0.106013
N4    N     N_2   0.489749 0.565406 0.011480 -0.106014
O1    O     O_R   0.636850 0.285340 0.500000 -0.603120
O2    O     O_R   0.905553 0.379572 0.138391 -0.756533
O3    O     O_2   0.166256 0.447238 0.956861 -0.535335
O4    O     O_R   0.094441 0.620413 0.861607 -0.756536
O5    O     O_2   0.933676 0.359189 0.763645 -0.582402
O6    O     O_R   0.761561 0.226937 0.679487 -0.796253
O7    O     O_2   0.066320 0.640787 0.236360 -0.582403
O8    O     O_R   0.238439 0.773068 0.320506 -0.796250
O9    O     O_R   0.363150 0.714660 0.500000 -0.603123
O10   O     O_R   0.363100 0.285350 0.500000 -0.619461
O11   O     O_R   0.636900 0.714650 0.500000 -0.619460
O12   O     O_R   0.652140 0.498630 0.616140 -0.604302
O13   O     O_R   0.347860 0.501370 0.383860 -0.604307
O14   O     O_R   0.378390 0.498650 0.616130 -0.621504
O15   O     O_R   0.621610 0.501350 0.383870 -0.621502
O16   O     O_2   0.833734 0.552742 0.043136 -0.535337
Zn1   Zn    Zn3+2 0.682780 0.499990 0.500010 1.029166
Zn2   Zn    Zn3+2 0.317220 0.500010 0.499990 1.029164

loop_
_geom_bond_atom_site_label_1
_geom_bond_atom_site_label_2
_ccdc_geom_bond_type
C2    C4    A    
N2    Zn1   S    
O13   Zn2   S    
H3    O2    S    
C8    C15   S    
C9    C10   T    
C1    O10   A    
C13   O3    D    
N1    N2    T    
C5    Cl1   S    
H4    O4    S    
N1    Zn2   S    
C7    C18   A    
C6    Cl2   S    
O10   Zn2   S    
C2    C21   A    
N3    N4    D    
C11   O16   D    
C16   O14   A    
C13   O4    S    
C20   H2    S    
C6    C8    A    
C2    C11   S    
C10   C12   S    
H5    O6    S    
C16   C18   S    
C11   O2    S    
C17   C19   S    
C20   C22   A    
C13   C22   S    
C12   O9    A    
C18   C20   A    
O1    Zn1   S    
C4    N4    S    
O9    Zn2   S    
C8    C19   A    
O11   Zn1   S    
C14   O6    S    
C3    C5    A    
O14   Zn2   S    
C1    C9    S    
C15   O7    D    
C4    C6    A    
C16   O12   A    
C5    C7    A    
C1    O1    A    
C3    N3    S    
H6    O8    S    
C3    C22   A    
C21   H1    S    
C19   C21   A    
C14   O5    D    
O12   Zn1   S    
C7    C14   S    
C17   O15   A    
C17   O13   A    
C15   O8    S    
C12   O11   A    
O15   Zn1   S    
