data_mof_unit_17746.cif
_audit_creation_date              2012-10-26T19:20:36-0400
_audit_creation_method            fapswitch 2.2
_symmetry_space_group_name_H-M    P1
_symmetry_Int_Tables_number       1
_space_group_crystal_system       triclinic
_cell_length_a                    10.835896
_cell_length_b                    11.045934
_cell_length_c                    9.770595
_cell_angle_alpha                 111.171402
_cell_angle_beta                  97.601987
_cell_angle_gamma                 91.234625
_cell_volume                      1077.90431382

loop_
_atom_site_label
_atom_site_type_symbol
_atom_type_description
_atom_site_fract_x
_atom_site_fract_y
_atom_site_fract_z
_atom_type_partial_charge
C1    C     C_R   0.490955 0.253974 0.440532 0.561127
C2    C     C_R   0.738193 0.515236 0.501383 0.540874
C3    C     C_R   0.142963 0.514132 0.769638 -0.085470
C4    C     C_R   0.857035 0.485862 0.230359 -0.085470
C5    C     C_R   0.101639 0.578303 0.904826 -0.122543
C6    C     C_R   0.898359 0.421691 0.095172 -0.122543
C7    C     C_R   0.993644 0.644015 0.908340 -0.124845
C8    C     C_R   0.006355 0.355982 0.091658 -0.124847
C9    C     C_R   0.921496 0.635844 0.775817 -0.085513
C10   C     C_R   0.078506 0.364156 0.224182 -0.085515
C11   C     C_R   0.956426 0.560745 0.636862 0.012713
C12   C     C_R   0.509045 0.746025 0.559468 0.561128
C13   C     C_R   0.043574 0.439252 0.363136 0.012714
C14   C     C_R   0.076686 0.514843 0.634851 0.012115
C15   C     C_R   0.923313 0.485153 0.365147 0.012115
C16   C     C_R   0.874555 0.530632 0.501204 -0.048280
C17   C     C_R   0.125445 0.469365 0.498794 -0.048279
C18   C     C_2   0.485865 0.114692 0.406872 -0.130919
C19   C     C_2   0.514135 0.885308 0.593128 -0.130919
C20   C     C_2   0.502398 0.069557 0.516712 -0.162719
C21   C     C_2   0.497602 0.930443 0.483288 -0.162719
C22   C     C_2   0.507852 0.513225 0.081871 -0.028174
C23   C     C_2   0.492147 0.486776 0.918129 -0.028174
C24   C     C_R   0.261808 0.484763 0.498616 0.540875
Cu1   Cu    Cu3+1 0.521920 0.521810 0.644910 0.924949
Cu2   Cu    Cu3+1 0.478080 0.478190 0.355090 0.924947
H1    H     H_    0.036110 0.301531 0.986444 0.109191
H2    H     H_    0.468578 0.048561 0.291501 0.101662
H3    H     H_    0.426057 0.408162 0.843757 0.133260
H4    H     H_    0.573942 0.591838 0.156244 0.133260
H5    H     H_    0.480349 0.864560 0.367729 0.154782
H6    H     H_    0.519651 0.135440 0.632271 0.154782
H7    H     H_    0.616804 0.628982 0.935925 0.194292
H8    H     H_    0.383196 0.371018 0.064075 0.194291
H9    H     H_    0.963890 0.698467 0.013555 0.109190
H10   H     H_    0.223833 0.459482 0.771843 0.124349
H11   H     H_    0.776165 0.540512 0.228154 0.124351
H12   H     H_    0.154409 0.578323 0.007013 0.125824
H13   H     H_    0.845587 0.421669 0.992985 0.125824
H14   H     H_    0.839052 0.690021 0.783277 0.129975
H15   H     H_    0.160953 0.309982 0.216720 0.129978
H16   H     H_    0.531421 0.951438 0.708499 0.101662
N1    N     N_2   0.445130 0.445420 0.137360 -0.354100
N2    N     N_2   0.554870 0.554580 0.862640 -0.354100
O1    O     O_R   0.511700 0.332340 0.577400 -0.497182
O2    O     O_R   0.488300 0.667660 0.422600 -0.497181
O3    O     O_R   0.474680 0.295500 0.332650 -0.493984
O4    O     O_R   0.525320 0.704500 0.667350 -0.493984
O5    O     O_R   0.338170 0.518410 0.622370 -0.498284
O6    O     O_R   0.661830 0.481590 0.377630 -0.498285
O7    O     O_R   0.301150 0.481570 0.377630 -0.493102
O8    O     O_R   0.698850 0.518430 0.622370 -0.493099

loop_
_geom_bond_atom_site_label_1
_geom_bond_atom_site_label_2
_ccdc_geom_bond_type
Cu1   O1    S    
C2    C16   S    
C11   C16   A    
C22   N1    D    
C14   C17   A    
C19   H16   S    
C13   C17   A    
C12   O4    A    
C7    C9    A    
C24   O7    A    
C13   C15   A    
Cu1   O8    S    
C22   H4    S    
Cu2   O7    S    
C20   C21   S    
C10   H15   S    
C21   H5    S    
Cu1   O4    S    
C1    O1    A    
C1    C18   S    
C3    C14   A    
C2    O8    A    
C3    H10   S    
C4    C15   A    
C9    C11   A    
C12   C19   S    
C8    C10   A    
C19   C21   D    
Cu2   N1    S    
C18   C20   D    
Cu2   O6    S    
C11   C14   A    
Cu1   O5    S    
C17   C24   S    
Cu2   O2    S    
C15   C16   A    
C23   H3    S    
C18   H2    S    
C4    H11   S    
Cu1   N2    S    
C22   C23   S    
C12   O2    A    
C4    C6    A    
C20   H6    S    
C24   O5    A    
C5    C7    A    
C8    H1    S    
Cu2   O3    S    
C6    H13   S    
C1    O3    A    
C6    C8    A    
C2    O6    A    
Cu1   Cu2   S    
C5    H12   S    
H7    N2    S    
C7    H9    S    
H8    N1    S    
C9    H14   S    
C23   N2    D    
C3    C5    A    
C10   C13   A    
