data_mof_unit_31491.cif
_audit_creation_date              2013-03-05T15:47:55-0500
_audit_creation_method            fapswitch 2.2
_symmetry_space_group_name_H-M    P1
_symmetry_Int_Tables_number       1
_space_group_crystal_system       triclinic
_cell_length_a                    11.660563
_cell_length_b                    13.00895
_cell_length_c                    13.449892
_cell_angle_alpha                 91.997018
_cell_angle_beta                  76.447452
_cell_angle_gamma                 99.909009
_cell_volume                      1953.80699441

loop_
_atom_site_label
_atom_site_type_symbol
_atom_site_description
_atom_site_fract_x
_atom_site_fract_y
_atom_site_fract_z
_atom_type_partial_charge
O1    O     O_R   0.419710 0.645650 0.494620 -0.589823
O2    O     O_R   0.611450 0.658430 0.507430 -0.587136
C1    C     C_R   0.520817 0.700875 0.501994 0.842282
O3    O     O_R   0.357340 0.490460 0.641450 -0.580770
O4    O     O_R   0.549080 0.503250 0.654260 -0.590183
C2    C     C_R   0.435789 0.491264 0.695987 0.787596
Cu1   Cu    Cu3+1 0.386470 0.492430 0.492410 0.944554
Cu2   Cu    Cu3+1 0.613530 0.507570 0.507590 0.945945
O5    O     O_R   0.388550 0.341570 0.492570 -0.585353
O6    O     O_R   0.580290 0.354350 0.505380 -0.593051
O7    O     O_R   0.450920 0.496750 0.345740 -0.589890
O8    O     O_R   0.642660 0.509540 0.358550 -0.585301
C3    C     C_R   0.479013 0.299117 0.498832 0.803199
C4    C     C_R   0.563539 0.502559 0.304117 0.803505
C5    C     C_R   0.718236 0.419934 0.044064 -0.185756
H1    H     H_    0.763074 0.434711 0.190138 0.147534
H2    H     H_    0.724597 0.357774 0.853071 0.163789
H3    H     H_    0.796704 0.385929 0.009449 0.139143
C6    C     C_R   0.597921 0.490558 0.193148 -0.047687
C7    C     C_R   0.289363 0.522209 0.854372 -0.179970
C8    C     C_R   0.258036 0.536123 0.959325 -0.143290
C9    C     C_R   0.335661 0.520692 0.019539 -0.178095
C10   C     C_R   0.445630 0.486530 0.975967 0.084186
C11   C     C_R   0.470930 0.461320 0.870406 0.077239
C12   C     C_R   0.530762 0.475521 0.033781 0.075698
C13   C     C_R   0.633547 0.431116 0.987975 0.156874
C14   C     C_R   0.649309 0.395948 0.887541 -0.229263
C15   C     C_R   0.568484 0.409317 0.830089 -0.192364
C16   C     C_R   0.517320 0.507749 0.135841 -0.244117
C17   C     C_R   0.700150 0.448950 0.146493 -0.192070
C18   C     C_R   0.396869 0.487721 0.808372 -0.100589
H4    H     H_    0.443646 0.545331 0.173747 0.147059
H5    H     H_    0.230591 0.541299 0.808765 0.150817
H6    H     H_    0.305369 0.534060 0.100169 0.128356
H7    H     H_    0.174477 0.562272 0.994019 0.142768
H8    H     H_    0.582346 0.375771 0.754498 0.183640
C19   C     C_R   0.466711 0.185725 0.499973 -0.079542
C20   C     C_R   0.532826 0.814273 0.504982 -0.120669
C21   C     C_R   0.652764 0.984238 0.519009 0.331165
C22   C     C_R   0.640921 0.875720 0.514408 -0.249022
C23   C     C_R   0.435273 0.861219 0.500047 -0.260049
C24   C     C_R   0.445541 0.969125 0.502370 0.125612
C25   C     C_R   0.555065 0.031774 0.510679 0.043665
C26   C     C_R   0.564739 0.140050 0.507248 -0.205621
C27   C     C_R   0.358008 0.122915 0.494506 -0.171883
C28   C     C_R   0.347688 0.015063 0.495171 -0.167996
H9    H     H_    0.648979 0.189515 0.508418 0.201383
H10   H     H_    0.281278 0.157004 0.488919 0.171587
H11   H     H_    0.263452 0.967575 0.489527 0.149100
H12   H     H_    0.715924 0.839323 0.520421 0.192861
H13   H     H_    0.351219 0.813882 0.493485 0.162751
N1    N     N_R   0.215880 0.481050 0.481000 -0.183091
N2    N     N_R   0.784100 0.518950 0.519000 -0.186770
C29   C     C_R   0.944794 0.595255 0.596919 -0.326732
C30   C     C_R   0.825999 0.586284 0.587456 0.102695
C31   C     C_R   0.857628 0.458796 0.458176 0.042147
C32   C     C_R   0.977900 0.465209 0.464967 0.070133
C33   C     C_R   0.021922 0.534473 0.535323 0.062832
C34   C     C_R   0.142254 0.541010 0.542002 0.027112
C35   C     C_R   0.173876 0.413506 0.412739 0.094291
C36   C     C_R   0.055002 0.404370 0.403427 -0.308643
H14   H     H_    0.177278 0.593951 0.595829 0.116291
H15   H     H_    0.232760 0.366331 0.365092 0.130136
H16   H     H_    0.975956 0.649276 0.651846 0.143682
H17   H     H_    0.023789 0.350244 0.348598 0.147753
H18   H     H_    0.767097 0.633427 0.635125 0.134776
H19   H     H_    0.822590 0.405838 0.404366 0.117408
N3    N     N_R   0.763147 0.043925 0.533957 0.106876
O9    O     O_R   0.864617 0.017070 0.487423 -0.368624
O10   O     O_R   0.761846 0.111613 0.607610 -0.375088

loop_
_geom_bond_atom_site_label_1
_geom_bond_atom_site_label_2
_geom_bond_distance
_ccdc_geom_bond_type
Cu2   N2    2.010346 S    
C5    H3    1.083945 S    
Cu1   O7    1.938515 S    
C10   C11   1.419483 A    
O6    C3    1.292655 A    
C32   C36   1.403658 A    
C8    H7    1.082928 S    
N1    C34   1.369086 A    
O4    Cu2   1.938516 S    
C31   H19   1.082726 S    
C23   C24   1.388051 A    
C29   C30   1.405198 A    
C24   C28   1.399609 A    
C3    C19   1.457553 S    
C26   H9    1.080843 S    
Cu2   O8    1.953409 S    
C19   C26   1.399805 A    
C10   C12   1.424439 A    
O2    C1    1.291120 A    
C32   C33   1.407085 A    
C11   C18   1.421127 A    
Cu1   Cu2   2.676114 S    
O1    Cu1   1.964551 S    
C8    C9    1.390288 A    
C7    C8    1.386409 A    
C20   C22   1.401732 A    
C6    C17   1.398407 A    
C28   H11   1.083996 S    
C13   C14   1.391873 A    
C29   H16   1.083246 S    
C20   C23   1.395928 A    
O3    Cu1   1.953409 S    
C22   H12   1.083490 S    
C7    H5    1.083422 S    
O3    C2    1.298295 A    
O8    C4    1.295570 A    
Cu1   N1    2.010578 S    
C2    C18   1.472783 S    
C16   H4    1.076514 S    
N2    C30   1.364198 A    
C25   C26   1.395085 A    
C12   C16   1.402247 A    
O4    C2    1.293122 A    
C9    H6    1.076829 S    
O7    C4    1.291456 A    
C35   H15   1.081735 S    
C27   H10   1.083142 S    
C24   C25   1.417759 A    
H1    C17   1.083277 S    
H2    C14   1.084215 S    
C36   H17   1.083271 S    
C21   C22   1.395225 A    
C30   H18   1.081713 S    
C29   C33   1.403678 A    
C31   C32   1.414705 A    
C15   H8    1.080088 S    
C5    C17   1.392800 A    
Cu2   O6    1.964553 S    
C21   N3    1.437514 S    
N2    C31   1.369047 A    
C14   C15   1.386615 A    
Cu1   O5    1.966933 S    
N3    O10   1.301428 A    
O5    C3    1.292361 A    
C9    C10   1.418103 A    
C35   C36   1.405282 A    
C5    C13   1.404177 A    
C21   C25   1.414184 A    
N1    C35   1.364295 A    
O1    C1    1.293925 A    
C12   C13   1.420267 A    
C27   C28   1.387571 A    
C33   C34   1.414762 A    
C19   C27   1.400981 A    
C4    C6    1.462057 S    
C23   H13   1.084736 S    
O2    Cu2   1.966930 S    
C11   C15   1.412759 A    
C1    C20   1.457683 S    
N3    O9    1.301414 A    
C34   H14   1.082714 S    
C7    C18   1.402239 A    
C6    C16   1.396885 A    
