data_mof_unit_11118.cif
_audit_creation_date              2012-10-26T17:12:41-0400
_audit_creation_method            fapswitch 2.2
_symmetry_space_group_name_H-M    P1
_symmetry_Int_Tables_number       1
_space_group_crystal_system       triclinic
_cell_length_a                    27.934245
_cell_length_b                    18.678503
_cell_length_c                    16.836287
_cell_angle_alpha                 89.965545
_cell_angle_beta                  62.620013
_cell_angle_gamma                 90.225556
_cell_volume                      7800.48529215

loop_
_atom_site_label
_atom_site_type_symbol
_atom_type_description
_atom_site_fract_x
_atom_site_fract_y
_atom_site_fract_z
_atom_type_partial_charge
C1    C     C_R   0.292831 0.723884 0.330435 0.558483
C2    C     C_R   0.588973 0.999683 0.537592 0.021743
C3    C     C_R   0.693054 0.708863 0.904017 -0.010483
C4    C     C_R   0.154782 0.894306 0.013347 0.284802
C5    C     C_R   0.845226 0.105711 0.986644 0.284809
C6    C     C_R   0.891375 0.798284 0.957681 0.284106
C7    C     C_R   0.108625 0.201720 0.042316 0.284058
C8    C     C_R   0.601577 0.297287 0.048097 0.278246
C9    C     C_R   0.398426 0.702715 0.951901 0.278245
C10   C     C_R   0.391167 0.298749 0.957797 0.284969
C11   C     C_R   0.608834 0.701251 0.042203 0.284970
C12   C     C_R   0.175592 0.862776 0.065719 -0.118843
C13   C     C_R   0.911030 0.500371 0.462397 0.023224
C14   C     C_R   0.824420 0.137245 0.934271 -0.118733
C15   C     C_R   0.863502 0.771933 0.911806 -0.132615
C16   C     C_R   0.136497 0.228072 0.088192 -0.132647
C17   C     C_R   0.626675 0.274220 0.098803 -0.114333
C18   C     C_R   0.373329 0.725784 0.901193 -0.114334
C19   C     C_R   0.363356 0.272318 0.911816 -0.129692
C20   C     C_R   0.636644 0.727682 0.088184 -0.129689
C21   C     C_R   0.284277 0.776655 0.753157 -0.110520
C22   C     C_R   0.715727 0.223350 0.246839 -0.110524
C23   C     C_R   0.724657 0.781786 0.234695 -0.113118
C24   C     C_R   0.088970 0.499629 0.537604 0.023224
C25   C     C_R   0.275344 0.218213 0.765304 -0.113116
C26   C     C_R   0.767906 0.255650 0.777069 -0.108430
C27   C     C_R   0.232098 0.744363 0.222926 -0.108435
C28   C     C_R   0.224549 0.281349 0.234788 -0.110357
C29   C     C_R   0.775451 0.718651 0.765212 -0.110354
C30   C     C_R   0.313707 0.759564 0.798564 -0.139188
C31   C     C_R   0.686297 0.240442 0.201432 -0.139190
C32   C     C_R   0.695995 0.765508 0.188249 -0.135972
C33   C     C_R   0.304005 0.234492 0.811750 -0.135973
C34   C     C_R   0.790634 0.226097 0.827165 -0.140424
C35   C     C_R   0.582598 0.870390 0.548831 -0.121508
C36   C     C_R   0.209372 0.773921 0.172828 -0.140429
C37   C     C_R   0.195909 0.264952 0.188341 -0.134581
C38   C     C_R   0.804090 0.735048 0.811658 -0.134572
C39   C     C_R   0.928878 0.899235 0.064264 0.581050
C40   C     C_R   0.071124 0.100764 0.935735 0.581144
C41   C     C_R   0.077705 0.909627 0.930481 0.572309
C42   C     C_R   0.922297 0.090379 0.069517 0.572217
C43   C     C_R   0.428770 0.399377 0.064350 0.589359
C44   C     C_R   0.571230 0.600623 0.935650 0.589358
C45   C     C_R   0.570913 0.399365 0.935820 0.585119
C46   C     C_R   0.417402 0.129609 0.451170 -0.121508
C47   C     C_R   0.429087 0.600635 0.064180 0.585117
C48   C     C_R   0.040129 0.629466 0.529864 0.009699
C49   C     C_R   0.959871 0.370534 0.470137 0.009698
C50   C     C_R   0.958345 0.630071 0.476948 0.008537
C51   C     C_R   0.041655 0.369929 0.523053 0.008538
C52   C     C_R   0.540486 0.129545 0.528746 0.007998
C53   C     C_R   0.459514 0.870455 0.471255 0.007998
C54   C     C_R   0.458703 0.130034 0.475826 0.007445
C55   C     C_R   0.541297 0.869966 0.524175 0.007445
C56   C     C_R   0.018451 0.694484 0.519877 -0.134293
C57   C     C_R   0.418031 0.871336 0.447056 -0.120572
C58   C     C_R   0.981548 0.305515 0.480124 -0.134293
C59   C     C_R   0.979033 0.694844 0.490763 -0.132151
C60   C     C_R   0.020966 0.305156 0.509238 -0.132151
C61   C     C_R   0.519072 0.194556 0.518056 -0.137204
C62   C     C_R   0.480927 0.805444 0.481945 -0.137204
C63   C     C_R   0.479656 0.194839 0.488938 -0.133917
C64   C     C_R   0.520344 0.805161 0.511063 -0.133917
C65   C     C_R   0.978352 0.564950 0.490158 0.024931
C66   C     C_R   0.021648 0.435049 0.509844 0.024931
C67   C     C_R   0.020831 0.564701 0.513381 0.025114
C68   C     C_R   0.581969 0.128664 0.552945 -0.120572
C69   C     C_R   0.979169 0.435299 0.486620 0.025114
C70   C     C_R   0.478548 0.064942 0.489553 0.023485
C71   C     C_R   0.521452 0.935058 0.510448 0.023485
C72   C     C_R   0.521028 0.064733 0.512772 0.024015
C73   C     C_R   0.478972 0.935267 0.487230 0.024015
C74   C     C_R   0.456776 0.000201 0.478086 -0.007262
C75   C     C_R   0.543224 0.999799 0.521915 -0.007262
C76   C     C_R   0.956778 0.500238 0.478079 -0.005578
C77   C     C_R   0.043222 0.499762 0.521922 -0.005578
C78   C     C_R   0.388305 0.934604 0.454409 -0.002823
C79   C     C_R   0.082807 0.370302 0.548032 -0.117918
C80   C     C_R   0.611695 0.065396 0.545591 -0.002824
C81   C     C_R   0.611983 0.933904 0.543886 -0.004470
C82   C     C_R   0.388017 0.066096 0.456114 -0.004470
C83   C     C_R   0.888385 0.434672 0.454105 -0.001259
C84   C     C_R   0.111615 0.565328 0.545895 -0.001259
C85   C     C_R   0.112060 0.433845 0.543597 -0.002101
C86   C     C_R   0.887940 0.566155 0.456403 -0.002101
C87   C     C_R   0.336464 0.934624 0.456665 -0.025281
C88   C     C_R   0.663536 0.065376 0.543335 -0.025281
C89   C     C_R   0.663672 0.934288 0.542542 -0.026194
C90   C     C_R   0.917193 0.629697 0.451968 -0.117918
C91   C     C_R   0.336328 0.065712 0.457458 -0.026193
C92   C     C_R   0.836496 0.434655 0.456534 -0.024199
C93   C     C_R   0.163504 0.565345 0.543466 -0.024199
C94   C     C_R   0.163698 0.434258 0.542439 -0.023493
C95   C     C_R   0.836302 0.565742 0.457561 -0.023493
C96   C     C_R   0.312106 0.000074 0.456894 -0.166543
C97   C     C_R   0.687894 0.999926 0.543107 -0.166543
C98   C     C_R   0.812112 0.500103 0.456865 -0.163313
C99   C     C_R   0.187888 0.499897 0.543135 -0.163313
C100  C     C_3   0.175389 0.011960 0.982237 -0.103005
C101  C     C_R   0.918233 0.371447 0.446277 -0.116341
C102  C     C_3   0.824661 0.988063 0.017970 -0.102794
C103  C     C_3   0.971639 0.821312 0.827812 -0.088631
C104  C     C_3   0.028361 0.178692 0.172185 -0.088638
C105  C     C_3   0.520488 0.247977 0.078526 -0.109757
C106  C     C_3   0.479516 0.752020 0.921471 -0.109755
C107  C     C_3   0.472128 0.319354 0.827946 -0.097263
C108  C     C_3   0.527872 0.680645 0.172054 -0.097263
C109  C     C_R   0.707170 0.276117 0.669564 0.558484
C110  C     C_R   0.081767 0.628553 0.553724 -0.116341
C111  C     C_R   0.239676 0.799077 0.936501 0.024329
C112  C     C_R   0.760332 0.200938 0.063492 0.024324
C113  C     C_R   0.778517 0.770691 0.047765 0.017623
C114  C     C_R   0.221483 0.229309 0.952234 0.017614
C115  C     C_R   0.708828 0.250137 0.963547 0.024360
C116  C     C_R   0.291177 0.749874 0.036448 0.024355
C117  C     C_R   0.278353 0.270798 0.047792 0.023506
C118  C     C_R   0.721647 0.729203 0.952207 0.023509
C119  C     C_R   0.291322 0.767483 0.891801 0.025717
C120  C     C_R   0.707987 0.722063 0.668514 0.558539
C121  C     C_R   0.708684 0.232528 0.108194 0.025718
C122  C     C_R   0.721920 0.757906 0.094295 0.026838
C123  C     C_R   0.278080 0.242094 0.905704 0.026833
C124  C     C_R   0.760882 0.220007 0.920226 0.024860
C125  C     C_R   0.239126 0.780010 0.079768 0.024859
C126  C     C_R   0.221798 0.257766 0.094338 0.027792
C127  C     C_R   0.778202 0.742235 0.905661 0.027799
C128  C     C_R   0.318934 0.747276 0.941797 -0.035151
C129  C     C_R   0.681072 0.252733 0.058198 -0.035147
C130  C     C_R   0.693275 0.737542 0.046047 -0.028304
C131  C     C_R   0.292013 0.277936 0.331486 0.558539
C132  C     C_R   0.306725 0.262459 0.953953 -0.028307
C133  C     C_R   0.783217 0.187944 0.971142 -0.037137
C134  C     C_R   0.216793 0.812075 0.028850 -0.037134
C135  C     C_R   0.193134 0.237647 0.046059 -0.032304
C136  C     C_R   0.806865 0.762356 0.953940 -0.032283
C137  C     C_R   0.163613 0.861422 0.931441 -0.000638
C138  C     C_R   0.836394 0.138594 0.068553 -0.000711
C139  C     C_R   0.862144 0.811592 0.050326 0.012867
C140  C     C_R   0.137857 0.188409 0.949672 0.012874
C141  C     C_R   0.632090 0.306371 0.954120 0.002032
C142  C     C_R   0.790731 0.220812 0.332519 0.562961
C143  C     C_R   0.367913 0.693633 0.045878 0.002032
C144  C     C_R   0.361822 0.312328 0.050344 0.025799
C145  C     C_R   0.638178 0.687672 0.949656 0.025799
C146  C     C_R   0.129917 0.871077 0.888578 -0.025877
C147  C     C_R   0.870088 0.128935 0.111418 -0.025940
C148  C     C_R   0.886004 0.843545 0.100786 -0.006778
C149  C     C_R   0.113997 0.156453 0.899213 -0.006720
C150  C     C_R   0.612330 0.342492 0.900494 -0.020897
C151  C     C_R   0.387671 0.657509 0.099505 -0.020897
C152  C     C_R   0.385780 0.343894 0.100862 -0.011279
C153  C     C_R   0.209270 0.779190 0.667481 0.562965
C154  C     C_R   0.614219 0.656105 0.899138 -0.011281
C155  C     C_R   0.145864 0.841692 0.803996 -0.174903
C156  C     C_R   0.854140 0.158316 0.196002 -0.174890
C157  C     C_R   0.862818 0.830160 0.192386 -0.176670
C158  C     C_R   0.137183 0.169837 0.807612 -0.176650
C159  C     C_R   0.637234 0.330438 0.808258 -0.179388
C160  C     C_R   0.362766 0.669563 0.191741 -0.179388
C161  C     C_R   0.362726 0.330198 0.192371 -0.186917
C162  C     C_R   0.637274 0.669802 0.807629 -0.186919
C163  C     C_R   0.195280 0.807117 0.757769 -0.021289
C164  C     C_R   0.207990 0.222030 0.668497 0.560956
C165  C     C_R   0.804723 0.192889 0.242229 -0.021284
C166  C     C_R   0.811797 0.799323 0.237100 -0.026203
C167  C     C_R   0.188203 0.200676 0.762899 -0.026199
C168  C     C_R   0.686035 0.293940 0.765871 -0.026404
C169  C     C_R   0.313966 0.706063 0.234127 -0.026405
C170  C     C_R   0.311721 0.299323 0.237101 -0.027491
C171  C     C_R   0.688278 0.700677 0.762899 -0.027490
C172  C     C_R   0.230039 0.799757 0.798827 0.011701
C173  C     C_R   0.769966 0.200251 0.201169 0.011705
C174  C     C_R   0.780837 0.790223 0.190364 0.007468
C175  C     C_R   0.792010 0.777969 0.331502 0.560957
C176  C     C_R   0.219164 0.209776 0.809635 0.007477
C177  C     C_R   0.713082 0.275030 0.816885 0.011978
C178  C     C_R   0.286921 0.724978 0.183111 0.011978
C179  C     C_R   0.280700 0.290231 0.190418 0.009676
C180  C     C_R   0.719299 0.709769 0.809581 0.009678
C181  C     C_R   0.196412 0.631712 0.527910 0.558403
C182  C     C_R   0.803588 0.368288 0.472090 0.558401
C183  C     C_R   0.803462 0.631716 0.472566 0.555093
C184  C     C_R   0.196538 0.368284 0.527434 0.555092
C185  C     C_R   0.696427 0.131714 0.527854 0.552710
C186  C     C_R   0.411027 0.000317 0.462409 0.021744
C187  C     C_R   0.303573 0.868286 0.472146 0.552711
C188  C     C_R   0.303479 0.131712 0.472510 0.551970
C189  C     C_R   0.696521 0.868287 0.527490 0.551969
C190  C     C_R   0.210551 0.818940 0.889210 -0.009268
C191  C     C_R   0.789456 0.181074 0.110784 -0.009262
C192  C     C_R   0.807167 0.790779 0.095950 -0.021086
C193  C     C_R   0.192833 0.209221 0.904049 -0.021071
C194  C     C_R   0.684503 0.276964 0.911597 -0.009310
C195  C     C_R   0.315501 0.723044 0.088400 -0.009311
C196  C     C_R   0.306946 0.291137 0.095983 -0.010485
Cu1   Cu    Cu3+1 0.209920 0.785290 0.495070 0.893944
Cu2   Cu    Cu3+1 0.504760 0.500000 0.075850 0.972172
Cu3   Cu    Cu3+1 0.995240 0.000000 0.924150 0.979862
Cu4   Cu    Cu3+1 0.004760 1.000000 0.075850 0.979867
Cu5   Cu    Cu3+1 0.790080 0.214710 0.504930 0.893947
Cu6   Cu    Cu3+1 0.790080 0.785290 0.504930 0.899925
Cu7   Cu    Cu3+1 0.209920 0.214710 0.495070 0.899919
Cu8   Cu    Cu3+1 0.709920 0.285290 0.495070 0.892006
Cu9   Cu    Cu3+1 0.290080 0.714710 0.504930 0.892006
Cu10  Cu    Cu3+1 0.290080 0.285290 0.504930 0.905171
Cu11  Cu    Cu3+1 0.709920 0.714710 0.495070 0.905171
Cu12  Cu    Cu3+1 0.495240 0.500000 0.924150 0.972173
H1    H     H_    0.535599 0.754361 0.520654 0.102885
H2    H     H_    0.727754 0.000087 0.538983 0.159322
H3    H     H_    0.772255 0.499934 0.460977 0.159787
H4    H     H_    0.227745 0.500066 0.539023 0.159788
H5    H     H_    0.589837 0.820343 0.572981 0.151603
H6    H     H_    0.410163 0.179657 0.427020 0.151603
H7    H     H_    0.410637 0.821899 0.421639 0.146337
H8    H     H_    0.589363 0.178101 0.578362 0.146338
H9    H     H_    0.089971 0.320178 0.572099 0.152352
H10   H     H_    0.910029 0.679822 0.427902 0.152352
H11   H     H_    0.910751 0.322075 0.420829 0.146742
H12   H     H_    0.464401 0.245639 0.479347 0.102885
H13   H     H_    0.089249 0.677925 0.579171 0.146742
H14   H     H_    0.119660 0.846826 0.772822 0.148768
H15   H     H_    0.880343 0.153180 0.227177 0.148771
H16   H     H_    0.883793 0.846399 0.229914 0.159634
H17   H     H_    0.116209 0.153597 0.770084 0.159626
H18   H     H_    0.619416 0.352062 0.768276 0.150712
H19   H     H_    0.380583 0.647937 0.231724 0.150713
H20   H     H_    0.383827 0.346178 0.229794 0.162521
H21   H     H_    0.616172 0.653822 0.770206 0.162521
H22   H     H_    0.164737 0.885625 0.130862 0.126439
H23   H     H_    0.465999 0.754853 0.470549 0.096459
H24   H     H_    0.835274 0.114397 0.869129 0.126481
H25   H     H_    0.887378 0.756429 0.843578 0.102434
H26   H     H_    0.112621 0.243579 0.156418 0.102448
H27   H     H_    0.601539 0.270491 0.170083 0.124854
H28   H     H_    0.398465 0.729512 0.829913 0.124854
H29   H     H_    0.387250 0.256935 0.843557 0.098784
H30   H     H_    0.612750 0.743065 0.156443 0.098785
H31   H     H_    0.306553 0.774083 0.681415 0.158485
H32   H     H_    0.693449 0.225916 0.318581 0.158484
H33   H     H_    0.701400 0.790286 0.305806 0.149144
H34   H     H_    0.534000 0.245147 0.529452 0.096459
H35   H     H_    0.298601 0.209714 0.694192 0.149144
H36   H     H_    0.795166 0.265510 0.707633 0.153858
H37   H     H_    0.204837 0.734502 0.292360 0.153860
H38   H     H_    0.201261 0.289602 0.305932 0.150223
H39   H     H_    0.798739 0.710396 0.694067 0.150221
H40   H     H_    0.353771 0.739106 0.758604 0.101911
H41   H     H_    0.646232 0.260895 0.241392 0.101911
H42   H     H_    0.653374 0.758028 0.229323 0.099410
H43   H     H_    0.346627 0.241972 0.770677 0.099410
H44   H     H_    0.832747 0.211290 0.792568 0.107097
H45   H     H_    0.036398 0.254336 0.518353 0.101156
H46   H     H_    0.167261 0.788732 0.207424 0.107105
H47   H     H_    0.153339 0.256984 0.229445 0.099181
H48   H     H_    0.846661 0.743015 0.770554 0.099183
H49   H     H_    0.178594 0.014070 0.913944 0.116204
H50   H     H_    0.215392 0.999643 0.978554 0.105916
H51   H     H_    0.163995 0.065747 0.012474 0.143737
H52   H     H_    0.784559 0.000452 0.022102 0.105827
H53   H     H_    0.821715 0.985878 0.086081 0.116250
H54   H     H_    0.835935 0.934290 0.987644 0.143675
H55   H     H_    0.949542 0.866336 0.816190 0.107755
H56   H     H_    0.963602 0.745664 0.481648 0.101157
H57   H     H_    0.975724 0.775244 0.783503 0.097226
H58   H     H_    0.013088 0.840442 0.808763 0.157326
H59   H     H_    0.024276 0.224760 0.216494 0.097232
H60   H     H_    0.050458 0.133667 0.183807 0.107731
H61   H     H_    0.986912 0.159561 0.191234 0.157328
H62   H     H_    0.531336 0.197755 0.102025 0.107590
H63   H     H_    0.529706 0.243113 0.007069 0.134056
H64   H     H_    0.476294 0.255052 0.118058 0.147686
H65   H     H_    0.470298 0.756884 0.992928 0.134058
H66   H     H_    0.468670 0.802244 0.897972 0.107588
H67   H     H_    0.966798 0.254959 0.468255 0.096475
H68   H     H_    0.523710 0.744944 0.881939 0.147686
H69   H     H_    0.450697 0.364263 0.814535 0.106064
H70   H     H_    0.475985 0.272467 0.784908 0.098559
H71   H     H_    0.513685 0.337955 0.809048 0.154233
H72   H     H_    0.524015 0.727532 0.215092 0.098560
H73   H     H_    0.549303 0.635737 0.185465 0.106063
H74   H     H_    0.486316 0.662045 0.190952 0.154233
H75   H     H_    0.033202 0.745041 0.531746 0.096475
H76   H     H_    0.272246 0.999913 0.461016 0.159321
O1    O     O_R   0.255040 0.869590 0.478480 -0.504785
O2    O     O_R   0.817950 0.203450 0.375560 -0.514052
O3    O     O_R   0.817950 0.796550 0.375560 -0.512005
O4    O     O_R   0.182050 0.203450 0.624440 -0.512003
O5    O     O_R   0.682050 0.296550 0.624440 -0.513686
O6    O     O_R   0.317950 0.703450 0.375560 -0.513685
O7    O     O_R   0.317950 0.296550 0.375560 -0.511193
O8    O     O_R   0.682050 0.703450 0.624440 -0.511194
O9    O     O_R   0.250530 0.763330 0.367210 -0.515081
O10   O     O_R   0.749470 0.236670 0.632790 -0.515077
O11   O     O_R   0.749470 0.763330 0.632790 -0.513135
O12   O     O_R   0.744960 0.130410 0.521520 -0.504783
O13   O     O_R   0.250530 0.236670 0.367210 -0.513139
O14   O     O_R   0.750530 0.263330 0.367210 -0.516480
O15   O     O_R   0.249470 0.736670 0.632790 -0.516480
O16   O     O_R   0.249470 0.263330 0.632790 -0.510428
O17   O     O_R   0.750530 0.736670 0.367210 -0.510427
O18   O     O_R   0.177260 0.690030 0.513710 -0.524636
O19   O     O_R   0.822740 0.309970 0.486290 -0.524638
O20   O     O_R   0.822740 0.690030 0.486290 -0.530329
O21   O     O_R   0.177260 0.309970 0.513710 -0.530328
O22   O     O_R   0.677260 0.190030 0.513710 -0.530830
O23   O     O_R   0.744960 0.869590 0.521520 -0.504480
O24   O     O_R   0.322740 0.809970 0.486290 -0.530831
O25   O     O_R   0.322740 0.190030 0.486290 -0.530314
O26   O     O_R   0.677260 0.809970 0.513710 -0.530314
O27   O     O_R   0.051640 0.926880 0.885090 -0.532567
O28   O     O_R   0.948360 0.073120 0.114910 -0.532567
O29   O     O_R   0.948360 0.926880 0.114910 -0.531098
O30   O     O_R   0.051640 0.073120 0.885090 -0.531096
O31   O     O_R   0.551640 0.426880 0.885090 -0.536376
O32   O     O_R   0.448360 0.573120 0.114910 -0.536375
O33   O     O_R   0.448360 0.426880 0.114910 -0.506437
O34   O     O_R   0.255040 0.130410 0.478480 -0.504481
O35   O     O_R   0.551640 0.573120 0.885090 -0.506436
O36   O     O_R   0.940620 0.926560 0.986760 -0.456119
O37   O     O_R   0.059380 0.073440 0.013240 -0.456086
O38   O     O_R   0.059380 0.926560 0.013240 -0.447328
O39   O     O_R   0.940620 0.073440 0.986760 -0.447368
O40   O     O_R   0.440620 0.426560 0.986760 -0.480435
O41   O     O_R   0.559380 0.573440 0.013240 -0.480436
O42   O     O_R   0.559380 0.426560 0.013240 -0.452810
O43   O     O_R   0.440620 0.573440 0.986760 -0.452809
O44   O     O_3   0.134948 0.962924 0.036534 -0.541643
O45   O     O_R   0.755040 0.369590 0.478480 -0.501865
O46   O     O_3   0.865042 0.037083 0.963460 -0.541677
O47   O     O_3   0.947614 0.799310 0.918350 -0.544848
O48   O     O_3   0.052386 0.200693 0.081647 -0.544853
O49   O     O_3   0.546456 0.308021 0.092425 -0.548549
O50   O     O_3   0.453547 0.691979 0.907573 -0.548548
O51   O     O_3   0.447411 0.299098 0.919098 -0.562719
O52   O     O_3   0.552589 0.700902 0.080902 -0.562719
O53   O     O_R   0.244960 0.630410 0.521520 -0.501864
O54   O     O_R   0.244960 0.369590 0.521520 -0.502746
O55   O     O_R   0.755040 0.630410 0.478480 -0.502747
O56   O     O_R   0.182050 0.796550 0.624440 -0.514048

loop_
_geom_bond_atom_site_label_1
_geom_bond_atom_site_label_2
_ccdc_geom_bond_type
C106  O50   S    
C38   H48   S    
C91   C188  S    
Cu6   O20   S    
Cu11  O17   S    
C160  H19   S    
C9    C143  A    
C44   O41   A    
C105  O49   S    
C96   H76   S    
C30   H40   S    
C124  C133  A    
C156  H15   S    
C50   C59   A    
C52   C61   A    
Cu4   O38   S    
C18   H28   S    
C54   C63   A    
C58   C60   A    
C5    O46   S    
Cu5   O19   S    
C61   C63   A    
C117  C132  A    
C104  H61   S    
C62   C64   A    
C91   C96   A    
C116  C195  A    
C93   C181  S    
C50   C90   A    
C113  C122  A    
C70   C74   A    
C157  H16   S    
C10   O51   S    
C102  H54   S    
C7    O48   S    
C78   C186  A    
Cu3   O36   S    
C4    C12   A    
C24   C85   A    
C14   H24   S    
C88   C97   A    
C119  C128  A    
C143  C151  A    
Cu3   Cu4   S    
C49   C69   A    
C42   C147  S    
C158  C167  A    
C9    O50   S    
Cu12  O40   S    
Cu1   O9    S    
C11   C20   A    
C166  C174  A    
C11   O52   S    
Cu3   O27   S    
C137  C146  A    
C127  C136  A    
C31   C121  A    
C139  C192  A    
C86   C90   A    
C71   C73   A    
C172  C190  A    
C17   C129  A    
C173  C191  A    
C82   C91   A    
C51   C66   A    
C52   C72   A    
C3    C118  A    
C101  H11   S    
C54   C70   A    
C97   H2    S    
C185  O12   A    
C175  O3    A    
C39   O36   A    
C103  O47   S    
C68   C80   A    
C79   C85   A    
C105  H62   S    
C66   C77   A    
C100  H49   S    
C41   O27   A    
C34   C124  A    
C10   C144  A    
C57   C78   A    
Cu11  O26   S    
C21   C172  A    
C98   H3    S    
C8    C17   A    
C56   C59   A    
C131  O7    A    
C44   C154  S    
C80   C88   A    
C92   C182  S    
C112  C191  A    
C95   C183  S    
C20   H30   S    
C102  H52   S    
C84   C93   A    
C103  H57   S    
C48   C67   A    
Cu4   O29   S    
C162  H21   S    
C86   C95   A    
C24   C77   A    
C2    C81   A    
C110  H13   S    
Cu2   Cu12  S    
C55   C71   A    
C2    C75   A    
C78   C87   A    
C48   C110  A    
C123  C132  A    
C140  C193  A    
C138  C191  A    
C67   C77   A    
C27   C178  A    
Cu1   O56   S    
C153  C163  S    
C56   H75   S    
C27   H37   S    
C79   H9    S    
Cu1   O18   S    
C4    O44   S    
C31   H41   S    
C69   C76   A    
C111  C119  A    
C53   C62   A    
C6    C139  A    
C18   C128  A    
C4    C137  A    
C46   C82   A    
C41   C146  S    
C29   C38   A    
Cu7   O13   S    
C8    C141  A    
C176  C193  A    
C23   H33   S    
C149  C158  A    
C152  C161  A    
C153  O15   A    
C105  H64   S    
C45   O42   A    
C100  H51   S    
C12   C134  A    
C55   C64   A    
C63   H12   S    
C106  H65   S    
C72   C75   A    
C141  C150  A    
C139  C148  A    
C162  C171  A    
Cu7   O34   S    
C181  O53   A    
C87   C187  S    
C15   C136  A    
C155  C163  A    
Cu12  O43   S    
C36   H46   S    
Cu2   O33   S    
C3    C180  A    
C109  C168  S    
Cu3   O39   S    
C28   H38   S    
Cu8   O14   S    
C41   O38   A    
C145  C154  A    
C88   C185  S    
C21   H31   S    
C115  C194  A    
C3    C145  A    
C116  C125  A    
C118  C127  A    
C114  C123  A    
C39   O29   A    
C22   C173  A    
C37   C126  A    
C117  C126  A    
C26   C177  A    
C19   C132  A    
C113  C192  A    
C83   C101  A    
C47   O32   A    
C154  C162  A    
Cu6   O23   S    
C43   O40   A    
C111  C134  A    
C144  C196  A    
C14   C133  A    
C182  O45   A    
C1    O9    A    
C170  C179  A    
Cu6   Cu11  S    
Cu10  O25   S    
C112  C121  A    
C144  C152  A    
C28   C37   A    
C181  O18   A    
C148  C157  A    
Cu7   O21   S    
C50   C65   A    
C51   C79   A    
C183  O20   A    
C90   H10   S    
C43   C152  S    
C137  C190  A    
C9    C18   A    
C51   C60   A    
C107  H70   S    
C140  C149  A    
C108  H73   S    
C25   C33   A    
C125  C134  A    
C184  O54   A    
C73   C74   A    
Cu1   Cu9   S    
C104  H59   S    
Cu11  O8    S    
C109  O5    A    
Cu11  O55   S    
C166  C175  S    
C175  O17   A    
C65   C76   A    
C82   C186  A    
C187  O24   A    
Cu2   O41   S    
C19   H29   S    
C49   C101  A    
C7    C140  A    
C168  C177  A    
C43   O33   A    
C45   C150  S    
C159  H18   S    
C45   O31   A    
C146  C155  A    
C57   H7    S    
C65   C67   A    
C39   C148  S    
C160  C169  A    
C93   C99   A    
C161  H20   S    
C81   C89   A    
Cu8   O5    S    
C94   C184  S    
C22   H32   S    
C179  C196  A    
C25   H35   S    
Cu7   Cu10  S    
C100  H50   S    
C34   H44   S    
C177  C194  A    
C164  O4    A    
C32   C122  A    
C106  H68   S    
C107  O51   S    
C150  C159  A    
Cu4   O37   S    
C23   C174  A    
C53   C57   A    
Cu8   O45   S    
C182  O19   A    
C118  C130  A    
C16   H26   S    
C10   C19   A    
C143  C195  A    
C46   C54   A    
C102  H53   S    
C6    O47   S    
C120  C171  S    
C147  C156  A    
C35   H5    S    
C158  H17   S    
Cu4   O28   S    
C5    C14   A    
C7    C16   A    
C47   C151  S    
C126  C135  A    
Cu12  O35   S    
C64   H1    S    
C120  O8    A    
C61   H34   S    
C115  C124  A    
C164  C167  S    
C121  C129  A    
C12   H22   S    
Cu9   O53   S    
C27   C36   A    
C21   C30   A    
C13   C83   A    
C108  O52   S    
C23   C32   A    
C8    O49   S    
C156  C165  A    
C60   H45   S    
C40   C149  S    
C184  O21   A    
C68   H8    S    
C28   C179  A    
Cu9   O24   S    
C40   O30   A    
C111  C190  A    
C62   H23   S    
C30   C119  A    
C89   C189  S    
C131  O13   A    
Cu5   O2    S    
C74   C186  A    
Cu7   O4    S    
C105  H63   S    
C131  C170  S    
C114  C193  A    
C36   C125  A    
C106  H66   S    
C112  C133  A    
Cu9   O15   S    
C107  H71   S    
Cu10  O16   S    
C38   C127  A    
C35   C81   A    
C95   C98   A    
C92   C98   A    
C5    C138  A    
C83   C92   A    
C47   O43   A    
C189  O23   A    
Cu8   O22   S    
C40   O37   A    
C42   O39   A    
C26   H36   S    
C66   C69   A    
C109  O10   A    
C165  C173  A    
C32   H42   S    
C159  C168  A    
C103  H58   S    
Cu9   O6    S    
C33   H43   S    
C6    C15   A    
C26   C34   A    
Cu5   O10   S    
C46   H6    S    
C113  C136  A    
C13   C86   A    
C114  C135  A    
C52   C68   A    
C29   H39   S    
C104  O48   S    
C99   H4    S    
C17   H27   S    
C22   C31   A    
C35   C55   A    
C59   H56   S    
C188  O34   A    
C11   C145  A    
C37   H47   S    
C29   C180  A    
C84   C110  A    
C49   C58   A    
C89   C97   A    
C188  O25   A    
C153  O56   A    
C163  C172  A    
C85   C94   A    
C13   C76   A    
C138  C147  A    
C142  O14   A    
C87   C96   A    
C15   H25   S    
C102  O46   S    
C189  O26   A    
Cu6   O3    S    
C142  O2    A    
C161  C170  A    
C185  O22   A    
Cu5   Cu8   S    
C171  C180  A    
Cu3   O30   S    
C107  H69   S    
C169  C178  A    
C108  H74   S    
C115  C129  A    
C48   C56   A    
C58   H67   S    
C1    O6    A    
C42   O28   A    
C53   C73   A    
C104  H60   S    
C120  O11   A    
C20   C130  A    
C157  C166  A    
Cu1   O1    S    
C178  C195  A    
Cu10  O54   S    
Cu2   O32   S    
C151  C160  A    
C24   C84   A    
Cu10  O7    S    
Cu2   O42   S    
C117  C196  A    
C142  C165  S    
C71   C75   A    
C187  O1    A    
C25   C176  A    
C94   C99   A    
Cu5   O12   S    
C100  O44   S    
C1    C169  S    
Cu6   O11   S    
Cu12  O31   S    
C141  C194  A    
C44   O35   A    
C164  O16   A    
C2    C80   A    
C183  O55   A    
C116  C128  A    
C174  C192  A    
C33   C123  A    
C103  H55   S    
C155  H14   S    
C70   C72   A    
C108  H72   S    
C16   C135  A    
C122  C130  A    
C167  C176  A    
