data_mof_unit_18765.cif
_audit_creation_date              2013-03-05T15:44:22-0500
_audit_creation_method            fapswitch 2.2
_symmetry_space_group_name_H-M    P1
_symmetry_Int_Tables_number       1
_space_group_crystal_system       triclinic
_cell_length_a                    18.963402
_cell_length_b                    18.876056
_cell_length_c                    20.343092
_cell_angle_alpha                 106.980297
_cell_angle_beta                  106.457816
_cell_angle_gamma                 111.296904
_cell_volume                      5836.56822702

loop_
_atom_site_label
_atom_site_type_symbol
_atom_site_description
_atom_site_fract_x
_atom_site_fract_y
_atom_site_fract_z
_atom_type_partial_charge
C1    C     C_R   0.084103 0.087981 0.353054 -0.137050
H1    H     H_    0.131293 0.153169 0.375018 0.084409
N1    N     N_R   0.052580 0.056040 0.395500 -0.036621
C2    C     C_R   0.752586 0.928352 0.478075 -0.129735
H2    H     H_    0.703892 0.863468 0.452122 0.090974
N2    N     N_R   0.834730 0.954500 0.499860 -0.039922
C3    C     C_R   0.839349 0.812477 0.280871 -0.127129
H3    H     H_    0.859891 0.808467 0.236203 0.095507
N3    N     N_R   0.890210 0.849400 0.355780 -0.039821
C4    C     C_R   0.955572 0.202982 0.525039 -0.122590
H4    H     H_    0.918390 0.216735 0.552472 0.087188
N4    N     N_R   0.997110 0.161140 0.539580 -0.040955
C5    C     C_R   0.760719 0.801449 0.344668 -0.114901
H5    H     H_    0.707726 0.784096 0.357761 0.097600
N5    N     N_R   0.841950 0.845400 0.395490 -0.041025
C6    C     C_R   0.029937 0.204916 0.457502 -0.129046
H6    H     H_    0.057223 0.214614 0.419006 0.096590
N6    N     N_R   0.045360 0.165140 0.499870 -0.041858
C7    C     C_R   0.822635 0.068668 0.544452 -0.129674
H7    H     H_    0.839063 0.132227 0.580268 0.084544
N7    N     N_R   0.877490 0.041510 0.539580 -0.039288
C8    C     C_R   0.014086 0.947816 0.288722 -0.151231
H8    H     H_    0.998511 0.884488 0.252177 0.088148
N8    N     N_R   0.009820 0.969030 0.355780 -0.034828
C9    C     C_R   0.060406 0.021399 0.284895 0.055293
C10   C     C_R   0.742872 0.999726 0.499852 0.075916
C11   C     C_R   0.757175 0.783636 0.272285 0.041850
C12   C     C_R   0.970866 0.226777 0.469964 0.075777
C13   C     C_R   0.231912 0.225937 0.646205 -0.122701
H9    H     H_    0.275521 0.250616 0.623683 0.090597
N9    N     N_R   0.158050 0.154600 0.604510 -0.038335
C14   C     C_R   0.920696 0.756157 0.494157 -0.142850
H10   H     H_    0.869905 0.731384 0.509300 0.089203
N10   N     N_R   0.954640 0.834860 0.500130 -0.040628
C15   C     C_R   0.167313 0.934120 0.428499 -0.116739
H11   H     H_    0.142776 0.869667 0.388199 0.163931
N11   N     N_R   0.122510 0.958490 0.460420 -0.051223
C16   C     C_R   0.034136 0.052346 0.717936 -0.127174
H12   H     H_    0.076100 0.116330 0.762264 0.099523
N12   N     N_R   0.990180 0.030970 0.644220 -0.040439
C17   C     C_R   0.964402 0.911147 0.653437 -0.123614
H13   H     H_    0.943381 0.844675 0.637693 0.102441
N13   N     N_R   0.947420 0.943960 0.604500 -0.041649
C18   C     C_R   0.235543 0.074469 0.491129 -0.129765
H14   H     H_    0.273205 0.140574 0.506291 0.087235
N14   N     N_R   0.165270 0.045500 0.500140 -0.042219
C19   C     C_R   0.153990 0.222085 0.710057 -0.147408
H15   H     H_    0.127142 0.243128 0.746927 0.093391
N15   N     N_R   0.109790 0.150600 0.644220 -0.038600
C20   C     C_R   0.000090 0.764336 0.431689 -0.124180
H16   H     H_    0.023234 0.748230 0.389899 0.093675
N16   N     N_R   0.002890 0.838860 0.460420 -0.041591
Ni1   Ni    Ni4+2 0.104370 0.104380 0.500010 0.210019
Ni2   Ni    Ni4+2 0.895630 0.895620 0.499990 0.216019
Ni3   Ni    Ni4+2 0.006300 0.904810 0.408930 0.212501
Ni4   Ni    Ni4+2 0.993700 0.095190 0.591070 0.215651
C21   C     C_R   0.231161 0.270782 0.712976 0.042397
C22   C     C_R   0.947081 0.709672 0.450426 0.082758
C23   C     C_R   0.237401 0.006146 0.443549 0.113681
C24   C     C_R   0.020711 0.978149 0.725234 0.032967
C25   C     C_R   0.946150 0.579576 0.373514 -0.251159
C26   C     C_R   0.915341 0.617744 0.419975 0.110339
C27   C     C_R   0.860347 0.569118 0.442793 -0.253887
C28   C     C_R   0.847070 0.487717 0.429944 0.141178
C29   C     C_R   0.888150 0.454508 0.392616 0.029324
C30   C     C_R   0.934213 0.498759 0.360823 0.135940
C31   C     C_R   0.800804 0.442837 0.460829 -0.201134
C32   C     C_R   0.803172 0.370354 0.462329 -0.194885
C33   C     C_R   0.852418 0.343002 0.433539 0.139265
C34   C     C_R   0.891239 0.382252 0.394787 0.027965
C35   C     C_R   0.941107 0.355280 0.365884 0.137899
C36   C     C_R   0.978808 0.394034 0.326751 -0.197716
C37   C     C_R   0.975194 0.465572 0.324065 -0.194356
C38   C     C_R   0.871243 0.283836 0.450335 -0.246218
C39   C     C_R   0.931787 0.267427 0.432478 0.114875
C40   C     C_R   0.960216 0.296939 0.384155 -0.250356
H17   H     H_    0.985751 0.614601 0.352583 0.123984
H18   H     H_    0.833376 0.596325 0.476125 0.118146
H19   H     H_    0.767598 0.466863 0.488341 0.130388
H20   H     H_    0.771792 0.339632 0.491021 0.127652
H21   H     H_    0.844197 0.256918 0.483154 0.117111
H22   H     H_    0.003320 0.281191 0.366343 0.119565
H23   H     H_    0.015966 0.372797 0.303051 0.135515
H24   H     H_    0.009554 0.498347 0.298235 0.140255
C41   C     C_R   0.371646 0.089301 0.442411 -0.325396
C42   C     C_R   0.298322 0.011335 0.410884 -0.070415
C43   C     C_R   0.291556 0.938168 0.357938 0.574614
C44   C     C_R   0.365279 0.938635 0.356977 -0.084403
C45   C     C_R   0.442422 0.014497 0.401719 -0.027557
C46   C     C_R   0.444355 0.091267 0.439350 0.167865
C47   C     C_R   0.364237 0.863360 0.317456 -0.225083
C48   C     C_R   0.439380 0.860405 0.329896 0.324852
C49   C     C_R   0.516435 0.934123 0.384178 -0.038465
C50   C     C_R   0.517941 0.012351 0.415450 0.044414
C51   C     C_R   0.594628 0.087399 0.466575 0.171277
C52   C     C_R   0.596045 0.165160 0.495753 -0.217880
C53   C     C_R   0.520887 0.167095 0.482171 -0.179637
C54   C     C_R   0.590732 0.930687 0.413018 -0.171724
C55   C     C_R   0.665523 0.004001 0.469502 0.092344
C56   C     C_R   0.667943 0.082781 0.492321 -0.252337
H25   H     H_    0.376362 0.147583 0.477876 0.141879
H26   H     H_    0.305001 0.805706 0.279292 0.216454
H27   H     H_    0.589654 0.870485 0.393971 0.158959
H28   H     H_    0.725767 0.140694 0.532895 0.111895
H29   H     H_    0.654949 0.223450 0.533361 0.124194
H30   H     H_    0.522830 0.226724 0.510011 0.124315
C57   C     C_R   0.289848 0.361144 0.764009 0.137959
C58   C     C_R   0.262298 0.413975 0.799965 -0.183191
C59   C     C_R   0.318898 0.499272 0.849209 -0.150631
C60   C     C_R   0.404167 0.532474 0.864079 0.219836
C61   C     C_R   0.430277 0.480959 0.824253 -0.177554
C62   C     C_R   0.373661 0.395889 0.774776 -0.177840
C63   C     C_R   0.617913 0.744986 0.077312 -0.150103
C64   C     C_R   0.689338 0.774507 0.143580 -0.178077
C65   C     C_R   0.601626 0.702656 0.194994 -0.117810
C66   C     C_R   0.530328 0.672797 0.128637 -0.088906
C67   C     C_R   0.538014 0.691247 0.068275 0.189778
C68   C     C_2   0.469778 0.615250 0.928345 -0.225063
C69   C     C_2   0.463187 0.643334 0.993915 -0.187614
C70   C     C_R   0.681854 0.751945 0.202193 0.111808
H31   H     H_    0.197223 0.389665 0.790300 0.119427
H32   H     H_    0.750275 0.815136 0.148894 0.120865
H33   H     H_    0.593859 0.684945 0.239544 0.127187
H34   H     H_    0.402975 0.613455 0.995096 0.139403
H35   H     H_    0.495698 0.505260 0.834765 0.114998
H36   H     H_    0.625651 0.762750 0.032791 0.119611
H37   H     H_    0.396166 0.356634 0.746968 0.117014
H38   H     H_    0.531117 0.640693 0.928347 0.130700
H39   H     H_    0.296269 0.538295 0.877041 0.128118
H40   H     H_    0.469337 0.631531 0.122942 0.138577
C71   C     C_R   0.094997 0.025460 0.228841 0.127405
C72   C     C_R   0.055335 0.955349 0.157247 -0.242786
C73   C     C_R   0.088345 0.957193 0.104475 -0.099197
C74   C     C_R   0.161749 0.029240 0.122221 0.293931
C75   C     C_R   0.201291 0.099567 0.193295 -0.164735
C76   C     C_R   0.168760 0.097494 0.246664 -0.190262
C77   C     C_R   0.188494 0.034710 0.914120 -0.184551
C78   C     C_R   0.147366 0.038159 0.847416 -0.151150
C79   C     C_R   0.029605 0.900177 0.804483 -0.189200
C80   C     C_R   0.070329 0.897186 0.871574 -0.101622
C81   C     C_R   0.149053 0.965358 0.927743 0.091838
C82   C     C_2   0.187174 0.037182 0.061683 -0.403322
C83   C     C_2   0.179567 0.971139 0.005495 0.291240
C84   C     C_R   0.066524 0.971978 0.793130 0.140939
H41   H     H_    0.997810 0.899469 0.141288 0.124223
H42   H     H_    0.178258 0.093317 0.839106 0.117465
H43   H     H_    0.967412 0.848319 0.763442 0.114988
H44   H     H_    0.256576 0.156503 0.206939 0.126871
H45   H     H_    0.249097 0.088066 0.956943 0.127138
H46   H     H_    0.201546 0.152365 0.301511 0.117071
H47   H     H_    0.191165 0.092469 0.053070 0.135689
H48   H     H_    0.054371 0.903599 0.048506 0.119572
H49   H     H_    0.037627 0.844178 0.881802 0.137898
O1    O     O_3   0.216065 0.863463 0.314485 -0.651582
C85   C     C_3   0.169228 0.869746 0.251072 -0.250111
H50   H     H_    0.108371 0.810062 0.215847 0.173971
H51   H     H_    0.202631 0.878175 0.214587 0.199591
H52   H     H_    0.155019 0.922324 0.269455 0.146410
N17   N     N_R   0.436099 0.782186 0.288591 0.232148
O2    O     O_R   0.488668 0.782553 0.259014 -0.423266
O3    O     O_R   0.372861 0.709980 0.270009 -0.403228
N18   N     N_R   0.184855 0.900838 0.017004 0.241382
O4    O     O_R   0.166826 0.833630 0.959257 -0.398369
O5    O     O_R   0.221447 0.909501 0.085677 -0.399731

loop_
_geom_bond_atom_site_label_1
_geom_bond_atom_site_label_2
_geom_bond_distance
_ccdc_geom_bond_type
C32   H20   1.083937 S    
C43   C44   1.400571 A    
C22   C26   1.469453 S    
C49   C50   1.412928 A    
C85   H51   1.113390 S    
C17   H13   1.079552 S    
C51   C52   1.400336 A    
C14   C22   1.388116 A    
C58   H31   1.081932 S    
C52   H29   1.083977 S    
N11   Ni3   1.852146 S    
C60   C68   1.473650 S    
C3    H3    1.079346 S    
C19   N15   1.343084 A    
C41   C42   1.402693 A    
C58   C59   1.393294 A    
N8    Ni3   1.841380 S    
C79   H43   1.082739 S    
C26   C27   1.404779 A    
C48   N17   1.438361 S    
C72   H41   1.082345 S    
C7    N7    1.330732 A    
N9    N15   1.378463 A    
N18   O4    1.301233 A    
N2    N7    1.376266 A    
C81   C83   1.477602 S    
C16   H12   1.078989 S    
C74   C82   1.470845 S    
C18   C23   1.387297 A    
C54   H27   1.078585 S    
C56   H28   1.080790 S    
C3    C11   1.388940 A    
C66   C67   1.401683 A    
C15   C23   1.386490 A    
C1    H1    1.080276 S    
C57   C62   1.402101 A    
C45   C50   1.397385 A    
C7    C10   1.381122 A    
C68   C69   1.343699 D    
C62   H37   1.082981 S    
N6    Ni1   1.870835 S    
C60   C61   1.401435 A    
C25   C30   1.389632 A    
N12   N13   1.376266 A    
C83   N18   1.445902 S    
C19   H15   1.081110 S    
C25   H17   1.080404 S    
C72   C73   1.390090 A    
N12   Ni4   1.841381 S    
C8    C9    1.386538 A    
C61   H35   1.083625 S    
C20   N16   1.330863 A    
C57   C58   1.404072 A    
N17   O3    1.301384 A    
C34   C35   1.410367 A    
N3    Ni3   1.851382 S    
C37   H24   1.083737 S    
C6    C12   1.387430 A    
N16   Ni3   1.841903 S    
C10   C55   1.463272 S    
C36   C37   1.392585 A    
C69   H34   1.085401 S    
C5    H5    1.073141 S    
C85   H52   1.109956 S    
C1    C9    1.386693 A    
C17   N13   1.342317 A    
C77   H45   1.083269 S    
N1    N8    1.376269 A    
C33   C34   1.409311 A    
C73   H48   1.083056 S    
C68   H38   1.085283 S    
N2    Ni2   1.871192 S    
C18   N14   1.332701 A    
N18   O5    1.301844 A    
C8    H8    1.081170 S    
C65   H33   1.082433 S    
C38   C39   1.405355 A    
C31   C32   1.393964 A    
C20   C22   1.383426 A    
C28   C31   1.401972 A    
C75   C76   1.395579 A    
C31   H19   1.083668 S    
C80   C81   1.403341 A    
C2    N2    1.337572 A    
C71   C76   1.407121 A    
C40   H22   1.081285 S    
C47   C48   1.399751 A    
C51   C56   1.384538 A    
C32   C33   1.401873 A    
C63   H36   1.082216 S    
C11   C70   1.469118 S    
C30   C37   1.401732 A    
C1    N1    1.342089 A    
C15   H11   1.076500 S    
C14   N10   1.338558 A    
C82   H47   1.087418 S    
C29   C34   1.399054 A    
C39   C40   1.403329 A    
N5    Ni2   1.830276 S    
C13   H9    1.081812 S    
C19   C21   1.389901 A    
C79   C84   1.401990 A    
N13   Ni2   1.830322 S    
C2    C10   1.386805 A    
N17   O2    1.301203 A    
C44   C47   1.403249 A    
C41   C46   1.385364 A    
C52   C53   1.389096 A    
C20   H16   1.079425 S    
C43   O1    1.381224 S    
C33   C38   1.390980 A    
N9    Ni1   1.830276 S    
O1    C85   1.408446 S    
N4    Ni4   1.841903 S    
C4    N4    1.337213 A    
C63   C67   1.405437 A    
C53   H30   1.083846 S    
C21   C57   1.468956 S    
C13   C21   1.382006 A    
C65   C70   1.402724 A    
C50   C51   1.410421 A    
C5    N5    1.341030 A    
C59   H39   1.082120 S    
C73   C74   1.403870 A    
C16   C24   1.390053 A    
C38   H21   1.081577 S    
C71   C72   1.403135 A    
C9    C71   1.474735 S    
C41   H25   1.080349 S    
C18   H14   1.079486 S    
C63   C64   1.393130 A    
C4    C12   1.387290 A    
C3    N3    1.340434 A    
C77   C81   1.402868 A    
C46   C53   1.400100 A    
C61   C62   1.391270 A    
C15   N11   1.333113 A    
C42   C43   1.417084 A    
C17   C24   1.389028 A    
C2    H2    1.075171 S    
N7    Ni4   1.852143 S    
C76   H46   1.080919 S    
C79   C80   1.393494 A    
N10   Ni2   1.870835 S    
C74   C75   1.398761 A    
N15   Ni4   1.851382 S    
C77   C78   1.393806 A    
C80   H49   1.083066 S    
N10   N16   1.378308 A    
C55   C56   1.401479 A    
C14   H10   1.079982 S    
C7    H7    1.075450 S    
C67   C69   1.473831 S    
N3    N5    1.378462 A    
C23   C42   1.475334 S    
C35   C36   1.400986 A    
C13   N9    1.335746 A    
C78   C84   1.405043 A    
C59   C60   1.405306 A    
C28   C29   1.410096 A    
C16   N12   1.341809 A    
N1    Ni1   1.830322 S    
C35   C40   1.390995 A    
C78   H42   1.082437 S    
N14   Ni1   1.871190 S    
C48   C49   1.414953 A    
C8    N8    1.339713 A    
C29   C30   1.408780 A    
C25   C26   1.405223 A    
C64   C70   1.404224 A    
C36   H23   1.083730 S    
C4    H4    1.071126 S    
C27   C28   1.392747 A    
C64   H32   1.082706 S    
C75   H44   1.083343 S    
C66   H40   1.083893 S    
C44   C45   1.407700 A    
C6    N6    1.336707 A    
C54   C55   1.403230 A    
N4    N6    1.378310 A    
C85   H50   1.109049 S    
C82   C83   1.350955 D    
C5    C11   1.387128 A    
C47   H26   1.083173 S    
N11   N14   1.376268 A    
C45   C46   1.408852 A    
C12   C39   1.467684 S    
C49   C54   1.397764 A    
C24   C84   1.470936 S    
C65   C66   1.391347 A    
C6    H6    1.076599 S    
C27   H18   1.081214 S    
