data_mof_unit_23462.cif
_audit_creation_date              2012-12-11T14:56:08-0500
_audit_creation_method            fapswitch 2.2
_symmetry_space_group_name_H-M    P1
_symmetry_Int_Tables_number       1
_space_group_crystal_system       triclinic
_cell_length_a                    28.101071
_cell_length_b                    17.236167
_cell_length_c                    18.074155
_cell_angle_alpha                 89.946742
_cell_angle_beta                  138.071452
_cell_angle_gamma                 90.111939
_cell_volume                      5849.64137589

loop_
_atom_site_label
_atom_site_type_symbol
_atom_type_description
_atom_site_fract_x
_atom_site_fract_y
_atom_site_fract_z
_atom_type_partial_charge
C1    C     C_R   0.667565 0.922195 0.817196 -0.139608
C2    C     C_R   0.332400 0.077732 0.182870 -0.140938
C3    C     C_R   0.312742 0.897949 0.197421 -0.151832
C4    C     C_R   0.686160 0.101508 0.804591 -0.150756
C5    C     C_R   0.187200 0.398081 0.802483 -0.149966
C6    C     C_R   0.812604 0.602283 0.198223 -0.149960
C7    C     C_R   0.832790 0.423225 0.183008 -0.140269
C8    C     C_R   0.166452 0.577026 0.816861 -0.139842
C9    C     C_3   0.760695 0.346540 0.950206 -0.157851
C10   C     C_3   0.230617 0.653291 0.048063 -0.152102
C11   C     C_3   0.271273 0.297029 0.015052 -0.152656
C12   C     C_3   0.729031 0.703820 0.986721 -0.152166
C13   C     C_3   0.226926 0.796429 0.984747 -0.154252
C14   C     C_3   0.774550 0.201348 0.018916 -0.160274
C15   C     C_3   0.729441 0.846161 0.047801 -0.151987
C16   C     C_3   0.269044 0.154374 0.952468 -0.155937
C17   C     C_R   0.613840 0.850760 0.359933 0.131065
C18   C     C_R   0.280502 0.243197 0.361841 0.114942
C19   C     C_R   0.283594 0.756298 0.378410 0.124691
C20   C     C_R   0.715309 0.244980 0.618568 0.123706
C21   C     C_R   0.153005 0.308981 0.437527 0.140111
C22   C     C_R   0.785081 0.744628 0.382294 0.126301
C23   C     C_R   0.886702 0.351172 0.640987 0.130735
C24   C     C_R   0.115674 0.654995 0.364006 0.132519
C25   C     C_R   0.264251 0.364251 0.407486 -0.222938
C26   C     C_R   0.607440 0.747882 0.261536 -0.234856
C27   C     C_R   0.737526 0.374445 0.597041 -0.230863
C28   C     C_R   0.260031 0.626972 0.397776 -0.227376
C29   C     C_R   0.763249 0.874011 0.404231 -0.232728
C30   C     C_R   0.133088 0.216119 0.316194 -0.231890
C31   C     C_R   0.107965 0.756605 0.262908 -0.232670
C32   C     C_R   0.893054 0.248512 0.739698 -0.232412
C33   C     C_R   0.300625 0.320855 0.397038 -0.173146
C34   C     C_R   0.578856 0.785607 0.289462 -0.173973
C35   C     C_R   0.693653 0.322503 0.583362 -0.181369
C36   C     C_R   0.304241 0.678320 0.411505 -0.179131
C37   C     C_R   0.806929 0.822172 0.417635 -0.179322
C38   C     C_R   0.120422 0.240926 0.373023 -0.180740
C39   C     C_R   0.081185 0.720708 0.294799 -0.173306
C40   C     C_R   0.921615 0.286147 0.711545 -0.172272
C41   C     C_R   0.213045 0.218567 0.305981 -0.280042
C42   C     C_R   0.667409 0.887344 0.380802 -0.282787
C43   C     C_R   0.786197 0.224721 0.686464 -0.299793
C44   C     C_R   0.213029 0.777457 0.311016 -0.300582
C45   C     C_R   0.714199 0.724225 0.314630 -0.302307
C46   C     C_R   0.193980 0.355097 0.437368 -0.281336
C47   C     C_R   0.166482 0.616319 0.379928 -0.277021
C48   C     C_R   0.833378 0.387832 0.620444 -0.280955
C49   C     C_R   0.182127 0.256248 0.329512 0.196021
C50   C     C_R   0.698683 0.847763 0.358429 0.191810
C51   C     C_R   0.829004 0.275079 0.695365 0.195904
C52   C     C_R   0.170348 0.728121 0.303305 0.195192
C53   C     C_R   0.671559 0.774511 0.305913 0.196032
C54   C     C_R   0.210899 0.327746 0.387060 0.189296
C55   C     C_R   0.196624 0.654510 0.354713 0.190780
C56   C     C_R   0.802056 0.348288 0.642899 0.191607
C57   C     C_R   0.324845 0.103947 0.400663 -0.120542
C58   C     C_R   0.639961 0.928834 0.508377 -0.130460
C59   C     C_R   0.674299 0.104804 0.594678 -0.146454
C60   C     C_R   0.325846 0.896346 0.406663 -0.119053
C61   C     C_R   0.825764 0.604585 0.405513 -0.145075
C62   C     C_R   0.162762 0.404744 0.555447 -0.142095
C63   C     C_R   0.143173 0.576886 0.513582 -0.122537
C64   C     C_R   0.860245 0.428816 0.491943 -0.131619
C65   C     C_R   0.408222 0.803164 0.495084 -0.144930
C66   C     C_R   0.591286 0.197008 0.504112 -0.143746
C67   C     C_R   0.557669 0.834255 0.421449 -0.134655
C68   C     C_R   0.406920 0.197510 0.488968 -0.132585
C69   C     C_R   0.942369 0.334368 0.578718 -0.136384
C70   C     C_R   0.058458 0.668002 0.423596 -0.138615
C71   C     C_R   0.078911 0.312608 0.465696 -0.132237
C72   C     C_R   0.908914 0.696919 0.496212 -0.141045
C73   C     C_R   0.601190 0.191971 0.716308 -0.131081
C74   C     C_R   0.396057 0.806408 0.285984 -0.146421
C75   C     C_R   0.416701 0.169839 0.273575 -0.129696
C76   C     C_R   0.583161 0.830278 0.726435 -0.128533
C77   C     C_R   0.082536 0.669404 0.725939 -0.128883
C78   C     C_R   0.914450 0.328898 0.272144 -0.125896
C79   C     C_R   0.896030 0.693842 0.286794 -0.143479
C80   C     C_R   0.103698 0.306464 0.713843 -0.145685
C81   C     C_R   0.641194 0.861911 0.829080 0.030231
C82   C     C_R   0.358659 0.138163 0.171035 0.031450
C83   C     C_R   0.325704 0.822535 0.193031 0.043476
C84   C     C_R   0.671243 0.175462 0.810471 0.038313
C85   C     C_R   0.173983 0.322743 0.806833 0.040050
C86   C     C_R   0.825550 0.677917 0.194428 0.042300
C87   C     C_R   0.858024 0.362425 0.170384 0.033822
C88   C     C_R   0.139914 0.637190 0.828550 0.031411
C89   C     C_R   0.335400 0.183762 0.416468 0.064893
C90   C     C_R   0.603703 0.871498 0.426384 0.062373
C91   C     C_R   0.662130 0.183998 0.571105 0.073975
C92   C     C_R   0.337440 0.816850 0.428332 0.067589
C93   C     C_R   0.838083 0.683766 0.429368 0.073900
C94   C     C_R   0.137522 0.336405 0.494078 0.059414
C95   C     C_R   0.106137 0.633687 0.431001 0.061397
C96   C     C_R   0.896560 0.371649 0.574060 0.062494
C97   C     C_3   0.701334 0.299878 0.920747 -0.168666
C98   C     C_3   0.294524 0.695155 0.085603 -0.170024
C99   C     C_3   0.335743 0.256700 0.053679 -0.167925
C100  C     C_3   0.663828 0.743399 0.946521 -0.169698
C101  C     C_3   0.163090 0.755103 0.947413 -0.169342
C102  C     C_3   0.833885 0.247548 0.048200 -0.167861
C103  C     C_3   0.794765 0.806019 0.088284 -0.169561
C104  C     C_3   0.204491 0.195234 0.913626 -0.169271
C105  C     C_3   0.210983 0.728672 0.067986 -0.142445
C106  C     C_3   0.780634 0.274276 0.926290 -0.139467
C107  C     C_3   0.749471 0.778898 0.970072 -0.137202
C108  C     C_3   0.250820 0.222285 0.032299 -0.136575
C109  C     C_3   0.753942 0.272514 0.041101 -0.134956
C110  C     C_3   0.247260 0.722274 0.966656 -0.136399
C111  C     C_3   0.288859 0.230288 0.933528 -0.144956
C112  C     C_3   0.709723 0.769837 0.066313 -0.143385
C113  C     C_3   0.273927 0.769260 0.103131 0.183507
C114  C     C_3   0.722304 0.228888 0.899300 0.184877
C115  C     C_3   0.684711 0.818356 0.930453 0.184156
C116  C     C_3   0.314789 0.182117 0.070180 0.185042
C117  C     C_3   0.812750 0.318450 0.069653 0.184744
C118  C     C_3   0.183877 0.681073 0.929924 0.183948
C119  C     C_3   0.225281 0.269877 0.897037 0.186118
C120  C     C_3   0.774069 0.730973 0.104371 0.183842
H1    H     H_    0.716003 0.954527 0.882710 0.097852
H2    H     H_    0.284012 0.045272 0.117473 0.097580
H3    H     H_    0.261183 0.925013 0.144060 0.089003
H4    H     H_    0.738254 0.075681 0.858567 0.090720
H5    H     H_    0.238795 0.425362 0.856158 0.091643
H6    H     H_    0.761036 0.575041 0.144952 0.090189
H7    H     H_    0.784810 0.456173 0.117970 0.098431
H8    H     H_    0.214503 0.544389 0.882565 0.098528
H9    H     H_    0.783708 0.931069 0.441600 0.126194
H10   H     H_    0.110462 0.161445 0.271830 0.122972
H11   H     H_    0.085579 0.811598 0.219600 0.123733
H12   H     H_    0.916017 0.193941 0.784047 0.123915
H13   H     H_    0.284999 0.420506 0.447442 0.117099
H14   H     H_    0.584365 0.693259 0.217192 0.124441
H15   H     H_    0.717208 0.431475 0.559720 0.126292
H16   H     H_    0.279729 0.569625 0.434076 0.119653
H17   H     H_    0.274257 0.074378 0.338163 0.082262
H18   H     H_    0.679455 0.968648 0.533137 0.099306
H19   H     H_    0.725748 0.077158 0.657912 0.086634
H20   H     H_    0.274795 0.924931 0.344943 0.081883
H21   H     H_    0.774261 0.576844 0.342251 0.086374
H22   H     H_    0.214337 0.430623 0.605756 0.085121
H23   H     H_    0.187790 0.544687 0.544965 0.087775
H24   H     H_    0.820869 0.468541 0.467344 0.099749
H25   H     H_    0.575270 0.247882 0.689173 0.088298
H26   H     H_    0.420529 0.749663 0.314507 0.085902
H27   H     H_    0.446705 0.220897 0.292737 0.095220
H28   H     H_    0.552919 0.779437 0.707162 0.096168
H29   H     H_    0.053005 0.720803 0.706815 0.096325
H30   H     H_    0.938537 0.273851 0.287351 0.090061
H31   H     H_    0.920910 0.750467 0.315259 0.084774
H32   H     H_    0.078795 0.249849 0.685767 0.086589
H33   H     H_    0.198098 0.732952 0.112891 0.123018
H34   H     H_    0.789408 0.273051 0.875700 0.123390
H35   H     H_    0.765157 0.783091 0.929079 0.113548
H36   H     H_    0.236002 0.218406 0.074565 0.115596
H37   H     H_    0.743911 0.272602 0.090074 0.114161
H38   H     H_    0.261525 0.719162 0.923581 0.113525
H39   H     H_    0.302540 0.235266 0.889792 0.112073
H40   H     H_    0.695432 0.764489 0.109181 0.121839
H41   H     H_    0.646202 0.320242 0.867438 0.107306
H42   H     H_    0.349100 0.671267 0.143004 0.103640
H43   H     H_    0.390507 0.280620 0.112664 0.107288
H44   H     H_    0.609222 0.718906 0.886900 0.108034
H45   H     H_    0.108256 0.778410 0.889197 0.108444
H46   H     H_    0.889306 0.227794 0.102396 0.110698
H47   H     H_    0.849118 0.831097 0.147159 0.103341
H48   H     H_    0.149975 0.170744 0.855419 0.103339
H49   H     H_    0.756881 0.407151 0.925399 0.111885
H50   H     H_    0.230482 0.593605 0.071013 0.113497
H51   H     H_    0.270975 0.356282 0.038792 0.110008
H52   H     H_    0.729985 0.644717 0.963427 0.109618
H53   H     H_    0.226563 0.855859 0.960541 0.109151
H54   H     H_    0.778869 0.140981 0.044940 0.108896
H55   H     H_    0.727964 0.905534 0.069760 0.112452
H56   H     H_    0.269840 0.094849 0.930031 0.110796
H57   H     H_    0.691930 0.940372 0.428648 0.119075
H58   H     H_    0.193439 0.161653 0.268327 0.112311
H59   H     H_    0.194637 0.835808 0.278991 0.116841
H60   H     H_    0.805195 0.166633 0.719377 0.117336
H61   H     H_    0.216933 0.409318 0.482663 0.112430
H62   H     H_    0.695067 0.666108 0.281668 0.117605
H63   H     H_    0.808978 0.440821 0.572639 0.119096
H64   H     H_    0.189939 0.562523 0.425941 0.115018
H65   H     H_    0.533711 0.758972 0.264267 0.113285
H66   H     H_    0.349534 0.344336 0.431285 0.110156
H67   H     H_    0.356742 0.658150 0.457500 0.111708
H68   H     H_    0.640777 0.341963 0.536324 0.112363
H69   H     H_    0.086519 0.205153 0.368025 0.111313
H70   H     H_    0.859809 0.841740 0.464524 0.112162
H71   H     H_    0.966629 0.259506 0.736571 0.113333
H72   H     H_    0.037982 0.749068 0.273388 0.112904
N1    N     N_R   0.625380 0.928280 0.709340 -0.039662
N2    N     N_R   0.374620 0.071720 0.290660 -0.038745
N3    N     N_R   0.374620 0.928280 0.290660 -0.031995
N4    N     N_R   0.625380 0.071720 0.709340 -0.032579
N5    N     N_R   0.125380 0.428280 0.709340 -0.032744
N6    N     N_R   0.874620 0.571720 0.290660 -0.031307
N7    N     N_R   0.874620 0.428280 0.290660 -0.040633
N8    N     N_R   0.125380 0.571720 0.709340 -0.040699
N9    N     N_R   0.386100 0.070250 0.452470 -0.040465
N10   N     N_R   0.613900 0.929750 0.547530 -0.042194
N11   N     N_R   0.613900 0.070250 0.547530 -0.036530
N12   N     N_R   0.386100 0.929750 0.452470 -0.038391
N13   N     N_R   0.886100 0.570250 0.452470 -0.036200
N14   N     N_R   0.113900 0.429750 0.547530 -0.033884
N15   N     N_R   0.113900 0.570250 0.547530 -0.042032
N16   N     N_R   0.886100 0.429750 0.452470 -0.042925
N17   N     N_R   0.437800 0.869550 0.507970 -0.038200
N18   N     N_R   0.562200 0.130450 0.492030 -0.036893
N19   N     N_R   0.562200 0.869550 0.492030 -0.043044
N20   N     N_R   0.437800 0.130450 0.507970 -0.041207
N21   N     N_R   0.937800 0.369550 0.507970 -0.043648
N22   N     N_R   0.062200 0.630450 0.492030 -0.043273
N23   N     N_R   0.062200 0.369550 0.492030 -0.035469
N24   N     N_R   0.937800 0.630450 0.507970 -0.036397
N25   N     N_R   0.573690 0.128980 0.653840 -0.035969
N26   N     N_R   0.426310 0.871020 0.346160 -0.034013
N27   N     N_R   0.426310 0.128980 0.346160 -0.040654
N28   N     N_R   0.573690 0.871020 0.653840 -0.041993
N29   N     N_R   0.073690 0.628980 0.653840 -0.042519
N30   N     N_R   0.926310 0.371020 0.346160 -0.042084
N31   N     N_R   0.926310 0.628980 0.346160 -0.034166
N32   N     N_R   0.073690 0.371020 0.653840 -0.035384
Ni1   Ni    Ni4+2 0.616560 0.000000 0.627280 0.210891
Ni2   Ni    Ni4+2 0.383440 0.000000 0.372720 0.208230
Ni3   Ni    Ni4+2 0.116560 0.500000 0.627280 0.214983
Ni4   Ni    Ni4+2 0.883440 0.500000 0.372720 0.211664
Ni5   Ni    Ni4+2 0.497990 0.870580 0.500000 0.206827
Ni6   Ni    Ni4+2 0.502010 0.129420 0.500000 0.204550
Ni7   Ni    Ni4+2 0.997990 0.370580 0.500000 0.210126
Ni8   Ni    Ni4+2 0.002010 0.629420 0.500000 0.207930
H73   H     H_    0.432999 0.747601 0.514232 0.083389
H74   H     H_    0.565976 0.252366 0.483884 0.081119
H75   H     H_    0.521517 0.787517 0.367336 0.092681
H76   H     H_    0.431909 0.253072 0.508024 0.083304
H77   H     H_    0.978377 0.287674 0.632772 0.092470
H78   H     H_    0.021739 0.714182 0.369307 0.092806
H79   H     H_    0.051065 0.258126 0.429898 0.079394
H80   H     H_    0.934343 0.752335 0.516595 0.081988

loop_
_geom_bond_atom_site_label_1
_geom_bond_atom_site_label_2
_ccdc_geom_bond_type
N14   N23   A    
C78   C87   A    
C65   C92   A    
C105  H33   S    
C103  H47   S    
N16   N21   A    
C98   C110  S    
N1    N28   A    
C9    C117  S    
N9    N20   A    
C83   C113  S    
C9    H49   S    
C103  C120  S    
C42   C50   A    
N11   Ni1   S    
C31   C52   A    
C69   C96   A    
C109  H37   S    
C110  C118  S    
N4    N25   A    
C109  C117  S    
C81   C115  S    
C12   H52   S    
C71   C94   A    
C26   H14   S    
C112  C120  S    
C11   H51   S    
C64   N16   A    
C67   H75   S    
C13   C110  S    
C57   C89   A    
N28   Ni5   S    
C106  C114  S    
N23   Ni7   S    
C101  C118  S    
C46   H61   S    
C105  C113  S    
C76   N28   A    
C87   C117  S    
C14   C109  S    
C19   C36   A    
C61   C93   A    
C14   C102  S    
C104  H48   S    
C21   C94   S    
C42   H57   S    
C1    C81   A    
C49   C54   A    
C63   C95   A    
N3    N26   A    
C24   C39   A    
C97   C109  S    
C23   C96   S    
C4    H4    S    
N13   Ni4   S    
C11   C99   S    
C51   C56   A    
C85   C119  S    
C111  H39   S    
C17   C42   A    
C31   H11   S    
C19   C92   S    
C68   H76   S    
C12   C120  S    
C20   C35   A    
C8    H8    S    
C29   H9    S    
C21   C38   A    
N13   N24   A    
N6    Ni4   S    
C35   H68   S    
C106  H34   S    
C4    C84   A    
N12   N17   A    
C84   C114  S    
C72   H80   S    
N11   N18   A    
C67   N19   A    
C33   H66   S    
C61   H21   S    
C75   N27   A    
C66   N18   A    
C25   H13   S    
N7    Ni4   S    
C74   C83   A    
C73   C84   A    
C65   N17   A    
N21   Ni7   S    
C52   C55   A    
C19   C44   A    
C104  C119  S    
C5    C85   A    
C16   H56   S    
C2    H2    S    
C37   H70   S    
N22   Ni8   S    
C102  H46   S    
C63   N15   A    
C18   C89   S    
C74   N26   A    
N16   Ni4   S    
C100  C115  S    
C62   H22   S    
C16   C116  S    
C44   H59   S    
C41   C49   A    
C98   H42   S    
C28   C55   A    
C3    H3    S    
C45   H62   S    
N10   Ni1   S    
C1    H1    S    
C29   C50   A    
C60   C92   A    
C101  C105  S    
N9    Ni2   S    
C20   C91   S    
C7    C87   A    
C43   H60   S    
C50   C53   A    
C57   H17   S    
C70   N22   A    
C80   H32   S    
C41   H58   S    
C69   N21   A    
C25   C54   A    
C77   C88   A    
C11   C119  S    
C18   C41   A    
C77   H29   S    
C99   C116  S    
C6    N6    A    
C27   C56   A    
C98   C113  S    
C5    N5    A    
C64   H24   S    
C75   H27   S    
C9    C106  S    
C14   C114  S    
C22   C37   A    
C45   C53   A    
N15   N22   A    
C3    N3    A    
C4    N4    A    
C73   H25   S    
C2    N2    A    
N8    Ni3   S    
C71   H79   S    
C34   H65   S    
C13   H53   S    
N26   Ni5   S    
C80   C85   A    
C10   C118  S    
C59   N11   A    
N25   Ni6   S    
C80   N32   A    
N20   Ni6   S    
C70   C95   A    
C108  H36   S    
C59   H19   S    
C38   H69   S    
C99   C111  S    
C46   C54   A    
C6    H6    S    
C68   C89   A    
N18   Ni6   S    
C73   N25   A    
C100  H44   S    
N7    N30   A    
N17   Ni5   S    
C101  H45   S    
C58   C90   A    
C48   H63   S    
C76   H28   S    
N2    N27   A    
C102  C117  S    
C78   N30   A    
C99   H43   S    
C72   C93   A    
N5    Ni3   S    
C111  C119  S    
N15   Ni3   S    
C60   N12   A    
C72   N24   A    
C30   C49   A    
C66   H74   S    
N30   Ni7   S    
C100  C112  S    
C97   H41   S    
C16   C104  S    
C62   C94   A    
C108  C116  S    
C3    C83   A    
C29   C37   A    
C22   C93   S    
C15   C115  S    
C2    C82   A    
C60   H20   S    
N8    N29   A    
N27   Ni6   S    
C88   C118  S    
C68   N20   A    
C26   C53   A    
C104  C108  S    
C20   C43   A    
N31   Ni8   S    
C78   H30   S    
C47   C55   A    
C21   C46   A    
C59   C91   A    
C79   H31   S    
C65   H73   S    
C48   C56   A    
N4    Ni1   S    
C32   C40   A    
C9    C97   S    
C23   C48   A    
N19   Ni5   S    
N3    Ni2   S    
C26   C34   A    
C28   H16   S    
C24   C47   A    
C13   C113  S    
C15   C112  S    
C74   H26   S    
C17   C90   S    
C47   H64   S    
C110  H38   S    
C76   C81   A    
C12   C107  S    
C103  C107  S    
C75   C82   A    
C79   N31   A    
C66   C91   A    
C44   C52   A    
C10   H50   S    
C61   N13   A    
C10   C98   S    
C6    C86   A    
C15   H55   S    
C36   H67   S    
C27   C35   A    
N2    Ni2   S    
N6    N31   A    
C16   C111  S    
C82   C116  S    
C14   H54   S    
N10   N19   A    
C30   H10   S    
C24   C95   S    
N12   Ni2   S    
C39   H72   S    
C58   H18   S    
C40   H71   S    
C69   H77   S    
C43   C51   A    
C71   N23   A    
N29   Ni8   S    
N24   Ni8   S    
C32   H12   S    
C31   C39   A    
C107  C115  S    
C64   C96   A    
C67   C90   A    
C7    N7    A    
C8    C88   A    
C18   C33   A    
C32   C51   A    
C12   C100  S    
C8    N8    A    
N5    N32   A    
N1    Ni1   S    
C15   C103  S    
N32   Ni7   S    
C22   C45   A    
C112  H40   S    
C28   C36   A    
C11   C108  S    
C17   C34   A    
C102  C106  S    
C5    H5    S    
N14   Ni3   S    
C63   H23   S    
C1    N1    A    
C77   N29   A    
C10   C105  S    
C86   C120  S    
C70   H78   S    
C30   C38   A    
C7    H7    S    
C97   C114  S    
C27   H15   S    
C13   C101  S    
C62   N14   A    
C79   C86   A    
C107  H35   S    
C23   C40   A    
C58   N10   A    
C25   C33   A    
C57   N9    A    
