data_mof_unit_22286.cif
_audit_creation_date              2012-10-26T18:27:08-0400
_audit_creation_method            fapswitch 2.2
_symmetry_space_group_name_H-M    P1
_symmetry_Int_Tables_number       1
_space_group_crystal_system       triclinic
_cell_length_a                    15.023167
_cell_length_b                    10.851328
_cell_length_c                    9.729299
_cell_angle_alpha                 88.966832
_cell_angle_beta                  90.101331
_cell_angle_gamma                 91.613495
_cell_volume                      1585.19521276

loop_
_atom_site_label
_atom_site_type_symbol
_atom_type_description
_atom_site_fract_x
_atom_site_fract_y
_atom_site_fract_z
_atom_type_partial_charge
C1    C     C_R   0.510524 0.266050 0.501941 0.566525
C2    C     C_R   0.184533 0.426168 0.585757 -0.191313
C3    C     C_R   0.232240 0.507908 0.498974 0.000086
C4    C     C_R   0.328973 0.503428 0.499670 0.578404
C5    C     C_R   0.187880 0.592849 0.413241 0.242056
C6    C     C_2   0.546398 0.932522 0.403981 -0.131456
C7    C     C_2   0.494910 0.867427 0.492561 -0.133542
C8    C     C_2   0.544325 0.067844 0.396406 0.251433
C9    C     C_2   0.538229 0.136550 0.511322 0.004451
C10   C     C_2   0.431716 0.467507 0.922881 0.038625
C11   C     C_2   0.440880 0.439536 0.074918 0.173108
C12   C     C_R   0.906900 0.592050 0.418138 0.016171
C13   C     C_R   0.498706 0.734763 0.498380 0.559350
C14   C     C_R   0.670981 0.500611 0.500140 0.529521
C15   C     C_R   0.814090 0.586953 0.415421 -0.139990
C16   C     C_R   0.767371 0.502912 0.500861 -0.007030
C17   C     C_R   0.812563 0.423036 0.589217 -0.145509
C18   C     C_R   0.905386 0.423721 0.589325 0.015051
C19   C     C_R   0.952940 0.508512 0.503211 0.062878
C20   C     C_3   0.639109 0.149521 0.236085 0.004990
C21   C     C_3   0.646692 0.209210 0.093720 -0.377688
C22   C     C_3   0.575483 0.090915 0.650196 -0.314578
C23   C     C_R   0.951373 0.341280 0.673906 -0.135386
C24   C     C_3   0.675296 0.068442 0.641226 -0.456247
C25   C     C_3   0.376350 0.340260 0.129197 -0.267122
C26   C     C_3   0.388499 0.217425 0.057971 -0.439989
C27   C     C_3   0.617854 0.626647 0.122699 0.044588
C28   C     C_3   0.657246 0.716623 0.015786 -0.416842
C29   C     C_3   0.241836 0.644761 0.199759 -0.009456
C30   C     C_3   0.308321 0.729426 0.123906 -0.332889
C31   C     C_R   0.044154 0.342031 0.672658 -0.125264
C32   C     C_R   0.091949 0.425515 0.587188 -0.000013
C33   C     C_R   0.046465 0.509798 0.502299 0.017049
C34   C     C_R   0.094195 0.596044 0.417713 0.017160
C35   C     C_R   0.047067 0.683866 0.340688 -0.128897
C36   C     C_R   0.954308 0.680225 0.338815 -0.153600
Cu1   Cu    Cu3+1 0.500020 0.500020 0.638630 0.917348
Cu2   Cu    Cu3+1 0.499980 0.499980 0.361370 0.961991
H1    H     H_    0.778061 0.650092 0.349573 0.087943
H2    H     H_    0.919611 0.746965 0.275924 0.103421
H3    H     H_    0.587471 0.885658 0.330597 0.119728
H4    H     H_    0.678233 0.063769 0.236380 0.107074
H5    H     H_    0.668945 0.214942 0.311526 0.140608
H6    H     H_    0.609963 0.296510 0.090176 0.159132
H7    H     H_    0.717761 0.230220 0.069432 0.089817
H8    H     H_    0.618979 0.145683 0.015205 0.138181
H9    H     H_    0.711103 0.152076 0.600144 0.139440
H10   H     H_    0.701710 0.046621 0.745284 0.138455
H11   H     H_    0.688423 0.989661 0.573728 0.150697
H12   H     H_    0.448483 0.911389 0.560032 0.095867
H13   H     H_    0.567012 0.159367 0.732099 0.167939
H14   H     H_    0.540858 0.007184 0.691170 0.139824
H15   H     H_    0.365983 0.223386 0.949318 0.125106
H16   H     H_    0.459145 0.191601 0.059504 0.204753
H17   H     H_    0.348175 0.143786 0.111282 0.154247
H18   H     H_    0.380488 0.324453 0.240312 0.216967
H19   H     H_    0.307336 0.369033 0.108158 0.084197
H20   H     H_    0.654975 0.539244 0.118035 0.125035
H21   H     H_    0.627563 0.670289 0.223703 0.175701
H22   H     H_    0.622119 0.805296 0.018537 0.160787
H23   H     H_    0.367691 0.450189 0.874268 0.121775
H24   H     H_    0.728911 0.734551 0.038226 0.086186
H25   H     H_    0.650959 0.678048 0.911237 0.163588
H26   H     H_    0.176356 0.651006 0.147345 0.110679
H27   H     H_    0.264253 0.548837 0.191496 0.140620
H28   H     H_    0.374425 0.725965 0.174712 0.225439
H29   H     H_    0.314932 0.699657 0.015870 0.105518
H30   H     H_    0.285269 0.825769 0.124265 0.142037
H31   H     H_    0.560667 0.494856 0.892651 0.231721
H32   H     H_    0.775322 0.359204 0.655833 0.106006
H33   H     H_    0.915578 0.275967 0.740509 0.102558
H34   H     H_    0.078581 0.277271 0.738483 0.106981
H35   H     H_    0.219885 0.361607 0.650868 0.114123
H36   H     H_    0.081329 0.755536 0.280923 0.145223
N1    N     N_2   0.499020 0.498660 0.846910 -0.335165
N2    N     N_2   0.499000 0.498630 0.153040 -0.061883
O1    O     O_R   0.500020 0.321960 0.617040 -0.521324
O2    O     O_3   0.526322 0.608073 0.096257 -0.494832
O3    O     O_3   0.236828 0.680972 0.338340 -0.557850
O4    O     O_R   0.499980 0.321920 0.382900 -0.476768
O5    O     O_R   0.370270 0.499990 0.617090 -0.508082
O6    O     O_R   0.370240 0.499950 0.382940 -0.508849
O7    O     O_R   0.500020 0.678080 0.617100 -0.480096
O8    O     O_R   0.499980 0.678040 0.382960 -0.480047
O9    O     O_R   0.629760 0.500050 0.617060 -0.508699
O10   O     O_R   0.629730 0.500010 0.382910 -0.536953
O11   O     O_3   0.548543 0.122782 0.266963 -0.550797

loop_
_geom_bond_atom_site_label_1
_geom_bond_atom_site_label_2
_ccdc_geom_bond_type
C35   H36   S    
C1    O1    A    
C35   C36   A    
C25   H18   S    
C27   O2    S    
C26   H17   S    
Cu2   N2    S    
C13   O8    A    
C29   C30   S    
Cu2   O10   S    
Cu1   O9    S    
N2    O2    S    
C18   C19   A    
C11   N2    D    
C9    C22   S    
C11   C25   S    
C15   C16   A    
C20   O11   S    
C2    C32   A    
C34   C35   A    
C4    O5    A    
C8    C9    D    
C6    H3    S    
C12   C36   A    
C30   H29   S    
Cu1   N1    S    
C29   H26   S    
C17   H32   S    
Cu2   O6    S    
Cu1   O5    S    
C25   H19   S    
C26   H16   S    
C33   C34   A    
C21   H7    S    
C28   H22   S    
C18   C23   A    
C24   H10   S    
C23   H33   S    
C36   H2    S    
C1    C9    S    
C14   O10   A    
C19   C33   A    
C16   C17   A    
C6    C8    S    
C25   C26   S    
Cu1   O1    S    
C23   C31   A    
Cu1   Cu2   S    
C21   H6    S    
C10   N1    D    
C31   C32   A    
C29   O3    S    
C12   C15   A    
C5    C34   A    
C17   C18   A    
C14   O9    A    
C15   H1    S    
C30   H28   S    
C2    H35   S    
C29   H27   S    
C31   H34   S    
C14   C16   S    
C10   H23   S    
C5    O3    S    
C3    C4    S    
C26   H15   S    
C20   H5    S    
C22   H14   S    
C21   H8    S    
C24   H11   S    
Cu2   O8    S    
C24   H9    S    
C7    H12   S    
C3    C5    A    
C27   H20   S    
C20   H4    S    
C6    C7    D    
C13   O7    A    
C8    O11   S    
C32   C33   A    
C2    C3    A    
C27   H21   S    
Cu2   O4    S    
C12   C19   A    
H31   N1    S    
C22   C24   S    
C10   C11   S    
C28   H25   S    
C7    C13   S    
C4    O6    A    
C20   C21   S    
C27   C28   S    
C1    O4    A    
Cu1   O7    S    
C30   H30   S    
C22   H13   S    
C28   H24   S    
