data_mof_unit_57584.cif
_audit_creation_date              2012-10-26T18:43:49-0400
_audit_creation_method            fapswitch 2.2
_symmetry_space_group_name_H-M    P1
_symmetry_Int_Tables_number       1
_space_group_crystal_system       triclinic
_cell_length_a                    9.542893
_cell_length_b                    10.823195
_cell_length_c                    17.344339
_cell_angle_alpha                 90.306271
_cell_angle_beta                  85.733565
_cell_angle_gamma                 89.574916
_cell_volume                      1786.35838808

loop_
_atom_site_label
_atom_site_type_symbol
_atom_type_description
_atom_site_fract_x
_atom_site_fract_y
_atom_site_fract_z
_atom_type_partial_charge
C1    C     C_R   0.499812 0.737447 0.498525 0.543117
C2    C     C_R   0.530902 0.496638 0.265809 0.027020
C3    C     C_R   0.407368 0.938285 0.454791 0.034108
C4    C     C_R   0.481411 0.502351 0.649827 0.550439
C5    C     C_R   0.502900 0.870506 0.495205 -0.058352
C6    C     C_R   0.611883 0.932510 0.529087 -0.153290
C7    C     C_R   0.616894 0.062673 0.530234 0.249974
C8    C     C_R   0.505303 0.128739 0.499647 0.013706
C9    C     C_R   0.406604 0.065037 0.459847 -0.053095
C10   C     C_3   0.250414 0.074096 0.464657 -0.211768
C11   C     C_3   0.249685 0.934144 0.455284 0.148979
C12   C     C_R   0.345176 0.483610 0.777060 -0.133042
C13   C     C_R   0.932479 0.417378 0.455408 0.169478
C14   C     C_R   0.917801 0.574108 0.548880 -0.021462
C15   C     C_R   0.067997 0.573043 0.550489 0.365092
C16   C     C_R   0.500668 0.262369 0.501574 0.584611
C17   C     C_R   0.080347 0.417997 0.454868 0.051370
C18   C     C_3   0.098978 0.407791 0.368754 -0.257731
C19   C     C_3   0.939334 0.408862 0.369081 0.156316
C20   C     C_R   0.518834 0.499107 0.350151 0.539995
C21   C     C_R   0.471313 0.510798 0.734037 0.022101
C22   C     C_R   0.588515 0.548602 0.771961 -0.127034
C23   C     C_R   0.430328 0.449465 0.145452 -0.105414
C24   C     C_R   0.580983 0.556296 0.851977 -0.105883
C25   C     C_R   0.456652 0.524009 0.895346 0.045707
C26   C     C_R   0.337958 0.490459 0.857420 -0.119863
C27   C     C_3   0.848552 0.068563 0.566276 -0.121470
C28   C     C_3   0.197318 0.774327 0.373077 -0.089470
C29   C     C_3   0.071549 0.661588 0.672334 -0.144567
C30   C     C_3   0.923730 0.188107 0.363328 -0.081913
C31   C     C_R   0.420752 0.449938 0.225632 -0.133598
C32   C     C_R   0.652934 0.539713 0.224776 -0.103072
C33   C     C_R   0.662848 0.538865 0.144332 -0.107893
C34   C     C_R   0.550373 0.496404 0.104394 0.041382
C35   C     C_2   0.448162 0.522919 0.980109 -0.132989
C36   C     C_2   0.560960 0.501029 0.019854 -0.132741
Cu1   Cu    Cu3+1 0.359330 0.500020 0.500000 0.973768
Cu2   Cu    Cu3+1 0.640670 0.499980 0.500000 0.987230
H1    H     H_    0.685926 0.573204 0.739800 0.113844
H2    H     H_    0.240760 0.466722 0.890076 0.099584
H3    H     H_    0.344574 0.411036 0.115841 0.108067
H4    H     H_    0.253217 0.455067 0.748773 0.123246
H5    H     H_    0.687669 0.879151 0.558620 0.123532
H6    H     H_    0.929331 0.139059 0.575909 0.135668
H7    H     H_    0.877636 0.024470 0.509094 0.101962
H8    H     H_    0.851729 0.999755 0.613406 0.114674
H9    H     H_    0.205646 0.106211 0.522406 0.089252
H10   H     H_    0.212464 0.125338 0.414880 0.155211
H11   H     H_    0.133834 0.730195 0.421548 0.129642
H12   H     H_    0.756775 0.574038 0.113266 0.100658
H13   H     H_    0.305012 0.734516 0.365924 0.160826
H14   H     H_    0.145572 0.753423 0.319383 0.118863
H15   H     H_    0.149544 0.695810 0.711557 0.148567
H16   H     H_    0.034899 0.570026 0.694579 0.098427
H17   H     H_    0.983562 0.729568 0.674811 0.089798
H18   H     H_    0.328180 0.412030 0.255978 0.115216
H19   H     H_    0.955208 0.188717 0.423558 0.104647
H20   H     H_    0.012684 0.156259 0.323084 0.131180
H21   H     H_    0.838702 0.119214 0.360694 0.151310
H22   H     H_    0.345222 0.535839 0.010341 0.114854
H23   H     H_    0.195422 0.886172 0.505699 0.137854
H24   H     H_    0.672382 0.588242 0.879339 0.097993
H25   H     H_    0.853970 0.637169 0.585271 0.112064
H26   H     H_    0.145464 0.492542 0.341980 0.102006
H27   H     H_    0.152903 0.320851 0.349325 0.122666
H28   H     H_    0.900309 0.495073 0.343278 0.127134
H29   H     H_    0.739286 0.576196 0.254721 0.113425
H30   H     H_    0.664425 0.488088 0.990430 0.116205
N1    N     N_R   0.852130 0.499070 0.499500 -0.280122
N2    N     N_R   0.148040 0.499110 0.499500 -0.232673
O1    O     O_R   0.381190 0.680360 0.500000 -0.473760
O2    O     O_3   0.202691 0.903410 0.382138 -0.578401
O3    O     O_3   0.137138 0.654085 0.596750 -0.540522
O4    O     O_3   0.872644 0.303391 0.338852 -0.546157
O5    O     O_R   0.618770 0.680320 0.499990 -0.524400
O6    O     O_R   0.367430 0.500040 0.613600 -0.464751
O7    O     O_R   0.605020 0.500000 0.613590 -0.511361
O8    O     O_R   0.381230 0.319680 0.500010 -0.519999
O9    O     O_R   0.618810 0.319640 0.500000 -0.426841
O10   O     O_R   0.394980 0.500000 0.386410 -0.537622
O11   O     O_R   0.632570 0.499960 0.386400 -0.490496
O12   O     O_3   0.715771 0.127790 0.569445 -0.541018

loop_
_geom_bond_atom_site_label_1
_geom_bond_atom_site_label_2
_ccdc_geom_bond_type
C35   C36   D    
C26   H2    S    
C7    C8    A    
C18   H27   S    
C1    O1    A    
C13   N1    A    
C1    C5    S    
C5    C6    A    
C30   O4    S    
C28   H13   S    
C29   O3    S    
Cu2   O9    S    
C22   H1    S    
C30   H19   S    
C19   H28   S    
C2    C32   A    
C18   C19   S    
C12   H4    S    
C27   H6    S    
C8    C9    A    
C31   H18   S    
C9    C10   S    
C16   O8    A    
C27   H7    S    
Cu2   N1    S    
C17   N2    A    
C8    C16   S    
C21   C22   A    
C28   O2    S    
C17   C18   S    
Cu2   O5    S    
C19   O4    S    
Cu1   O10   S    
C20   O10   A    
C2    C20   S    
C1    O5    A    
C24   C25   A    
C13   C19   S    
C11   O2    S    
C29   H17   S    
C3    C5    A    
C25   C26   A    
C12   C21   A    
C12   C26   A    
C35   H22   S    
C23   C31   A    
Cu1   Cu2   S    
C3    C9    A    
C28   H11   S    
C23   C34   A    
C30   H21   S    
C33   C34   A    
C25   C35   S    
C32   H29   S    
C27   H8    S    
C15   O3    S    
Cu1   O6    S    
C6    H5    S    
Cu1   O1    S    
Cu2   O11   S    
C10   H10   S    
C14   N1    A    
C22   C24   A    
C15   N2    A    
C24   H24   S    
C27   O12   S    
C11   H23   S    
C36   H30   S    
C6    C7    A    
Cu2   O7    S    
Cu1   O8    S    
C23   H3    S    
C13   C17   A    
C16   O9    A    
C32   C33   A    
C33   H12   S    
C4    O7    A    
C4    C21   S    
C28   H14   S    
C18   H26   S    
C29   H15   S    
C14   H25   S    
C30   H20   S    
C34   C36   S    
C4    O6    A    
C3    C11   S    
C10   C11   S    
C7    O12   S    
C29   H16   S    
C10   H9    S    
C14   C15   A    
C2    C31   A    
Cu1   N2    S    
C20   O11   A    
