data_mof_unit_62181.cif
_audit_creation_date              2013-03-05T15:40:17-0500
_audit_creation_method            fapswitch 2.2
_symmetry_space_group_name_H-M    P1
_symmetry_Int_Tables_number       1
_space_group_crystal_system       triclinic
_cell_length_a                    10.789422
_cell_length_b                    8.686846
_cell_length_c                    7.544539
_cell_angle_alpha                 101.672983
_cell_angle_beta                  97.330406
_cell_angle_gamma                 92.715492
_cell_volume                      684.882814242

loop_
_atom_site_label
_atom_site_type_symbol
_atom_site_description
_atom_site_fract_x
_atom_site_fract_y
_atom_site_fract_z
_atom_type_partial_charge
O1    O     O_R   0.509050 0.286130 0.619770 -0.611319
O2    O     O_R   0.485540 0.256780 0.308360 -0.537461
C1    C     C_R   0.490520 0.200991 0.455827 0.864102
O3    O     O_R   0.331410 0.514680 0.655740 -0.619866
O4    O     O_R   0.307900 0.485330 0.344330 -0.582419
C2    C     C_R   0.263143 0.504567 0.497668 0.799801
Cu1   Cu    Cu3+1 0.513920 0.517380 0.684380 1.089942
Cu2   Cu    Cu3+1 0.486080 0.482620 0.315620 1.117292
O5    O     O_R   0.514460 0.743220 0.691640 -0.538419
O6    O     O_R   0.490950 0.713870 0.380230 -0.529673
O7    O     O_R   0.692100 0.514670 0.655670 -0.593202
O8    O     O_R   0.668590 0.485320 0.344260 -0.532162
C3    C     C_R   0.506637 0.799109 0.544886 0.831494
C4    C     C_R   0.738079 0.494572 0.503355 0.870833
H1    H     H_    0.092792 0.304008 0.275588 0.194534
C5    C     C_R   0.149335 0.764292 0.712725 -0.081459
H2    H     H_    0.240671 0.796985 0.681071 0.176135
C6    C     C_R   0.099170 0.866740 0.847605 -0.058335
H3    H     H_    0.148964 0.978351 0.913613 0.210011
C7    C     C_R   0.991314 0.817171 0.909798 -0.088104
H4    H     H_    0.965365 0.883366 0.035781 0.206143
C8    C     C_R   0.925470 0.674235 0.820448 -0.036628
C9    C     C_R   0.956948 0.593891 0.650748 -0.020875
C10   C     C_R   0.079765 0.623614 0.617380 0.061846
C11   C     C_R   0.129445 0.511071 0.490973 -0.105342
C12   C     C_R   0.052140 0.390916 0.371371 -0.249342
C13   C     C_R   0.923708 0.378624 0.377541 0.326247
C14   C     C_R   0.874166 0.484096 0.515223 -0.181441
C15   C     C_2   0.463067 0.035936 0.440856 0.107902
C16   C     C_2   0.526524 0.965279 0.564218 0.042949
N1    N     N_2   0.465100 0.456430 0.038520 -0.190869
N2    N     N_2   0.534900 0.543570 0.961480 -0.012526
N3    N     N_R   0.561600 0.697030 0.060079 0.289083
O9    O     O_R   0.482889 0.802402 0.037820 -0.261942
O10   O     O_R   0.671770 0.741663 0.153097 -0.332621
C17   C     C_1   0.868791 0.585643 0.934992 0.382174
N4    N     N_1   0.825232 0.511883 0.026078 -0.168282
N5    N     N_R   0.847315 0.252486 0.251315 0.152305
O11   O     O_R   0.753514 0.181216 0.302142 -0.295125
O12   O     O_R   0.882450 0.192712 0.094668 -0.316586
N6    N     N_R   0.352744 0.961531 0.318196 0.131160
O13   O     O_R   0.315215 0.016644 0.174265 -0.351202
O14   O     O_R   0.275446 0.864915 0.369095 -0.404890
N7    N     N_R   0.627599 0.045923 0.700211 0.119111
O15   O     O_R   0.631224 0.033215 0.869690 -0.232389
O16   O     O_R   0.723761 0.114167 0.651181 -0.307338
C18   C     C_1   0.399469 0.322251 0.929810 0.584256
N8    N     N_1   0.343133 0.209922 0.841890 -0.317498

loop_
_geom_bond_atom_site_label_1
_geom_bond_atom_site_label_2
_geom_bond_distance
_ccdc_geom_bond_type
O4    Cu2   1.962601 S    
Cu1   O7    1.962602 S    
C9    C10   1.401789 A    
C10   C11   1.398373 A    
C15   C16   1.349100 D    
C8    C17   1.439594 S    
N6    O13   1.299562 A    
N1    N2    1.309090 D    
Cu2   O8    1.951896 S    
C15   N6    1.447411 S    
N2    N3    1.386045 S    
O2    C1    1.296518 A    
O8    C4    1.317158 A    
Cu1   Cu2   2.712901 S    
C5    C10   1.412036 A    
N1    C18   1.385448 S    
C9    C14   1.429864 A    
N7    O15   1.301309 A    
N5    O12   1.301808 A    
N6    O14   1.301247 A    
C16   N7    1.443598 S    
C12   C13   1.392191 A    
O4    C2    1.292840 A    
O3    Cu1   1.951895 S    
C5    C6    1.392921 A    
C17   N4    1.155742 T    
N3    O10   1.299663 A    
C7    C8    1.398696 A    
N3    O9    1.298746 A    
C6    C7    1.390472 A    
N5    O11   1.300128 A    
O7    C4    1.292138 A    
C2    C11   1.441142 S    
C13   N5    1.441806 S    
Cu1   O5    1.951202 S    
C3    C16   1.424237 S    
C7    H4    1.083723 S    
O3    C2    1.303768 A    
C6    H3    1.078728 S    
C13   C14   1.416738 A    
C1    C15   1.428983 S    
O5    C3    1.290836 A    
C8    C9    1.418969 A    
H1    C12   1.084452 S    
Cu1   N2    2.038497 S    
C4    C14   1.467864 S    
C11   C12   1.394167 A    
O1    Cu1   1.965454 S    
Cu2   N1    2.038497 S    
Cu2   O6    1.965452 S    
O2    Cu2   1.951204 S    
C18   N8    1.157844 T    
N7    O16   1.301207 A    
C5    H2    1.081573 S    
O1    C1    1.292110 A    
O6    C3    1.297068 A    
