data_mof_unit_33482.cif
_audit_creation_date              2012-12-10T19:00:00-0500
_audit_creation_method            fapswitch 2.2
_symmetry_space_group_name_H-M    P1
_symmetry_Int_Tables_number       1
_space_group_crystal_system       triclinic
_cell_length_a                    10.740455
_cell_length_b                    10.62825
_cell_length_c                    9.982536
_cell_angle_alpha                 88.017522
_cell_angle_beta                  92.337855
_cell_angle_gamma                 90.695735
_cell_volume                      1137.83317528

loop_
_atom_site_label
_atom_site_type_symbol
_atom_type_description
_atom_site_fract_x
_atom_site_fract_y
_atom_site_fract_z
_atom_type_partial_charge
C1    C     C_R   0.498419 0.260438 0.501517 0.867998
C2    C     C_R   0.561572 0.061642 0.606137 -0.116128
C3    C     C_R   0.503434 0.872273 0.496732 -0.009202
C4    C     C_R   0.496566 0.127727 0.503268 -0.009202
C5    C     C_R   0.527888 0.607176 0.065821 0.504159
C6    C     C_R   0.472112 0.392824 0.934179 0.504160
C7    C     C_R   0.528459 0.606149 0.924037 -0.146723
C8    C     C_R   0.471541 0.393851 0.075962 -0.146723
C9    C     C_R   0.260229 0.501684 0.496637 0.875863
C10   C     C_R   0.739771 0.498316 0.503363 0.875863
C11   C     C_R   0.159060 0.474040 0.035370 0.296353
C12   C     C_R   0.501580 0.739562 0.498482 0.867997
C13   C     C_R   0.840939 0.525959 0.964630 0.296353
C14   C     C_R   0.140181 0.502100 0.168337 -0.154593
C15   C     C_R   0.859819 0.497900 0.831663 -0.154593
C16   C     C_R   0.101761 0.408185 0.260145 0.085479
C17   C     C_R   0.898239 0.591814 0.739856 0.085479
C18   C     C_R   0.084721 0.284415 0.217764 -0.224492
C19   C     C_R   0.915278 0.715584 0.782236 -0.224492
C20   C     C_R   0.101690 0.256371 0.083971 -0.185231
C21   C     C_R   0.898310 0.743627 0.916030 -0.185231
C22   C     C_R   0.135721 0.351441 0.991577 0.418176
C23   C     C_R   0.872780 0.493349 0.510201 -0.101397
C24   C     C_R   0.864279 0.648558 0.008424 0.418176
C25   C     C_R   0.928405 0.436253 0.404912 -0.129824
C26   C     C_R   0.071595 0.563747 0.595088 -0.129824
C27   C     C_R   0.127220 0.506651 0.489799 -0.101397
C28   C     C_R   0.944989 0.553918 0.610152 0.043861
C29   C     C_R   0.055011 0.446081 0.389848 0.043862
C30   C     C_R   0.434831 0.067092 0.397209 -0.162036
C31   C     C_R   0.565169 0.932907 0.602791 -0.162036
C32   C     C_R   0.438428 0.938357 0.393863 -0.116128
Cl1   Cl    Cl    0.139114 0.316462 0.821003 -0.556349
Cl2   Cl    Cl    0.860886 0.683536 0.178998 -0.556349
Cl3   Cl    Cl    0.207142 0.596376 0.926539 -0.633162
Cl4   Cl    Cl    0.792858 0.403622 0.073461 -0.633162
Cl5   Cl    Cl    0.563662 0.753167 0.134248 -0.541334
Cl6   Cl    Cl    0.436339 0.246833 0.865752 -0.541334
H1    H     H_    0.551804 0.691330 0.867705 0.182056
H2    H     H_    0.128227 0.612625 0.668943 0.221756
H3    H     H_    0.383719 0.119199 0.317931 0.158599
H4    H     H_    0.616281 0.880801 0.682069 0.158599
H5    H     H_    0.388706 0.890553 0.313429 0.186060
H6    H     H_    0.611294 0.109447 0.686570 0.186060
H7    H     H_    0.448196 0.308670 0.132295 0.182056
H8    H     H_    0.150556 0.598606 0.199084 0.199105
H9    H     H_    0.849444 0.401394 0.800916 0.199105
H10   H     H_    0.052213 0.211333 0.286563 0.176710
H11   H     H_    0.947787 0.788666 0.713437 0.176710
H12   H     H_    0.083604 0.161640 0.051098 0.199557
H13   H     H_    0.916396 0.838359 0.948902 0.199557
H14   H     H_    0.871773 0.387375 0.331057 0.221756
N1    N     N_R   0.499970 0.499970 0.857200 -0.126350
N2    N     N_R   0.500030 0.500030 0.142800 -0.126350
O1    O     O_R   0.499990 0.316750 0.614620 -0.555589
O2    O     O_R   0.500010 0.683250 0.385380 -0.555588
O3    O     O_R   0.499990 0.316780 0.385290 -0.637127
O4    O     O_R   0.500010 0.683220 0.614710 -0.637126
O5    O     O_R   0.316760 0.500000 0.614660 -0.533249
O6    O     O_R   0.683240 0.500000 0.385340 -0.533249
O7    O     O_R   0.316760 0.500020 0.385330 -0.644877
O8    O     O_R   0.683240 0.499980 0.614670 -0.644877
Zn1   Zn    Zn3+2 0.500000 0.499980 0.653120 1.041930
Zn2   Zn    Zn3+2 0.500000 0.500020 0.346880 1.041930

loop_
_geom_bond_atom_site_label_1
_geom_bond_atom_site_label_2
_ccdc_geom_bond_type
O7    Zn2   S    
C2    C4    A    
O2    Zn2   S    
C30   H3    S    
O8    Zn1   S    
C31   H4    S    
C1    O3    A    
C10   C23   S    
C27   C29   A    
C5    C7    A    
C19   H11   S    
C11   C22   A    
C10   O6    A    
C15   H9    S    
O6    Zn2   S    
C1    C4    S    
C12   O4    A    
C6    Cl6   S    
C1    O1    A    
C25   H14   S    
C4    C30   A    
C14   H8    S    
C12   O2    A    
C23   C28   A    
C3    C31   A    
N1    Zn1   S    
C26   H2    S    
C26   C27   A    
C10   O8    A    
O1    Zn1   S    
N2    Zn2   S    
C13   Cl4   S    
C20   H12   S    
C9    O7    A    
C18   C20   A    
C11   Cl3   S    
C17   C19   A    
C32   H5    S    
C20   C22   A    
C5    Cl5   S    
C13   C15   A    
C25   C29   A    
C3    C32   A    
C11   C14   A    
C14   C16   A    
O5    Zn1   S    
C7    N1    A    
C6    N1    A    
C30   C32   A    
C5    N2    A    
C21   H13   S    
C23   C25   A    
C9    C27   S    
O3    Zn2   S    
C16   C18   A    
C21   C24   A    
C8    N2    A    
O4    Zn1   S    
C15   C17   A    
C22   Cl1   S    
C7    H1    S    
C8    H7    S    
C6    C8    A    
C3    C12   S    
C19   C21   A    
C16   C29   S    
C17   C28   S    
C26   C28   A    
C24   Cl2   S    
C13   C24   A    
C2    H6    S    
C2    C31   A    
C9    O5    A    
C18   H10   S    
