data_mof_unit_20188.cif
_audit_creation_date              2012-12-10T17:11:04-0500
_audit_creation_method            fapswitch 2.2
_symmetry_space_group_name_H-M    P1
_symmetry_Int_Tables_number       1
_space_group_crystal_system       triclinic
_cell_length_a                    11.711421
_cell_length_b                    12.983265
_cell_length_c                    13.460638
_cell_angle_alpha                 93.077283
_cell_angle_beta                  77.33063
_cell_angle_gamma                 100.448551
_cell_volume                      1963.5712212

loop_
_atom_site_label
_atom_site_type_symbol
_atom_type_description
_atom_site_fract_x
_atom_site_fract_y
_atom_site_fract_z
_atom_type_partial_charge
C1    C     C_R   0.521688 0.700888 0.499839 0.799103
C2    C     C_R   0.454832 0.475083 0.972571 0.091546
C3    C     C_R   0.484880 0.459832 0.865889 0.043740
C4    C     C_R   0.545782 0.490415 0.029567 0.014086
C5    C     C_R   0.659345 0.465232 0.983816 0.112984
C6    C     C_R   0.682683 0.436732 0.880592 -0.232772
C7    C     C_R   0.597330 0.433455 0.823253 -0.187196
C8    C     C_R   0.527761 0.529882 0.130941 0.080025
C9    C     C_R   0.710229 0.476795 0.149129 -0.271384
C10   C     C_R   0.398687 0.464469 0.806589 -0.196629
C11   C     C_R   0.465210 0.185493 0.500277 -0.052204
C12   C     C_R   0.436205 0.485198 0.695234 0.826860
C13   C     C_R   0.534792 0.814278 0.494673 -0.053126
C14   C     C_R   0.657230 0.983424 0.450880 -0.202797
C15   C     C_R   0.646160 0.875413 0.457478 -0.207312
C16   C     C_R   0.433417 0.861165 0.521921 -0.246152
C17   C     C_R   0.443214 0.968881 0.513660 0.164833
C18   C     C_R   0.556306 0.030661 0.479135 0.173716
C19   C     C_R   0.566558 0.138655 0.473211 -0.261193
C20   C     C_R   0.352716 0.123770 0.531928 -0.186345
C21   C     C_R   0.341813 0.015787 0.539198 -0.200022
C22   C     C_R   0.948931 0.592277 0.601126 0.241405
C23   C     C_R   0.478571 0.299084 0.498662 0.800454
C24   C     C_R   0.830953 0.588823 0.588599 0.257245
C25   C     C_R   0.856409 0.457855 0.458322 -0.032987
C26   C     C_R   0.977122 0.464316 0.465181 0.006979
C27   C     C_R   0.023096 0.531857 0.537749 -0.034644
C28   C     C_R   0.143658 0.538552 0.544107 0.149087
C29   C     C_R   0.172637 0.414652 0.410433 0.072137
C30   C     C_R   0.053505 0.404963 0.401309 -0.298749
C31   C     C_R   0.563159 0.506215 0.304546 0.814124
C32   C     C_R   0.744885 0.465562 0.043891 0.142862
C33   C     C_R   0.600668 0.505226 0.193447 -0.081333
C34   C     C_R   0.277322 0.452695 0.857080 0.388508
C35   C     C_R   0.246345 0.450192 0.962988 -0.185644
C36   C     C_R   0.333427 0.463511 0.020148 -0.281913
Cu1   Cu    Cu3+1 0.386470 0.492430 0.492410 0.971095
Cu2   Cu    Cu3+1 0.613530 0.507570 0.507590 0.921319
H1    H     H_    0.770928 0.466556 0.196644 0.160349
H2    H     H_    0.273752 0.159231 0.553304 0.171968
H3    H     H_    0.744127 0.029723 0.422621 0.138008
H4    H     H_    0.254551 0.969171 0.565206 0.158136
H5    H     H_    0.723942 0.839518 0.431115 0.154629
H6    H     H_    0.346816 0.813832 0.549451 0.166733
H7    H     H_    0.181954 0.589974 0.598485 0.193835
H8    H     H_    0.230681 0.368719 0.360723 0.124043
H9    H     H_    0.021759 0.351851 0.344515 0.132975
H10   H     H_    0.766039 0.414230 0.842817 0.172757
H11   H     H_    0.820714 0.404685 0.403488 0.133857
H12   H     H_    0.304271 0.459230 0.102021 0.152529
H13   H     H_    0.153705 0.438472 0.001744 0.163785
H14   H     H_    0.618742 0.401226 0.747295 0.187165
H15   H     H_    0.653432 0.186240 0.447507 0.145417
N1    N     N_R   0.215880 0.481050 0.481000 -0.197550
N2    N     N_R   0.784100 0.518950 0.519000 -0.211580
O1    O     O_R   0.419710 0.645650 0.494620 -0.588841
O2    O     O_R   0.611450 0.658430 0.507430 -0.587819
O3    O     O_R   0.357340 0.490460 0.641450 -0.514914
O4    O     O_R   0.549080 0.503250 0.654260 -0.626090
O5    O     O_R   0.388550 0.341570 0.492570 -0.580856
O6    O     O_R   0.580290 0.354350 0.505380 -0.591277
O7    O     O_R   0.450920 0.496750 0.345740 -0.592187
O8    O     O_R   0.642660 0.509540 0.358550 -0.589146
Cl1   Cl    Cl    0.004897 0.673354 0.696752 -0.710406
C37   C     C_3   0.763781 0.668899 0.651582 -0.300237
C38   C     C_3   0.811779 0.780009 0.611184 -0.789659
H16   H     H_    0.892656 0.815786 0.638734 0.287568
H17   H     H_    0.834268 0.778874 0.526771 0.242250
H18   H     H_    0.743962 0.830783 0.637960 0.236321
H19   H     H_    0.668795 0.654744 0.656275 0.243495
H20   H     H_    0.769724 0.666377 0.732633 0.211276
C39   C     C_3   0.873907 0.458558 0.999744 -0.440852
C40   C     C_3   0.938740 0.563018 0.952471 -0.670154
H21   H     H_    0.902697 0.578902 0.886407 0.289739
H22   H     H_    0.927695 0.627614 0.009436 0.232925
H23   H     H_    0.035010 0.561775 0.927065 0.280443
H24   H     H_    0.918946 0.441926 0.060247 0.192846
H25   H     H_    0.882909 0.393263 0.943604 0.228628
C41   C     C_3   0.448794 0.612678 0.165714 -0.406076
C42   C     C_3   0.518049 0.714902 0.200304 -0.786060
H26   H     H_    0.548266 0.704240 0.270941 0.238528
H27   H     H_    0.596474 0.744090 0.139506 0.251709
H28   H     H_    0.459865 0.775151 0.216303 0.240214
H29   H     H_    0.412446 0.635141 0.102165 0.214334
H30   H     H_    0.371886 0.582751 0.227309 0.220760
Cl2   Cl    Cl    0.158745 0.430770 0.792792 -0.643219

loop_
_geom_bond_atom_site_label_1
_geom_bond_atom_site_label_2
_ccdc_geom_bond_type
C38   H17   S    
C40   H21   S    
C14   C18   A    
C35   C36   A    
C4    C8    A    
Cu1   O7    S    
C32   C39   S    
C24   N2    A    
C11   C19   A    
C26   C27   A    
C29   C30   A    
C6    H10   S    
C1    O1    A    
C7    H14   S    
C18   C19   A    
C3    C7    A    
C5    C6    A    
C20   H2    S    
C38   H18   S    
C29   N1    A    
C37   H19   S    
C9    H1    S    
C34   C35   A    
C34   Cl2   S    
C39   H25   S    
C39   H24   S    
Cu1   O1    S    
Cu2   N2    S    
C16   C17   A    
C8    C41   S    
C31   C33   S    
C16   H6    S    
Cu1   O3    S    
C9    C32   A    
Cu2   O6    S    
C12   O3    A    
C19   H15   S    
C38   H16   S    
C9    C33   A    
C40   H22   S    
C31   O7    A    
C42   H28   S    
C23   O5    A    
C11   C20   A    
C28   H7    S    
C31   O8    A    
C30   H9    S    
C41   C42   S    
C42   H27   S    
C28   N1    A    
C42   H26   S    
C25   C26   A    
C37   H20   S    
C17   C21   A    
C21   H4    S    
C2    C4    A    
Cu1   Cu2   S    
C1    O2    A    
Cu2   O2    S    
C23   O6    A    
C17   C18   A    
C10   C34   A    
C10   C12   S    
C24   C37   S    
C14   H3    S    
Cu1   N1    S    
C26   C30   A    
C22   C27   A    
C13   C15   A    
C35   H13   S    
C40   H23   S    
C22   C24   A    
C1    C13   S    
C41   H30   S    
C36   H12   S    
Cu2   O8    S    
C2    C36   A    
C25   N2    A    
C39   C40   S    
C6    C7    A    
C29   H8    S    
C5    C32   A    
C2    C3    A    
C15   H5    S    
C3    C10   A    
C41   H29   S    
C11   C23   S    
C8    C33   A    
C12   O4    A    
C25   H11   S    
Cu1   O5    S    
C22   Cl1   S    
Cu2   O4    S    
C4    C5    A    
C20   C21   A    
C37   C38   S    
C13   C16   A    
C27   C28   A    
C14   C15   A    
