data_mof_unit_31278.cif
_audit_creation_date              2012-12-10T17:20:52-0500
_audit_creation_method            fapswitch 2.2
_symmetry_space_group_name_H-M    P1
_symmetry_Int_Tables_number       1
_space_group_crystal_system       triclinic
_cell_length_a                    14.336165
_cell_length_b                    10.765057
_cell_length_c                    9.644136
_cell_angle_alpha                 89.512383
_cell_angle_beta                  89.570112
_cell_angle_gamma                 93.018185
_cell_volume                      1486.21046793

loop_
_atom_site_label
_atom_site_type_symbol
_atom_type_description
_atom_site_fract_x
_atom_site_fract_y
_atom_site_fract_z
_atom_type_partial_charge
C1    C     C_R   0.500437 0.262826 0.500521 0.774851
C2    C     C_1   0.771096 0.500919 0.498903 -0.215645
C3    C     C_R   0.671267 0.141283 0.568514 -0.160630
C4    C     C_R   0.753462 0.081938 0.595627 -0.113766
C5    C     C_R   0.754817 0.952935 0.588236 -0.133457
C6    C     C_R   0.673720 0.882482 0.555354 -0.183431
C7    C     C_R   0.589348 0.940511 0.530161 0.106958
C8    C     C_R   0.588439 0.071648 0.534513 0.099458
C9    C     C_R   0.505050 0.129293 0.501401 -0.087041
C10   C     C_R   0.424797 0.059004 0.463975 -0.211820
C11   C     C_R   0.425149 0.930608 0.462830 -0.183085
C12   C     C_R   0.331274 0.499531 0.500465 0.804353
C13   C     C_R   0.506100 0.871385 0.497450 -0.080658
C14   C     C_R   0.627143 0.662006 0.140753 -0.235066
C15   C     C_R   0.692140 0.739668 0.067743 0.499099
C16   C     C_R   0.689659 0.741216 0.924620 -0.259969
C17   C     C_R   0.626860 0.662612 0.854326 -0.217612
C18   C     C_R   0.562816 0.579118 0.924084 0.178409
C19   C     C_R   0.562703 0.579185 0.073130 0.136154
C20   C     C_R   0.439934 0.425719 0.077286 -0.048735
C21   C     C_R   0.437960 0.425854 0.930094 0.240312
C22   C     C_R   0.501395 0.737248 0.499295 0.769021
C23   C     C_R   0.668728 0.500820 0.499544 0.767016
C24   C     C_1   0.228878 0.499713 0.501260 -0.204969
C25   C     C_1   0.143416 0.499979 0.501195 -0.014198
C26   C     C_1   0.042703 0.500371 0.500537 -0.000570
C27   C     C_1   0.957244 0.500670 0.499818 -0.004605
C28   C     C_1   0.856544 0.500883 0.499107 -0.021472
Cu1   Cu    Cu3+1 0.499990 0.499990 0.640660 0.923076
Cu2   Cu    Cu3+1 0.500010 0.500010 0.359340 0.931564
H1    H     H_    0.361343 0.103896 0.437231 0.134839
H2    H     H_    0.737257 0.804025 0.866738 0.175532
H3    H     H_    0.631097 0.672179 0.745216 0.212859
H4    H     H_    0.673414 0.241634 0.573384 0.135009
H5    H     H_    0.816565 0.136368 0.621062 0.139265
H6    H     H_    0.819019 0.907270 0.607436 0.131004
H7    H     H_    0.678062 0.782867 0.547459 0.092099
H8    H     H_    0.361800 0.876984 0.436117 0.140681
H9    H     H_    0.391207 0.365200 0.135991 0.141871
H10   H     H_    0.628683 0.672092 0.249712 0.203708
N1    N     N_R   0.500820 0.501210 0.147910 -0.193355
N2    N     N_R   0.500850 0.501290 0.852040 -0.195792
O1    O     O_R   0.499990 0.319640 0.618810 -0.593250
O2    O     O_R   0.500000 0.319660 0.381240 -0.560040
O3    O     O_R   0.376050 0.499990 0.618810 -0.559386
O4    O     O_R   0.376060 0.500010 0.381240 -0.557135
O5    O     O_R   0.500000 0.680340 0.618760 -0.581367
O6    O     O_R   0.500010 0.680360 0.381190 -0.581399
O7    O     O_R   0.623940 0.499990 0.618760 -0.573121
O8    O     O_R   0.623950 0.500010 0.381190 -0.569508
C29   C     C_3   0.361961 0.341365 0.867609 -0.373536
C30   C     C_3   0.265855 0.394149 0.887368 -0.843514
H11   H     H_    0.264900 0.489243 0.842052 0.272925
H12   H     H_    0.212172 0.333573 0.834790 0.242813
H13   H     H_    0.247352 0.398039 0.999203 0.241125
H14   H     H_    0.371879 0.322820 0.757603 0.255823
H15   H     H_    0.361882 0.248473 0.918982 0.170632
O9    O     O_3   0.753234 0.823680 0.133662 -0.565597
C31   C     C_3   0.809313 0.761198 0.228605 -0.300254
H16   H     H_    0.835670 0.673917 0.185158 0.157829
H17   H     H_    0.771038 0.741624 0.327460 0.152059
H18   H     H_    0.871126 0.823180 0.253200 0.193639

loop_
_geom_bond_atom_site_label_1
_geom_bond_atom_site_label_2
_ccdc_geom_bond_type
C11   H8    S    
C22   O6    A    
C24   C25   T    
Cu2   N1    S    
Cu1   Cu2   S    
C29   H15   S    
Cu1   N2    S    
C16   H2    S    
C9    C10   A    
C12   C24   S    
C1    O2    A    
C30   H13   S    
C21   C29   S    
C29   H14   S    
C17   C18   A    
Cu2   O8    S    
C6    H7    S    
C31   H16   S    
Cu1   O7    S    
C30   H11   S    
C11   C13   A    
Cu2   O2    S    
C26   C27   T    
C6    C7    A    
C17   H3    S    
Cu1   O5    S    
C4    C5    A    
C10   H1    S    
Cu2   O6    S    
C30   H12   S    
C13   C22   S    
C20   N1    A    
C18   N2    A    
C3    C8    A    
C5    C6    A    
C15   O9    S    
C22   O5    A    
C23   O7    A    
C7    C8    A    
C10   C11   A    
C14   H10   S    
C29   C30   S    
C5    H6    S    
C19   N1    A    
C7    C13   A    
C1    C9    S    
C20   C21   A    
C12   O4    A    
C18   C19   A    
C31   H17   S    
C2    C23   S    
C20   H9    S    
C4    H5    S    
C14   C15   A    
C12   O3    A    
C23   O8    A    
C2    C28   T    
C21   N2    A    
C31   H18   S    
C3    H4    S    
C25   C26   S    
O9    C31   S    
C14   C19   A    
C1    O1    A    
Cu1   O1    S    
C3    C4    A    
C15   C16   A    
C16   C17   A    
Cu1   O3    S    
C8    C9    A    
C27   C28   S    
Cu2   O4    S    
