data_mof_unit_30833.cif
_audit_creation_date              2013-03-05T16:05:09-0500
_audit_creation_method            fapswitch 2.2
_symmetry_space_group_name_H-M    P1
_symmetry_Int_Tables_number       1
_space_group_crystal_system       triclinic
_cell_length_a                    10.913483
_cell_length_b                    9.486226
_cell_length_c                    10.804283
_cell_angle_alpha                 89.205908
_cell_angle_beta                  89.669295
_cell_angle_gamma                 89.776266
_cell_volume                      1118.4090444

loop_
_atom_site_label
_atom_site_type_symbol
_atom_site_description
_atom_site_fract_x
_atom_site_fract_y
_atom_site_fract_z
_atom_type_partial_charge
O1    O     O_R   0.319660 0.618740 0.499990 -0.550650
O2    O     O_R   0.319660 0.381260 0.499990 -0.549555
C1    C     C_R   0.262429 0.500506 0.508806 0.945345
O3    O     O_R   0.499990 0.618790 0.317690 -0.519138
O4    O     O_R   0.499990 0.381210 0.317690 -0.586642
C2    C     C_R   0.505913 0.500850 0.259486 0.945177
Cu1   Cu    Cu3+1 0.500020 0.640660 0.500000 1.098492
Cu2   Cu    Cu3+1 0.500020 0.359340 0.500000 1.074167
O5    O     O_R   0.680370 0.618830 0.500010 -0.548390
O6    O     O_R   0.680370 0.381170 0.500010 -0.535115
O7    O     O_R   0.500030 0.618780 0.682310 -0.608248
O8    O     O_R   0.500030 0.381220 0.682310 -0.595876
C3    C     C_R   0.737952 0.500065 0.505958 0.929883
C4    C     C_R   0.503653 0.499198 0.739788 0.811711
C5    C     C_3   0.376534 0.483274 0.069082 0.176154
C6    C     C_3   0.583084 0.368547 0.069378 0.173038
H1    H     H_    0.353248 0.369988 0.083426 0.141669
H2    H     H_    0.536914 0.272924 0.107874 0.148194
C7    C     C_3   0.375340 0.506690 0.927498 -0.377140
C8    C     C_3   0.569616 0.362202 0.926711 -0.428423
H3    H     H_    0.317331 0.424494 0.884529 0.197530
H4    H     H_    0.513267 0.268847 0.902894 0.196678
H5    H     H_    0.334443 0.609972 0.901092 0.260196
H6    H     H_    0.659638 0.347636 0.879560 0.240278
H7    H     H_    0.554608 0.725966 0.873637 0.216021
H8    H     H_    0.679165 0.609095 0.891537 0.211562
C9    C     C_3   0.573138 0.644447 0.064533 0.529282
C10   C     C_3   0.511667 0.503407 0.120809 -0.315269
C11   C     C_3   0.507364 0.498449 0.876633 -0.098371
C12   C     C_3   0.582539 0.626521 0.921414 -0.420040
C13   C     C_R   0.064594 0.375917 0.545830 0.238459
C14   C     C_R   0.063518 0.630973 0.509951 0.238873
C15   C     C_R   0.937062 0.374830 0.540218 0.212148
C16   C     C_R   0.936412 0.630358 0.506511 0.245419
C17   C     C_R   0.872019 0.501333 0.515853 -0.378415
C18   C     C_R   0.128788 0.502646 0.522913 -0.364884
C19   C     C_R   0.428438 0.076263 0.419290 0.080365
C20   C     C_R   0.427901 0.927382 0.419978 0.143789
H9    H     H_    0.371077 0.133892 0.354649 0.160292
H10   H     H_    0.369806 0.872924 0.356350 0.205695
N1    N     N_R   0.500030 0.852070 0.500030 -0.203092
N2    N     N_R   0.500030 0.147930 0.500030 -0.198627
C21   C     C_R   0.570187 0.923852 0.582138 0.072837
C22   C     C_R   0.569939 0.072901 0.582341 0.082783
H11   H     H_    0.625902 0.866197 0.648125 0.158196
H12   H     H_    0.625284 0.127982 0.648564 0.167963
S1    S     S_3+6 0.246653 0.566421 0.144464 0.075334
O9    O     O_2   0.281819 0.690911 0.220066 -0.225422
O10   O     O_2   0.154398 0.613164 0.049326 -0.181175
O11   O     O_3   0.180425 0.445347 0.237941 -0.550910
H13   H     H_    0.095877 0.480414 0.251835 0.380374
S2    S     S_3+6 0.741808 0.339424 0.110120 0.085051
O12   O     O_2   0.773835 0.189874 0.078445 -0.173896
O13   O     O_2   0.825048 0.436071 0.037492 -0.225799
O14   O     O_3   0.765083 0.359862 0.261765 -0.487136
H14   H     H_    0.854715 0.348727 0.272323 0.384576
N3    N     N_R   0.498795 0.771482 0.092071 0.140816
O15   O     O_R   0.405686 0.807446 0.023644 -0.314248
O16   O     O_R   0.539572 0.864165 0.169323 -0.294157
N4    N     N_R   0.698494 0.669210 0.111615 0.173732
O17   O     O_R   0.770423 0.755308 0.050822 -0.232275
O18   O     O_R   0.725886 0.641796 0.226324 -0.278946
N5    N     N_R   0.127521 0.248402 0.580827 0.185046
O19   O     O_R   0.188188 0.241895 0.684101 -0.308366
O20   O     O_R   0.118627 0.136499 0.513306 -0.219652
N6    N     N_R   0.124574 0.764570 0.502671 0.181282
O21   O     O_R   0.169489 0.819193 0.602399 -0.265795
O22   O     O_R   0.118213 0.840753 0.401859 -0.230439
N7    N     N_R   0.874592 0.245702 0.568458 0.167636
O23   O     O_R   0.858558 0.207210 0.683405 -0.298013
O24   O     O_R   0.852711 0.156677 0.480849 -0.230060
N8    N     N_R   0.874405 0.763821 0.499966 0.177917
O25   O     O_R   0.867888 0.841255 0.598219 -0.276126
O26   O     O_R   0.847768 0.819473 0.392731 -0.183679

loop_
_geom_bond_atom_site_label_1
_geom_bond_atom_site_label_2
_geom_bond_distance
_ccdc_geom_bond_type
C6    C10   1.599935 S    
O4    Cu2   1.977766 S    
N6    O22   1.300818 A    
O14   H14   0.990549 S    
C13   C15   1.393566 A    
H8    C12   1.113440 S    
C19   C20   1.412268 A    
C15   N7    1.432525 S    
N1    C21   1.365849 A    
C13   C18   1.411978 A    
Cu1   O7    1.977771 S    
S1    O9    1.497659 D    
S2    O14   1.673474 S    
Cu2   O8    1.983493 S    
C21   C22   1.413938 A    
Cu1   O5    1.978307 S    
N5    O20   1.300602 A    
O11   H13   0.990949 S    
N3    O15   1.301724 A    
Cu1   Cu2   2.668665 S    
S1    O10   1.504238 D    
C6    H2    1.113742 S    
O1    Cu1   1.980117 S    
C9    C12   1.560702 S    
C5    C7    1.542822 S    
C21   H11   1.081080 S    
C15   C17   1.414223 A    
C5    C10   1.593255 S    
C11   C12   1.553020 S    
N2    C22   1.365868 A    
C1    C18   1.465648 S    
N4    O17   1.303413 A    
O3    Cu1   1.983485 S    
C14   C18   1.413711 A    
O1    C1    1.288011 A    
N8    O26   1.300497 A    
C6    C8    1.551271 S    
C20   H10   1.076511 S    
O8    C4    1.288273 A    
C16   N8    1.434299 S    
C3    C17   1.467759 S    
S1    O11   1.681504 S    
O2    C1    1.294441 A    
C9    N4    1.483044 S    
Cu1   N1    2.005488 S    
N4    O18   1.299129 A    
O4    C2    1.291518 A    
C19   H9    1.081805 S    
O7    C4    1.286248 A    
N7    O23   1.300664 A    
N3    O16   1.302064 A    
O3    C2    1.292216 A    
C8    H4    1.114031 S    
C4    C11   1.479218 S    
Cu2   N2    2.005479 S    
N5    O19   1.301332 A    
C7    C11   1.541215 S    
C13   N5    1.435849 S    
C2    C10   1.499124 S    
C19   N2    1.364577 A    
N6    O21   1.301280 A    
S2    O12   1.503369 D    
C20   N1    1.365456 A    
C14   N6    1.435103 S    
C16   C17   1.415840 A    
C9    N3    1.482750 S    
H7    C12   1.111474 S    
N7    O24   1.300976 A    
O5    C3    1.288907 A    
C7    H5    1.109432 S    
C8    C11   1.550092 S    
C5    S1    1.813939 S    
C22   H12   1.080547 S    
C7    H3    1.114259 S    
C5    H1    1.113803 S    
Cu2   O6    1.979915 S    
O2    Cu2   1.978501 S    
C6    S2    1.808972 S    
C8    H6    1.113083 S    
S2    O13   1.503298 D    
N8    O25   1.300724 A    
C9    C10   1.609217 S    
O6    C3    1.295815 A    
C14   C16   1.387916 A    
