data_mof_unit_44783.cif
_audit_creation_date              2012-12-11T14:33:53-0500
_audit_creation_method            fapswitch 2.2
_symmetry_space_group_name_H-M    P1
_symmetry_Int_Tables_number       1
_space_group_crystal_system       triclinic
_cell_length_a                    14.461151
_cell_length_b                    14.299699
_cell_length_c                    26.981119
_cell_angle_alpha                 91.29977
_cell_angle_beta                  90.199751
_cell_angle_gamma                 119.164638
_cell_volume                      4870.15607958

loop_
_atom_site_label
_atom_site_type_symbol
_atom_type_description
_atom_site_fract_x
_atom_site_fract_y
_atom_site_fract_z
_atom_type_partial_charge
C1    C     C_R   0.232446 0.790135 0.566704 0.561012
C2    C     C_1   0.693792 0.871869 0.864185 0.094249
C3    C     C_1   0.659605 0.670591 0.127634 0.251202
C4    C     C_1   0.327587 0.005546 0.135709 0.252672
C5    C     C_1   0.005805 0.341907 0.131064 0.270653
C6    C     C_1   0.794706 0.049130 0.699201 0.455000
C7    C     C_1   0.986886 0.609138 0.702226 0.428342
C8    C     C_1   0.317811 0.265534 0.687010 0.391291
C9    C     C_1   0.620807 0.666336 0.816024 0.416278
C10   C     C_1   0.253385 0.988879 0.804777 0.352253
C11   C     C_1   0.015561 0.315944 0.810325 0.378442
C12   C     C_1   0.102915 0.810772 0.858988 0.161012
C13   C     C_1   0.145079 0.238813 0.854547 0.124724
C14   C     C_1   0.648444 0.834835 0.655699 0.069456
C15   C     C_1   0.150524 0.819558 0.649502 0.109582
C16   C     C_1   0.219500 0.394901 0.661375 0.074924
C17   C     C_1   0.614923 0.807899 0.613653 0.104772
C18   C     C_1   0.186624 0.814944 0.609415 0.114229
C19   C     C_1   0.213561 0.418120 0.619241 0.101459
C20   C     C_R   0.106484 0.224217 0.086702 0.602307
C21   C     C_R   0.217198 0.454278 0.569883 0.556743
C22   C     C_R   0.779365 0.886016 0.087990 0.583522
C23   C     C_R   0.116421 0.894673 0.087387 0.586187
C24   C     C_R   0.073554 0.164424 0.943141 0.552201
C25   C     C_R   0.779260 0.887135 0.952010 0.570831
C26   C     C_R   0.109372 0.891896 0.949992 0.563745
C27   C     C_R   0.624771 0.896065 0.365015 -0.085303
C28   C     C_R   0.104887 0.726294 0.361893 -0.085558
C29   C     C_R   0.270673 0.370776 0.363538 -0.083361
C30   C     C_R   0.647253 0.913067 0.314541 0.011763
C31   C     C_R   0.086890 0.735398 0.311599 0.012708
C32   C     C_R   0.555240 0.767478 0.567883 0.558741
C33   C     C_R   0.264754 0.349835 0.312418 0.014110
C34   C     C_R   0.679164 0.935263 0.210805 -0.026581
C35   C     C_R   0.068549 0.748932 0.207414 -0.029015
C36   C     C_R   0.256702 0.328420 0.207457 -0.030100
C37   C     C_R   0.233299 0.787383 0.432350 0.529545
C38   C     C_R   0.211899 0.444270 0.432469 0.537880
C39   C     C_R   0.554181 0.765765 0.432301 0.538609
C40   C     C_R   0.656014 0.007092 0.238779 0.004740
C41   C     C_R   0.993022 0.657226 0.233207 -0.004936
C42   C     C_R   0.349588 0.347605 0.234722 -0.007075
C43   C     C_3   0.682583 0.765693 0.789474 0.092626
C44   C     C_R   0.641733 0.996415 0.290320 0.221873
C45   C     C_R   0.005078 0.649702 0.284512 0.216058
C46   C     C_R   0.352746 0.358225 0.286734 0.217682
C47   C     C_R   0.708904 0.948849 0.159993 0.194351
C48   C     C_R   0.064654 0.761340 0.155173 0.193237
C49   C     C_R   0.243192 0.308360 0.155144 0.191761
C50   C     C_R   0.717340 0.866082 0.133848 0.007301
C51   C     C_R   0.140778 0.856748 0.133515 0.012727
C52   C     C_R   0.148571 0.292174 0.131943 0.009265
C53   C     C_R   0.648720 0.740177 0.361800 -0.084168
C54   C     C_3   0.145358 0.917349 0.784884 0.052253
C55   C     C_R   0.248991 0.908356 0.365675 -0.084717
C56   C     C_R   0.091293 0.340800 0.363331 -0.084773
C57   C     C_R   0.670960 0.754496 0.311448 0.022895
C58   C     C_R   0.236417 0.918398 0.315303 0.021557
C59   C     C_R   0.083130 0.321068 0.312351 0.021325
C60   C     C_R   0.666104 0.839100 0.287147 -0.009836
C61   C     C_R   0.156828 0.830021 0.287527 -0.009011
C62   C     C_R   0.172234 0.330199 0.286270 -0.010048
C63   C     C_R   0.689811 0.681070 0.284110 0.239822
C64   C     C_R   0.307577 0.011857 0.291476 0.240470
C65   C     C_3   0.076440 0.278315 0.779612 0.107682
C66   C     C_R   0.991319 0.302531 0.286427 0.242998
C67   C     C_R   0.690299 0.683343 0.232884 -0.082077
C68   C     C_R   0.307191 0.013389 0.240346 -0.078998
C69   C     C_R   0.992476 0.305997 0.235301 -0.067562
C70   C     C_R   0.682326 0.764614 0.208146 -0.045896
C71   C     C_R   0.231426 0.925247 0.212056 -0.048583
C72   C     C_R   0.081263 0.318571 0.208944 -0.046523
C73   C     C_3   0.569775 0.866404 0.733591 0.408041
C74   C     C_3   0.208450 0.784190 0.729141 0.403066
C75   C     C_3   0.297325 0.443042 0.752475 0.417218
C76   C     C_3   0.658274 0.750252 0.732852 -0.205075
C77   C     C_R   0.677076 0.847295 0.235402 -0.015560
C78   C     C_R   0.150975 0.835049 0.235647 -0.015284
C79   C     C_R   0.169789 0.324184 0.234205 -0.017087
C80   C     C_R   0.685055 0.767464 0.156651 -0.060234
C81   C     C_R   0.232484 0.928372 0.160604 -0.059678
C82   C     C_R   0.080187 0.319153 0.157520 -0.056545
C83   C     C_R   0.616836 0.805093 0.387387 -0.027977
C84   C     C_R   0.190663 0.809656 0.387635 -0.026790
C85   C     C_R   0.188324 0.376871 0.387614 -0.030070
C86   C     C_3   0.771052 0.951817 0.726865 0.192862
C87   C     C_3   0.141611 0.918419 0.726778 -0.224073
C88   C     C_3   0.010350 0.718721 0.717018 0.116320
C89   C     C_3   0.222965 0.253814 0.713250 0.142644
C90   C     C_3   0.768994 0.967271 0.785552 0.106291
C91   C     C_3   0.996146 0.728723 0.774742 0.116797
C92   C     C_3   0.219845 0.222553 0.769190 0.088307
C93   C     C_1   0.724895 0.874149 0.905863 0.102124
C94   C     C_1   0.111638 0.844996 0.901692 0.111581
C95   C     C_1   0.110145 0.204948 0.894782 0.120592
C96   C     C_3   0.663477 0.852920 0.710600 -0.096043
C97   C     C_3   0.125851 0.809808 0.703804 -0.086767
C98   C     C_3   0.102556 0.334409 0.729805 -0.209513
C99   C     C_3   0.214232 0.358679 0.712860 -0.049914
C100  C     C_3   0.568371 0.857481 0.792883 0.444096
C101  C     C_3   0.181093 0.756439 0.785932 0.420150
C102  C     C_3   0.265483 0.404743 0.808315 0.422663
C103  C     C_3   0.675983 0.866069 0.809796 -0.065580
C104  C     C_3   0.105165 0.799811 0.803115 -0.055993
C105  C     C_3   0.177767 0.285157 0.804716 -0.022705
C106  C     C_1   0.634754 0.085333 0.215725 0.365151
C107  C     C_1   0.900288 0.569707 0.209473 0.359729
C108  C     C_1   0.445870 0.362744 0.211475 0.359012
Cl1   Cl    Cl    0.542788 0.954465 0.824892 -0.254360
Cl2   Cl    Cl    0.807610 0.782431 0.804169 -0.543848
Cl3   Cl    Cl    0.062348 0.967582 0.810918 -0.596671
Cl4   Cl    Cl    0.989542 0.143963 0.768291 -0.545598
Cl5   Cl    Cl    0.746374 0.071337 0.130097 -0.547548
Cl6   Cl    Cl    0.974841 0.658125 0.113951 -0.530417
Cl7   Cl    Cl    0.339555 0.301699 0.116861 -0.522804
Cl8   Cl    Cl    0.612985 0.086899 0.324163 -0.430047
Cl9   Cl    Cl    0.916349 0.530622 0.314762 -0.438140
Cl10  Cl    Cl    0.470260 0.385885 0.319661 -0.435032
Cl11  Cl    Cl    0.713951 0.585030 0.312256 -0.435993
Cl12  Cl    Cl    0.120756 0.615366 0.796366 -0.352633
Cl13  Cl    Cl    0.401832 0.127988 0.323887 -0.443163
Cl14  Cl    Cl    0.873340 0.276670 0.316258 -0.443042
Cl15  Cl    Cl    0.576738 0.989882 0.714684 -0.344421
Cl16  Cl    Cl    0.212622 0.679088 0.692955 -0.424846
Cl17  Cl    Cl    0.430947 0.476100 0.738858 -0.463020
Cl18  Cl    Cl    0.877331 0.928759 0.708717 -0.424374
Cl19  Cl    Cl    0.913071 0.733747 0.682196 -0.500917
Cl20  Cl    Cl    0.118323 0.147441 0.676744 -0.540225
Cl21  Cl    Cl    0.772238 0.090569 0.805663 -0.429334
Cl22  Cl    Cl    0.904222 0.607554 0.804720 -0.366078
Cl23  Cl    Cl    0.371841 0.421259 0.848191 -0.322432
Cl24  Cl    Cl    0.342583 0.232413 0.789789 -0.438405
Cl25  Cl    Cl    0.451759 0.768948 0.703965 -0.344401
Cl26  Cl    Cl    0.336617 0.899109 0.722458 -0.368870
Cl27  Cl    Cl    0.298286 0.562567 0.745661 -0.307048
Cl28  Cl    Cl    0.463130 0.735554 0.815346 -0.314847
Cl29  Cl    Cl    0.294525 0.806380 0.826005 -0.303647
Cl30  Cl    Cl    0.223766 0.483928 0.845492 -0.349055
Cr1   Cr    Cr6+3 0.164410 0.584450 0.499910 1.106566
Cr2   Cr    Cr6+3 0.415550 0.579960 0.499910 1.108189
Cr3   Cr    Cr6+3 0.420040 0.835590 0.499910 1.116938
Cr4   Cr    Cr6+3 0.155170 0.075460 0.019960 1.165540
Cr5   Cr    Cr6+3 0.924540 0.079710 0.019960 1.153798
Cr6   Cr    Cr6+3 0.920290 0.844830 0.019960 1.156864
H1    H     H_    0.603754 0.947800 0.386194 0.205516
H2    H     H_    0.842682 0.975414 0.801952 0.276151
H3    H     H_    0.957712 0.775883 0.775910 0.290267
H4    H     H_    0.166091 0.137291 0.769899 0.260717
H5    H     H_    0.578082 0.681803 0.725580 0.208328
H6    H     H_    0.213461 0.988288 0.712331 0.191656
H7    H     H_    0.098627 0.410202 0.732624 0.194308
H8    H     H_    0.712595 0.727590 0.713639 0.260491
H9    H     H_    0.075462 0.930858 0.714271 0.285894
H10   H     H_    0.040690 0.285594 0.701249 0.227242
H11   H     H_    0.058100 0.651530 0.380257 0.205618
H12   H     H_    0.343316 0.393759 0.383980 0.206326
H13   H     H_    0.701647 0.623526 0.212628 0.174935
H14   H     H_    0.365325 0.085720 0.222964 0.176209
H15   H     H_    0.921531 0.294683 0.216238 0.186473
H16   H     H_    0.645075 0.671778 0.379949 0.215406
H17   H     H_    0.312275 0.973479 0.386758 0.212851
H18   H     H_    0.026660 0.341422 0.383142 0.212393
N1    N     N_1   0.617058 0.147933 0.197868 -0.129196
N2    N     N_1   0.578684 0.589627 0.838601 -0.033847
N3    N     N_1   0.337707 0.040747 0.821529 -0.027585
N4    N     N_1   0.967561 0.344987 0.834182 -0.065028
N5    N     N_1   0.825486 0.499001 0.191276 -0.123433
N6    N     N_1   0.523772 0.375390 0.193686 -0.126427
N7    N     N_1   0.639150 0.593390 0.104659 -0.158079
N8    N     N_1   0.403330 0.066849 0.116012 -0.162370
N9    N     N_1   0.946749 0.360273 0.110114 -0.142204
N10   N     N_1   0.814094 0.125224 0.677406 -0.156224
N11   N     N_1   0.966991 0.522800 0.690569 -0.153498
N12   N     N_1   0.391333 0.273963 0.666257 -0.135161
O1    O     O_R   0.137150 0.468200 0.553200 -0.475934
O2    O     O_R   0.140110 0.470540 0.446010 -0.499093
O3    O     O_R   0.529460 0.669570 0.446010 -0.502401
O4    O     O_R   0.330430 0.859890 0.446010 -0.503641
O5    O     O_R   0.176710 0.690910 0.450560 -0.505439
O6    O     O_R   0.309090 0.485800 0.450560 -0.503652
O7    O     O_R   0.514200 0.823290 0.450560 -0.505392
O8    O     O_3   0.333333 0.666667 0.499990 -0.316599
O9    O     O_R   0.176750 0.985260 0.074180 -0.498492
O10   O     O_R   0.014740 0.191490 0.074180 -0.489358
O11   O     O_R   0.808510 0.823250 0.074180 -0.501007
O12   O     O_R   0.531800 0.668950 0.553200 -0.481472
O13   O     O_R   0.146100 0.172630 0.068980 -0.440630
O14   O     O_R   0.827370 0.973470 0.068980 -0.442985
O15   O     O_R   0.026530 0.853900 0.068980 -0.448786
O16   O     O_3   0.000000 0.000000 0.020040 -0.320838
O17   O     O_R   0.148270 0.170520 0.969620 -0.467116
O18   O     O_R   0.829480 0.977750 0.969620 -0.509137
O19   O     O_R   0.022250 0.851730 0.969620 -0.485967
O20   O     O_R   0.331050 0.862850 0.553200 -0.463842
O21   O     O_R   0.179100 0.982980 0.967000 -0.481803
O22   O     O_R   0.017020 0.196120 0.967000 -0.468417
O23   O     O_R   0.803880 0.820900 0.967000 -0.474313
O24   O     O_R   0.173970 0.688730 0.549930 -0.482995
O25   O     O_R   0.311270 0.485240 0.549930 -0.490805
O26   O     O_R   0.514760 0.826030 0.549930 -0.472990

loop_
_geom_bond_atom_site_label_1
_geom_bond_atom_site_label_2
_ccdc_geom_bond_type
C26   C94   S    
C15   C18   T    
C74   Cl16  S    
C98   H10   S    
C25   C93   S    
C38   O2    A    
C29   C33   A    
C86   Cl18  S    
Cr5   O14   S    
C31   C61   A    
C36   C42   A    
C1    O24   A    
C10   N3    T    
C91   C104  S    
C12   C94   T    
C91   H3    S    
Cr1   O24   S    
C91   Cl22  S    
C6    N10   T    
C37   O4    A    
C1    C18   S    
C4    N8    T    
C89   C99   S    
Cr5   O22   S    
C34   C40   A    
C64   C68   A    
C54   C104  S    
C92   Cl24  S    
Cr2   O25   S    
C21   O25   A    
C65   C98   S    
C12   C104  S    
C88   Cl19  S    
C68   C71   A    
C34   C77   A    
C102  Cl30  S    
C54   C87   S    
C8    N12   T    
C66   C69   A    
C92   H4    S    
Cr6   O15   S    
C35   C48   A    
C64   Cl13  S    
Cr4   O16   S    
C56   H18   S    
C46   Cl10  S    
C102  C105  S    
Cr3   O8    S    
C42   C46   A    
C65   C105  S    
Cr2   O6    S    
C90   Cl21  S    
Cr1   O1    S    
C48   C51   A    
Cr6   O23   S    
C33   C62   A    
C21   O1    A    
C87   H6    S    
C30   C60   A    
C28   H11   S    
Cr5   O18   S    
C66   Cl14  S    
C37   C84   S    
C32   O26   A    
C43   Cl2   S    
C47   C50   A    
C51   C81   A    
C29   C85   A    
C88   C97   S    
C22   C50   S    
C76   H5    S    
C58   C61   A    
Cr4   O9    S    
C108  N6    T    
C100  Cl1   S    
C70   C77   A    
C33   C46   A    
C14   C17   T    
C30   C44   A    
Cr1   O2    S    
C15   C97   S    
C68   H14   S    
C3    C80   S    
C14   C96   S    
C39   O3    A    
C57   C63   A    
C74   C97   S    
C107  N5    T    
C98   H7    S    
C28   C31   A    
C58   C64   A    
C37   O5    A    
C63   C67   A    
C60   C77   A    
C9    C43   S    
C38   O6    A    
C4    C81   S    
C38   C85   S    
C70   C80   A    
Cr3   O4    S    
C62   C79   A    
C25   O23   A    
C102  Cl23  S    
C55   H17   S    
C13   C105  S    
C86   C90   S    
C24   C95   S    
C101  Cl29  S    
C3    N7    T    
C57   C60   A    
C87   C97   S    
Cr6   O19   S    
C59   C62   A    
C73   Cl15  S    
Cr6   O11   S    
C75   C102  S    
C25   O18   A    
C100  C103  S    
Cr2   O8    S    
C26   O21   A    
C75   Cl17  S    
C9    N2    T    
C65   Cl4   S    
C23   O9    A    
C19   C21   S    
Cr4   O13   S    
C11   N4    T    
C63   Cl11  S    
C23   C51   S    
C7    C88   S    
C88   C91   S    
C61   C78   A    
C27   H1    S    
C49   C52   A    
C75   C99   S    
Cr2   O3    S    
C5    N9    T    
Cr4   O21   S    
C67   H13   S    
C76   H8    S    
C40   C106  S    
C106  N1    T    
C89   C92   S    
C52   C82   A    
C39   O7    A    
Cr1   O8    S    
C86   C96   S    
C74   C101  S    
C20   O10   A    
Cr3   O26   S    
C73   Cl25  S    
C73   C100  S    
C101  C104  S    
C29   H12   S    
C17   C32   S    
C7    N11   T    
C23   O15   A    
C69   C72   A    
C48   Cl6   S    
C45   Cl9   S    
C43   C76   S    
C47   Cl5   S    
C53   H16   S    
C41   C45   A    
C41   C107  S    
C49   Cl7   S    
C101  Cl12  S    
C2    C93   T    
C36   C79   A    
C50   C80   A    
C16   C99   S    
C34   C47   A    
C72   C79   A    
C35   C78   A    
C6    C86   S    
C56   C59   A    
C32   O12   A    
C53   C83   A    
C67   C70   A    
Cr2   O12   S    
Cr5   O10   S    
C22   O11   A    
C27   C83   A    
C1    O20   A    
C28   C84   A    
C39   C83   S    
C20   C52   S    
C87   H9    S    
C20   O13   A    
C5    C82   S    
C13   C95   T    
C56   C85   A    
C75   Cl27  S    
Cr6   O16   S    
C2    C103  S    
C16   C19   T    
C72   C82   A    
Cr4   O17   S    
C74   Cl26  S    
C69   H15   S    
Cr5   O16   S    
C53   C57   A    
C54   Cl3   S    
C24   O17   A    
Cr3   O7    S    
Cr3   O20   S    
C22   O14   A    
C10   C54   S    
C43   C103  S    
C90   C103  S    
Cr1   O5    S    
C100  Cl28  S    
C92   C105  S    
C40   C44   A    
C44   Cl8   S    
C90   H2    S    
C98   C99   S    
C31   C45   A    
C55   C58   A    
C35   C41   A    
C24   O22   A    
C8    C89   S    
C73   C96   S    
C71   C81   A    
C55   C84   A    
C26   O19   A    
C42   C108  S    
C71   C78   A    
C76   C96   S    
C36   C49   A    
C11   C65   S    
C59   C66   A    
C27   C30   A    
C89   Cl20  S    
