data_mof_unit_39550.cif
_audit_creation_date              2013-03-05T16:07:27-0500
_audit_creation_method            fapswitch 2.2
_symmetry_space_group_name_H-M    P1
_symmetry_Int_Tables_number       1
_space_group_crystal_system       triclinic
_cell_length_a                    19.377352
_cell_length_b                    7.109623
_cell_length_c                    17.596213
_cell_angle_alpha                 89.995345
_cell_angle_beta                  108.582403
_cell_angle_gamma                 89.996668
_cell_volume                      2297.7739559

loop_
_atom_site_label
_atom_site_type_symbol
_atom_site_description
_atom_site_fract_x
_atom_site_fract_y
_atom_site_fract_z
_atom_type_partial_charge
O1    O     O_R   0.413720 0.494330 0.415730 -0.605851
O2    O     O_R   0.586280 0.994330 0.584270 -0.605881
O3    O     O_R   0.560210 0.819300 0.430070 -0.586174
O4    O     O_R   0.439790 0.319300 0.569930 -0.586188
C1    C     C_R   0.581141 0.655167 0.414092 1.027544
C2    C     C_R   0.418858 0.155164 0.585908 1.027469
O5    O     O_R   0.412670 0.823730 0.406310 -0.574436
O6    O     O_R   0.587330 0.323730 0.593690 -0.574411
O7    O     O_R   0.437690 0.998790 0.560340 -0.564979
O8    O     O_R   0.562310 0.498790 0.439660 -0.565170
C3    C     C_R   0.385832 0.655247 0.382866 0.941788
C4    C     C_R   0.614169 0.155233 0.617131 0.941637
O9    O     O_3   0.508380 0.662350 0.550560 -0.239210
O10   O     O_3   0.491620 0.162350 0.449440 -0.239298
V1    V     V_3+5 0.498450 0.935370 0.490620 1.272922
V2    V     V_3+5 0.501550 0.435370 0.509380 1.272906
C5    C     C_R   0.694774 0.002243 0.744135 0.064070
C6    C     C_R   0.305239 0.502264 0.255870 0.064156
C7    C     C_R   0.681167 0.148353 0.687687 -0.195790
C8    C     C_R   0.318838 0.648380 0.312305 -0.195856
C9    C     C_R   0.733138 0.294417 0.702434 -0.093343
C10   C     C_R   0.266851 0.794427 0.297549 -0.093413
H1    H     H_    0.724430 0.413681 0.662254 0.136344
H2    H     H_    0.275550 0.913694 0.337717 0.136412
C11   C     C_R   0.799424 0.281673 0.766023 -0.133505
C12   C     C_R   0.200561 0.781657 0.233968 -0.133371
H3    H     H_    0.839832 0.390502 0.772891 0.201052
H4    H     H_    0.160143 0.890480 0.227092 0.201036
C13   C     C_R   0.815700 0.123312 0.816817 -0.153965
C14   C     C_R   0.184296 0.623287 0.183191 -0.153985
C15   C     C_R   0.760721 0.988987 0.806033 0.000559
C16   C     C_R   0.239290 0.488986 0.193979 0.000514
C17   C     C_3   0.762893 0.780250 0.799819 0.479145
C18   C     C_3   0.237147 0.280248 0.200207 0.479086
C19   C     C_3   0.689111 0.793395 0.734395 -0.017452
C20   C     C_3   0.310932 0.293416 0.265624 -0.017446
H5    H     H_    0.763271 0.705751 0.855500 0.075175
H6    H     H_    0.236774 0.205765 0.144529 0.075196
H7    H     H_    0.688702 0.743062 0.674385 0.115358
H8    H     H_    0.311353 0.243063 0.325638 0.115377
C21   C     C_R   0.323625 0.300010 0.635468 -0.278104
C22   C     C_R   0.676505 0.799849 0.364690 -0.278194
C23   C     C_R   0.369910 0.147141 0.635818 -0.360885
C24   C     C_R   0.630092 0.647153 0.364187 -0.360867
C25   C     C_R   0.368785 0.988463 0.683612 0.765412
C26   C     C_R   0.631085 0.488654 0.316242 0.765422
C27   C     C_R   0.322045 0.983199 0.730645 -0.166837
C28   C     C_R   0.677863 0.483337 0.269252 -0.166936
C29   C     C_R   0.275148 0.136482 0.728862 -0.028189
C30   C     C_R   0.724857 0.636485 0.271147 -0.028282
C31   C     C_R   0.275893 0.295043 0.680904 0.192742
C32   C     C_R   0.724209 0.794917 0.319218 0.192854
C33   C     C_R   0.321480 0.827848 0.779802 -0.249850
C34   C     C_R   0.678378 0.328057 0.220037 -0.249532
C35   C     C_R   0.274561 0.822869 0.825940 0.724632
C36   C     C_R   0.725325 0.323035 0.173934 0.724670
C37   C     C_R   0.226717 0.973186 0.823399 -0.082089
C38   C     C_R   0.773217 0.473281 0.176527 -0.082138
C39   C     C_R   0.227423 0.131409 0.775160 0.013110
C40   C     C_R   0.772583 0.631407 0.224849 0.013213
C41   C     C_R   0.180536 0.284848 0.773227 0.233471
C42   C     C_R   0.819550 0.784733 0.226875 0.233422
C43   C     C_R   0.181334 0.440775 0.724621 -0.159066
C44   C     C_R   0.818821 0.940566 0.275561 -0.159591
C45   C     C_R   0.228639 0.445926 0.678961 -0.203165
C46   C     C_R   0.771530 0.945701 0.321238 -0.202963
C47   C     C_R   0.178357 0.968685 0.868267 -0.140807
C48   C     C_R   0.821558 0.468804 0.131633 -0.140651
C49   C     C_R   0.131713 0.121328 0.866984 -0.179823
C50   C     C_R   0.868291 0.621322 0.133022 -0.179691
C51   C     C_R   0.133615 0.279698 0.819777 -0.195818
C52   C     C_R   0.866490 0.779559 0.180346 -0.195957
H9    H     H_    0.323887 0.422179 0.598646 0.174589
H10   H     H_    0.676353 0.921855 0.401648 0.174176
H11   H     H_    0.357283 0.709168 0.782599 0.231570
H12   H     H_    0.642514 0.209466 0.217171 0.231582
H13   H     H_    0.177606 0.847220 0.905236 0.184493
H14   H     H_    0.822224 0.347463 0.094559 0.184463
H15   H     H_    0.097760 0.397726 0.818280 0.137183
H16   H     H_    0.902438 0.897456 0.181947 0.137099
H17   H     H_    0.145659 0.559548 0.722301 0.121921
H18   H     H_    0.854563 0.059244 0.277958 0.121976
H19   H     H_    0.228435 0.568520 0.642280 0.128115
H20   H     H_    0.771809 0.068195 0.358006 0.128039
O11   O     O_R   0.937800 0.775460 0.060470 -0.592839
O12   O     O_R   0.062200 0.275460 0.939530 -0.592869
O13   O     O_R   0.087350 0.441340 0.093710 -0.555415
O14   O     O_R   0.912650 0.941340 0.906290 -0.555394
C53   C     C_R   0.114619 0.610317 0.116471 0.936386
C54   C     C_R   0.885380 0.110331 0.883532 0.936402
O15   O     O_R   0.939820 0.446010 0.069950 -0.600249
O16   O     O_R   0.060180 0.946010 0.930050 -0.600279
O17   O     O_R   0.913690 0.271230 0.915700 -0.598695
O18   O     O_R   0.086310 0.771230 0.084300 -0.598703
C55   C     C_R   0.918426 0.614265 0.084606 0.941575
C56   C     C_R   0.081575 0.114266 0.915396 0.941655
O19   O     O_3   0.991670 0.603050 0.949510 -0.271462
O20   O     O_3   0.008330 0.103050 0.050490 -0.271475
V3    V     V_3+5 0.001550 0.329940 0.009370 1.207667
V4    V     V_3+5 0.998450 0.829940 0.990630 1.207651
F1    F     F_    0.276093 0.670699 0.873119 -0.683485
F2    F     F_    0.723772 0.170895 0.126733 -0.683376
F3    F     F_    0.817479 0.724914 0.769648 -0.714896
F4    F     F_    0.182574 0.224876 0.230389 -0.714911
N1    N     N_R   0.630019 0.716503 0.760104 0.251211
O21   O     O_R   0.619407 0.774835 0.825662 -0.342050
O22   O     O_R   0.588373 0.585215 0.718137 -0.324835
N2    N     N_R   0.370028 0.216561 0.239911 0.251277
O23   O     O_R   0.380633 0.274942 0.174352 -0.341897
O24   O     O_R   0.411680 0.085242 0.281868 -0.324752
F5    F     F_    0.414218 0.841269 0.685844 -0.664645
F6    F     F_    0.585468 0.341729 0.313805 -0.664334

loop_
_geom_bond_atom_site_label_1
_geom_bond_atom_site_label_2
_geom_bond_distance
_ccdc_geom_bond_type
C43   C45   1.398737 A    
C26   F6    1.360249 S    
C20   N2    1.464513 S    
C19   H7    1.112581 S    
C47   H13   1.084008 S    
C49   C56   1.483105 S    
O2    C4    1.317601 A    
C2    O7    1.294703 A    
C51   H15   1.084354 S    
C32   C46   1.403804 A    
C27   C29   1.412843 A    
C28   C34   1.405161 A    
N1    O22   1.299306 A    
C43   H17   1.083775 S    
O12   V3    1.990466 S    
C7    C9    1.411926 A    
C37   C39   1.411854 A    
C38   C40   1.412021 A    
O16   C56   1.318137 A    
N2    O23   1.302413 A    
C40   C42   1.413260 A    
C31   C45   1.403649 A    
C25   C27   1.408665 A    
C53   O18   1.316085 A    
C49   C51   1.406590 A    
C42   C44   1.403367 A    
C17   C19   1.526122 S    
N2    O24   1.299301 A    
C29   C31   1.410949 A    
O1    C3    1.317560 A    
C30   C32   1.411144 A    
C15   C17   1.489653 S    
O17   V3    2.000289 S    
C18   C20   1.526130 S    
C27   C33   1.405025 A    
C41   C51   1.404835 A    
C28   C30   1.413034 A    
O6    V2    2.005439 S    
C17   F3    1.383213 S    
C11   C13   1.409280 A    
C21   C23   1.407837 A    
C33   H11   1.083450 S    
C22   C24   1.408018 A    
C37   C47   1.404996 A    
C14   C53   1.483072 S    
C13   C54   1.483053 S    
O19   V3    2.188024 S    
C24   C26   1.411543 A    
O13   V3    2.005415 S    
C33   C35   1.399039 A    
C48   H14   1.084163 S    
C34   C36   1.399049 A    
C3    C8    1.483893 S    
C22   H10   1.084739 S    
C39   C41   1.413091 A    
C20   H8    1.112582 S    
O4    C2    1.295381 A    
C46   H20   1.083926 S    
C17   H5    1.111718 S    
C47   C49   1.407843 A    
C44   C46   1.398745 A    
O4    V2    2.015190 S    
O5    C3    1.318673 A    
C35   C37   1.406087 A    
C19   N1    1.464512 S    
O18   V4    2.000192 S    
O6    C4    1.318642 A    
C41   C43   1.403211 A    
C42   C52   1.404852 A    
O1    V2    2.000026 S    
O2    V1    2.000124 S    
C23   C25   1.411376 A    
C44   H18   1.083906 S    
O14   V4    2.005246 S    
O12   C56   1.317692 A    
C34   H12   1.083576 S    
C38   C48   1.405025 A    
C1    C24   1.484902 S    
C8    C10   1.411909 A    
C12   C14   1.409311 A    
O20   V4    2.188197 S    
C2    C23   1.484935 S    
C9    H1    1.082204 S    
C5    C15   1.393220 A    
C10   H2    1.082208 S    
C6    C16   1.393219 A    
O19   V4    1.755711 S    
O3    V1    2.015203 S    
O16   V4    2.015125 S    
C54   O17   1.316126 A    
C9    C11   1.412096 A    
C18   H6    1.111720 S    
O14   C54   1.322151 A    
O3    C1    1.295352 A    
C25   F5    1.359994 S    
C11   H3    1.079880 S    
N1    O21   1.302415 A    
C35   F1    1.358186 S    
C12   H4    1.079886 S    
C29   C39   1.414352 A    
C30   C40   1.414362 A    
O13   C53   1.322183 A    
C50   C55   1.483107 S    
O7    V1    2.003785 S    
C36   F2    1.358278 S    
C1    O8    1.294693 A    
C52   H16   1.084513 S    
O11   V4    1.990455 S    
O8    V2    2.003771 S    
C14   C16   1.397949 A    
O11   C55   1.317683 A    
C4    C7    1.483879 S    
O5    V1    2.005609 S    
C5    C7    1.402882 A    
C36   C38   1.406226 A    
C6    C8    1.402909 A    
C18   F4    1.383209 S    
C45   H19   1.083782 S    
C21   H9    1.084560 S    
C26   C28   1.408684 A    
O15   C55   1.318125 A    
C13   C15   1.397967 A    
O20   V3    1.755589 S    
C10   C12   1.412108 A    
O9    V2    1.756655 S    
C22   C32   1.402605 A    
C48   C50   1.407999 A    
O10   V1    1.756533 S    
C50   C52   1.406757 A    
C5    C19   1.494728 S    
O15   V3    2.015139 S    
C6    C20   1.494732 S    
C21   C31   1.402585 A    
C16   C18   1.489639 S    
