data_mof_unit_24602.cif
_audit_creation_date              2012-12-10T18:06:40-0500
_audit_creation_method            fapswitch 2.2
_symmetry_space_group_name_H-M    P1
_symmetry_Int_Tables_number       1
_space_group_crystal_system       triclinic
_cell_length_a                    12.650177
_cell_length_b                    13.246812
_cell_length_c                    15.276358
_cell_angle_alpha                 84.961156
_cell_angle_beta                  99.83432
_cell_angle_gamma                 97.081566
_cell_volume                      2497.22743841

loop_
_atom_site_label
_atom_site_type_symbol
_atom_type_description
_atom_site_fract_x
_atom_site_fract_y
_atom_site_fract_z
_atom_type_partial_charge
C1    C     C_R   0.445599 0.308637 0.514060 0.854000
C2    C     C_R   0.473190 0.583972 0.099272 0.045104
C3    C     C_R   0.380475 0.632941 0.063462 0.121620
C4    C     C_R   0.553516 0.577527 0.046978 0.036690
C5    C     C_R   0.529442 0.599581 0.954350 0.030876
C6    C     C_R   0.443256 0.659031 0.920154 0.020577
C7    C     C_R   0.368556 0.675199 0.975112 0.038330
C8    C     C_R   0.656575 0.547980 0.083958 -0.207454
C9    C     C_R   0.726376 0.524477 0.029613 -0.242751
C10   C     C_R   0.691920 0.523101 0.938118 0.170054
C11   C     C_R   0.591872 0.558789 0.900119 0.115677
C12   C     C_R   0.436016 0.516174 0.335263 0.871492
C13   C     C_R   0.752956 0.481209 0.884812 -0.207491
C14   C     C_R   0.712207 0.468492 0.795289 -0.214229
C15   C     C_R   0.550457 0.540268 0.811684 -0.227501
C16   C     C_R   0.724835 0.948264 0.490916 -0.244072
C17   C     C_R   0.591019 0.800933 0.488335 -0.077789
C18   C     C_R   0.302112 0.165178 0.504994 -0.242479
C19   C     C_R   0.268600 0.066504 0.481445 -0.137684
C20   C     C_R   0.343817 0.000444 0.474378 0.116785
C21   C     C_R   0.456705 0.029518 0.505021 0.043853
C22   C     C_R   0.489554 0.129146 0.532321 0.011204
C23   C     C_R   0.556436 0.691499 0.490134 0.861071
C24   C     C_R   0.539245 0.966604 0.504739 0.050798
C25   C     C_R   0.648910 0.007764 0.511615 0.106703
C26   C     C_R   0.679525 0.104221 0.544748 0.068230
C27   C     C_R   0.600093 0.158722 0.563351 -0.177398
C28   C     C_R   0.516829 0.862307 0.506219 -0.303467
C29   C     C_R   0.694213 0.845717 0.473207 0.096023
C30   C     C_R   0.412324 0.199129 0.523015 -0.099463
C31   C     C_R   0.147753 0.683039 0.580596 0.003085
C32   C     C_R   0.754307 0.372733 0.400637 -0.009446
C33   C     C_R   0.844626 0.354223 0.366934 0.001616
C34   C     C_R   0.565484 0.488925 0.664419 0.852602
C35   C     C_R   0.943906 0.413187 0.392813 0.061790
C36   C     C_R   0.951446 0.486244 0.457372 -0.044965
C37   C     C_R   0.855134 0.507152 0.484654 0.153268
C38   C     C_R   0.050453 0.538848 0.497408 -0.006173
C39   C     C_R   0.050424 0.629290 0.541294 0.097022
C40   C     C_R   0.953744 0.657689 0.554316 -0.334834
C41   C     C_R   0.861313 0.589924 0.540015 0.152653
C42   C     C_R   0.149283 0.500336 0.503168 -0.023699
C43   C     C_R   0.242065 0.641345 0.581403 -0.003413
C44   C     C_R   0.405822 0.546790 0.240076 -0.067504
C45   C     C_R   0.609969 0.497094 0.758742 -0.074451
C46   C     C_R   0.301816 0.639191 0.117244 -0.230136
C47   C     C_R   0.314469 0.597816 0.205583 0.082257
C48   C     C_R   0.480485 0.536590 0.184971 -0.283087
H1    H     H_    0.544755 0.489972 0.209889 0.170388
N1    N     N_R   0.239390 0.551900 0.544730 -0.132955
N2    N     N_R   0.759950 0.448600 0.455730 -0.137843
O1    O     O_R   0.374950 0.371210 0.521360 -0.615777
O2    O     O_R   0.542050 0.338030 0.492790 -0.621559
O3    O     O_R   0.368720 0.526070 0.390200 -0.570009
O4    O     O_R   0.535820 0.492890 0.361630 -0.624799
O5    O     O_R   0.457950 0.661970 0.507210 -0.630428
O6    O     O_R   0.625050 0.628790 0.478640 -0.581919
O7    O     O_R   0.464180 0.507110 0.638370 -0.616640
O8    O     O_R   0.631280 0.473930 0.609800 -0.597323
Zn1   Zn    Zn3+2 0.388420 0.522150 0.519080 0.942330
Zn2   Zn    Zn3+2 0.611580 0.477850 0.480920 0.943899
N3    N     N_3   0.279221 0.732404 0.941039 -0.480549
H2    H     H_    0.308929 0.806021 0.919963 0.188955
H3    H     H_    0.232834 0.697002 0.886490 0.184560
H4    H     H_    0.830284 0.455190 0.913026 0.136571
N4    N     N_3   0.768019 0.787393 0.443390 -0.442339
H5    H     H_    0.735786 0.769556 0.378192 0.195036
H6    H     H_    0.842060 0.831264 0.440285 0.172954
N5    N     N_3   0.790143 0.146541 0.564416 -0.466169
H7    H     H_    0.822628 0.155880 0.505353 0.185291
H8    H     H_    0.832544 0.095344 0.608863 0.181981
H9    H     H_    0.807236 0.980594 0.488586 0.126685
H10   H     H_    0.442154 0.828558 0.526154 0.177066
H11   H     H_    0.241622 0.217507 0.500144 0.161266
N6    N     N_3   0.303111 0.914413 0.422647 -0.482694
H12   H     H_    0.357550 0.899895 0.382216 0.201108
H13   H     H_    0.281502 0.850915 0.464019 0.191582
H14   H     H_    0.183382 0.044448 0.459837 0.143045
H15   H     H_    0.626309 0.227326 0.598292 0.180257
H16   H     H_    0.318638 0.681108 0.609351 0.147017
H17   H     H_    0.468650 0.553841 0.784549 0.183248
H18   H     H_    0.951859 0.723084 0.591627 0.152158
N7    N     N_3   0.153162 0.777495 0.621286 -0.489350
H19   H     H_    0.113365 0.764907 0.676504 0.181437
H20   H     H_    0.114772 0.829711 0.575026 0.189563
H21   H     H_    0.157496 0.428865 0.477908 0.155105
H22   H     H_    0.677201 0.329713 0.379124 0.166263
N8    N     N_3   0.032505 0.406501 0.346917 -0.472560
H23   H     H_    0.051369 0.331266 0.354139 0.172073
H24   H     H_    0.009094 0.426408 0.279257 0.182486
N9    N     N_3   0.833070 0.277134 0.304763 -0.474299
H25   H     H_    0.853848 0.310799 0.244683 0.185581
H26   H     H_    0.886287 0.223333 0.330206 0.180411
N10   N     N_3   0.786691 0.596243 0.598184 -0.356470
H27   H     H_    0.824192 0.575563 0.662583 0.158196
H28   H     H_    0.771808 0.672056 0.599175 0.192250
H29   H     H_    0.759314 0.434100 0.755475 0.158820
H30   H     H_    0.803828 0.500053 0.059829 0.140869
H31   H     H_    0.230605 0.677102 0.091622 0.164515
N11   N     N_3   0.235119 0.609148 0.259591 -0.419773
H32   H     H_    0.160319 0.576374 0.228284 0.179473
H33   H     H_    0.230369 0.687048 0.262200 0.184742
N12   N     N_3   0.438317 0.711180 0.833251 -0.472417
H34   H     H_    0.447828 0.789738 0.840070 0.194720
H35   H     H_    0.362650 0.691197 0.795644 0.178985
H36   H     H_    0.685264 0.543762 0.154844 0.151089

loop_
_geom_bond_atom_site_label_1
_geom_bond_atom_site_label_2
_ccdc_geom_bond_type
N4    H6    S    
C46   H31   S    
C9    H30   S    
C17   C29   A    
C19   C20   A    
C16   H9    S    
C4    C8    A    
C23   O5    A    
C15   H17   S    
O3    Zn1   S    
C26   C27   A    
C17   C23   S    
C31   C43   A    
C36   C37   A    
C5    C11   A    
C3    C7    A    
C33   N9    S    
C38   C39   A    
C37   N2    A    
O7    Zn1   S    
C31   N7    S    
C18   C19   A    
N5    H8    S    
C1    O2    A    
N11   H32   S    
N3    H3    S    
O1    Zn1   S    
O2    Zn2   S    
C41   N10   S    
C8    C9    A    
N2    Zn2   S    
C7    N3    S    
C42   H21   S    
C9    C10   A    
C44   C47   A    
N4    H5    S    
C18   H11   S    
C21   C22   A    
N10   H27   S    
C11   C15   A    
C28   H10   S    
C14   C45   A    
O8    Zn2   S    
C40   H18   S    
C24   C25   A    
C39   C40   A    
C13   H4    S    
C2    C48   A    
C43   H16   S    
C32   H22   S    
C47   N11   S    
O5    Zn1   S    
C20   N6    S    
C35   C36   A    
C19   H14   S    
C2    C4    A    
N6    H12   S    
C32   N2    A    
N3    H2    S    
N9    H26   S    
C35   N8    S    
N7    H19   S    
N11   H33   S    
N12   H35   S    
C34   C45   S    
C6    N12   S    
C20   C21   A    
N10   H28   S    
N6    H13   S    
C42   N1    A    
C18   C30   A    
C40   C41   A    
N7    H20   S    
N8    H24   S    
C22   C27   A    
C34   O8    A    
C15   C45   A    
N9    H25   S    
C14   H29   S    
C16   C25   A    
C23   O6    A    
C46   C47   A    
C48   H1    S    
C22   C30   A    
C17   C28   A    
C24   C28   A    
C4    C5    A    
C10   C13   A    
C8    H36   S    
C43   N1    A    
O6    Zn2   S    
C6    C7    A    
C3    C46   A    
C27   H15   S    
N1    Zn1   S    
C32   C33   A    
C36   C38   A    
C2    C3    A    
C25   C26   A    
C12   C44   S    
C5    C6    A    
O4    Zn2   S    
C1    C30   S    
C33   C35   A    
C31   C39   A    
C37   C41   A    
N5    H7    S    
C1    O1    A    
C12   O4    A    
C10   C11   A    
C29   N4    S    
C38   C42   A    
N8    H23   S    
C16   C29   A    
C21   C24   A    
N12   H34   S    
C34   O7    A    
C26   N5    S    
C13   C14   A    
C12   O3    A    
C44   C48   A    
