data_mof_unit_7377.cif
_audit_creation_date              2012-12-10T18:44:21-0500
_audit_creation_method            fapswitch 2.2
_symmetry_space_group_name_H-M    P1
_symmetry_Int_Tables_number       1
_space_group_crystal_system       triclinic
_cell_length_a                    12.861161
_cell_length_b                    10.653097
_cell_length_c                    9.911692
_cell_angle_alpha                 91.274924
_cell_angle_beta                  97.891958
_cell_angle_gamma                 90.518473
_cell_volume                      1344.71722711

loop_
_atom_site_label
_atom_site_type_symbol
_atom_type_description
_atom_site_fract_x
_atom_site_fract_y
_atom_site_fract_z
_atom_type_partial_charge
C1    C     C_R   0.503349 0.260497 0.499283 0.932518
C2    C     C_R   0.496648 0.739503 0.500717 0.932601
C3    C     C_R   0.493236 0.872136 0.502814 -0.117897
C4    C     C_R   0.506754 0.127863 0.497186 -0.117933
C5    C     C_R   0.581600 0.551357 0.089030 -0.111608
C6    C     C_R   0.418399 0.448644 0.910970 -0.111595
C7    C     C_R   0.582055 0.552523 0.946157 0.038548
C8    C     C_R   0.417945 0.447478 0.053843 0.038547
C9    C     C_R   0.298129 0.498250 0.472627 0.938880
C10   C     C_R   0.701871 0.501747 0.527373 0.938833
C11   C     C_R   0.814420 0.501456 0.544100 -0.044145
C12   C     C_R   0.185580 0.498538 0.455899 -0.044141
C13   C     C_R   0.019876 0.547313 0.325443 -0.205388
C14   C     C_R   0.980123 0.452678 0.674556 -0.205367
C15   C     C_R   0.127727 0.536516 0.333967 -0.137741
C16   C     C_R   0.872273 0.463475 0.666031 -0.137720
C17   C     C_R   0.136155 0.467680 0.567848 -0.261909
C18   C     C_R   0.863844 0.532312 0.432151 -0.261907
C19   C     C_R   0.029240 0.479690 0.560990 0.178026
C20   C     C_R   0.970760 0.520301 0.439008 0.178031
C21   C     C_R   0.427915 0.065157 0.410072 -0.210670
C22   C     C_R   0.572069 0.934844 0.589933 -0.210703
C23   C     C_R   0.419135 0.936172 0.412314 -0.035487
C24   C     C_R   0.580843 0.063829 0.587695 -0.035395
H1    H     H_    0.818989 0.563573 0.338375 0.168996
H2    H     H_    0.181011 0.436421 0.661624 0.168992
H3    H     H_    0.834053 0.438626 0.752629 0.201872
H4    H     H_    0.165945 0.561365 0.247368 0.201890
H5    H     H_    0.975273 0.578103 0.231420 0.169635
H6    H     H_    0.024726 0.421887 0.768579 0.169634
H7    H     H_    0.370123 0.117800 0.345168 0.224251
H8    H     H_    0.629860 0.882207 0.654846 0.224191
H9    H     H_    0.645955 0.593838 0.157138 0.161091
H10   H     H_    0.354044 0.406163 0.842863 0.161083
N1    N     N_R   0.499970 0.499970 0.857200 -0.126429
N2    N     N_R   0.500030 0.500030 0.142800 -0.126431
O1    O     O_R   0.499990 0.316750 0.614620 -0.619433
O2    O     O_R   0.500010 0.683250 0.385380 -0.619401
O3    O     O_R   0.499990 0.316780 0.385290 -0.570365
O4    O     O_R   0.500010 0.683220 0.614710 -0.570370
O5    O     O_R   0.346360 0.499970 0.595710 -0.641198
O6    O     O_R   0.653640 0.500030 0.404290 -0.641195
O7    O     O_R   0.346360 0.499990 0.366380 -0.594600
O8    O     O_R   0.653640 0.500010 0.633620 -0.594629
Zn1   Zn    Zn3+2 0.500000 0.499980 0.653120 1.015782
Zn2   Zn    Zn3+2 0.500000 0.500020 0.346880 1.015793
C25   C     C_2   0.329949 0.873406 0.323932 0.919984
O9    O     O_2   0.292363 0.775267 0.358074 -0.655325
O10   O     O_R   0.286431 0.929299 0.203050 -0.781913
H11   H     H_    0.225658 0.878563 0.152321 0.349899
C26   C     C_2   0.669994 0.126603 0.676113 0.920087
O11   O     O_2   0.707670 0.224664 0.641934 -0.655339
O12   O     O_R   0.713354 0.070822 0.797088 -0.781930
H12   H     H_    0.774113 0.121557 0.847843 0.349896
C27   C     C_2   0.672793 0.614059 0.898649 0.925092
O13   O     O_2   0.659675 0.693862 0.811931 -0.606425
O14   O     O_R   0.774149 0.587353 0.960979 -0.847318
H13   H     H_    0.830146 0.637692 0.922613 0.343182
C28   C     C_2   0.327206 0.385945 0.101354 0.925101
O15   O     O_2   0.340323 0.306133 0.188064 -0.606408
O16   O     O_R   0.225850 0.412666 0.039037 -0.847309
H14   H     H_    0.169853 0.362330 0.077405 0.343188

loop_
_geom_bond_atom_site_label_1
_geom_bond_atom_site_label_2
_ccdc_geom_bond_type
C12   C17   A    
C27   O13   D    
C11   C18   A    
N2    Zn2   S    
C14   C16   A    
C7    C27   S    
C10   O6    A    
C11   C16   A    
C2    O2    A    
C9    O5    A    
C19   C20   A    
C12   C15   A    
C1    O1    A    
C1    C4    S    
C6    H10   S    
C16   H3    S    
C13   C15   A    
C2    C3    S    
O14   H13   S    
C28   O15   D    
C25   O10   S    
O12   H12   S    
C6    N1    A    
C4    C21   A    
C21   H7    S    
C15   H4    S    
O16   H14   S    
C18   H1    S    
C22   H8    S    
C24   C26   S    
O3    Zn2   S    
C17   H2    S    
C10   O8    A    
C13   H5    S    
C17   C19   A    
C14   H6    S    
C18   C20   A    
C27   O14   S    
C8    C28   S    
C8    N2    A    
O4    Zn1   S    
C4    C24   A    
O7    Zn2   S    
C22   C24   A    
O2    Zn2   S    
C9    O7    A    
C10   C11   S    
C1    O3    A    
O1    Zn1   S    
C26   O11   D    
N1    Zn1   S    
C5    N2    A    
C2    O4    A    
C23   C25   S    
O8    Zn1   S    
O10   H11   S    
O6    Zn2   S    
C28   O16   S    
C5    C7    A    
O5    Zn1   S    
C14   C19   A    
C3    C22   A    
C6    C8    A    
C13   C20   A    
C3    C23   A    
C9    C12   S    
C7    N1    A    
C21   C23   A    
C25   O9    D    
C26   O12   S    
C5    H9    S    
