data_mof_unit_19210.cif
_audit_creation_date              2013-03-05T15:53:03-0500
_audit_creation_method            fapswitch 2.2
_symmetry_space_group_name_H-M    P1
_symmetry_Int_Tables_number       1
_space_group_crystal_system       triclinic
_cell_length_a                    8.421258
_cell_length_b                    17.50282
_cell_length_c                    18.809935
_cell_angle_alpha                 99.57259
_cell_angle_beta                  91.498179
_cell_angle_gamma                 96.65488
_cell_volume                      2712.55807025

loop_
_atom_site_label
_atom_site_type_symbol
_atom_site_description
_atom_site_fract_x
_atom_site_fract_y
_atom_site_fract_z
_atom_type_partial_charge
P1    P     P_3+3 0.048060 0.426210 0.336320 0.483566
O1    O     O_2   0.878040 0.448040 0.325130 -0.363331
O2    O     O_3   0.126800 0.453980 0.414370 -0.401234
O3    O     O_3   0.651020 0.589120 0.368830 -0.395114
O4    O     O_2   0.754306 0.531515 0.244157 -0.415985
O5    O     O_3   0.025407 0.323657 0.321346 -0.563071
O6    O     O_3   0.683542 0.676594 0.255637 -0.531917
H1    H     H_    0.787631 0.720241 0.358049 0.126884
C1    C     C_3   0.728537 0.818387 0.308010 -0.648557
H2    H     H_    0.853971 0.843590 0.319227 0.217057
P2    P     P_3+3 0.655920 0.678120 0.556130 0.463458
P3    P     P_3+3 0.114412 0.731233 0.406310 0.492187
O7    O     O_2   0.830300 0.688050 0.534560 -0.372481
O8    O     O_3   0.068750 0.630380 0.404830 -0.350147
O9    O     O_2   0.004852 0.768021 0.463454 -0.429474
O10   O     O_3   0.667285 0.708701 0.649757 -0.567668
O11   O     O_3   0.041965 0.763453 0.327989 -0.614384
C2    C     C_3   0.106331 0.742877 0.258976 0.976996
C3    C     C_3   0.073894 0.805185 0.213274 -1.056747
H3    H     H_    0.949077 0.795873 0.191431 0.225297
H4    H     H_    0.097227 0.864657 0.246001 0.272842
C4    C     C_3   0.225757 0.705927 0.621727 0.346853
H5    H     H_    0.322810 0.674670 0.596675 0.092584
H6    H     H_    0.123955 0.700377 0.581774 0.121381
C5    C     C_3   0.290413 0.792152 0.644690 -0.680044
H7    H     H_    0.314087 0.819624 0.596536 0.158942
H8    H     H_    0.404383 0.797241 0.677224 0.227117
Ba1   Ba    Ba6+2 0.849550 0.533890 0.465080 1.567336
C6    C     C_3   0.982220 0.293491 0.383517 0.236194
H9    H     H_    0.852830 0.295415 0.390354 0.085902
H10   H     H_    0.049972 0.325778 0.432837 0.092034
C7    C     C_3   0.021017 0.209241 0.375028 0.084336
H11   H     H_    0.998543 0.186367 0.425606 0.062670
H12   H     H_    0.149841 0.207678 0.364397 0.111855
C8    C     C_3   0.719985 0.650939 0.684065 0.442499
H13   H     H_    0.840990 0.639913 0.666541 0.092391
H14   H     H_    0.634132 0.596714 0.672433 0.122379
C9    C     C_3   0.729395 0.680165 0.765101 -1.001399
H15   H     H_    0.816231 0.733875 0.778287 0.275153
H16   H     H_    0.768888 0.635350 0.794531 0.220516
H17   H     H_    0.609799 0.693569 0.783388 0.259705
P4    P     P_3+3 0.141640 0.573850 0.663690 0.459770
O12   O     O_2   0.311660 0.551990 0.674910 -0.361964
O13   O     O_3   0.062910 0.546080 0.585630 -0.405525
O14   O     O_3   0.538690 0.410940 0.631180 -0.375285
O15   O     O_3   0.175151 0.675744 0.682809 -0.573827
P5    P     P_3+3 0.084194 0.267796 0.594126 0.439171
O16   O     O_3   0.620260 0.406250 0.463620 -0.402339
O17   O     O_3   0.120960 0.369680 0.595180 -0.406560
O18   O     O_2   0.212583 0.229655 0.548022 -0.395463
O19   O     O_3   0.124701 0.249026 0.680973 -0.507575
Ba2   Ba    Ba6+2 0.340280 0.466170 0.534930 1.546714
P6    P     P_3+3 0.626418 0.582132 0.275722 0.481339
C10   C     C_3   0.695717 0.732498 0.320345 0.512679
H18   H     H_    0.587323 0.727961 0.351099 0.126085
H19   H     H_    0.665665 0.856248 0.348203 0.206272
O20   O     O_3   0.569440 0.593820 0.536390 -0.396848
C11   C     C_3   0.466893 0.340537 0.315275 0.440032
H20   H     H_    0.368883 0.367075 0.344867 0.089844
H21   H     H_    0.569997 0.386042 0.314333 0.101885
C12   C     C_3   0.404171 0.308356 0.238147 -0.991865
H22   H     H_    0.288059 0.271295 0.238601 0.275580
H23   H     H_    0.386600 0.356764 0.208650 0.200463
H24   H     H_    0.490090 0.272525 0.208972 0.284448
P7    P     P_3+3 0.535383 0.307706 0.440399 0.453829
O21   O     O_2   0.359400 0.311980 0.465480 -0.376308
O22   O     O_3   0.516528 0.279336 0.346571 -0.523587
H25   H     H_    0.148712 0.803125 0.165332 0.273186
C13   C     C_3   0.101908 0.315241 0.731494 0.472522
H26   H     H_    0.188918 0.365893 0.724682 0.150435
H27   H     H_    0.978544 0.330552 0.725939 0.033524
C14   C     C_3   0.128835 0.298546 0.807414 -0.808356
H28   H     H_    0.101118 0.348625 0.847662 0.210441
H29   H     H_    0.050990 0.245208 0.815057 0.307863
H30   H     H_    0.255150 0.289386 0.816680 0.253520
P8    P     P_3+3 0.563841 0.423513 0.725522 0.414846
C15   C     C_3   0.603275 0.277153 0.720234 0.997721
O23   O     O_2   0.435137 0.473392 0.757265 -0.406647
O24   O     O_3   0.507122 0.333186 0.751962 -0.597684
H31   H     H_    0.713752 0.302514 0.697458 -0.127172
H32   H     H_    0.575756 0.173888 0.637271 0.208125
C16   C     C_3   0.505796 0.221198 0.660083 -0.818643
H33   H     H_    0.475162 0.253507 0.616868 0.247545
H34   H     H_    0.394406 0.194373 0.680788 0.287414
C17   C     C_R   0.996389 0.465489 0.047594 0.006945
C18   C     C_R   0.897681 0.427832 0.093748 0.086805
C19   C     C_R   0.736025 0.401577 0.071275 -0.172738
C20   C     C_R   0.676087 0.409495 0.003659 -0.153066
C21   C     C_R   0.776034 0.442321 0.955808 0.145393
C22   C     C_R   0.936388 0.470913 0.977556 0.018379
C23   C     C_R   0.717774 0.445134 0.886097 -0.154828
C24   C     C_R   0.818967 0.472918 0.835378 -0.018533
C25   C     C_R   0.978884 0.505121 0.857534 -0.012061
C26   C     C_R   0.036483 0.504204 0.929099 -0.023414
C27   C     C_R   0.765114 0.469619 0.763102 0.177444
C28   C     C_R   0.867683 0.500353 0.715566 -0.535356
C29   C     C_R   0.024586 0.533166 0.735271 0.260652
C30   C     C_R   0.081031 0.538045 0.808389 -0.055231
C31   C     C_R   0.155485 0.495618 0.070389 -0.005238
C32   C     C_R   0.213578 0.493237 0.141816 -0.011897
C33   C     C_R   0.113070 0.456313 0.189744 -0.084703
C34   C     C_R   0.961457 0.415788 0.160705 -0.036254
H35   H     H_    0.653740 0.375372 0.106204 0.126722
H36   H     H_    0.551788 0.388339 0.988249 0.132207
H37   H     H_    0.819166 0.504055 0.663379 0.157852
H38   H     H_    0.593676 0.423530 0.871590 0.174488
C35   C     C_R   0.234376 0.574974 0.834577 -0.128356
C36   C     C_R   0.293632 0.571048 0.904440 0.117297
C37   C     C_R   0.194913 0.535064 0.951847 0.010808
C38   C     C_R   0.254277 0.531059 0.022417 0.017601
C39   C     C_R   0.451445 0.601934 0.927473 -0.176024
C40   C     C_R   0.510497 0.597499 0.996728 -0.176860
C41   C     C_R   0.412597 0.562740 0.044794 0.119341
C42   C     C_R   0.371681 0.528654 0.164990 -0.015447
C43   C     C_R   0.470295 0.560747 0.115092 -0.137987
C44   C     C_R   0.425111 0.533014 0.237876 0.296807
C45   C     C_R   0.320420 0.503495 0.286103 -0.450101
C46   C     C_R   0.167338 0.464811 0.264240 0.248702
H39   H     H_    0.310728 0.606054 0.800913 0.171776
H40   H     H_    0.529903 0.629114 0.891704 0.137497
H41   H     H_    0.632908 0.621766 0.012869 0.138668
H42   H     H_    0.592089 0.585962 0.130689 0.168990
H43   H     H_    0.360579 0.509795 0.342126 0.165666
H44   H     H_    0.484112 0.136625 0.444777 0.154132
H45   H     H_    0.296445 0.889251 0.436975 0.165549
C47   C     C_R   0.411876 0.718025 0.469859 -0.504739
C48   C     C_R   0.557239 0.745818 0.508343 0.237067
C49   C     C_R   0.614489 0.826337 0.517070 -0.164150
C50   C     C_R   0.522544 0.877943 0.488769 -0.023804
C51   C     C_R   0.371274 0.849495 0.455559 -0.194902
C52   C     C_R   0.317148 0.769491 0.444955 0.385250
C53   C     C_R   0.592741 0.160723 0.476745 -0.175442
C54   C     C_R   0.639826 0.241409 0.488092 0.229942
C55   C     C_R   0.881151 0.223570 0.555451 0.192690
C56   C     C_R   0.833131 0.142659 0.544402 -0.222178
C57   C     C_R   0.686396 0.111335 0.506767 0.059080
C58   C     C_1   0.629940 0.028963 0.499725 0.035451
C59   C     C_1   0.580539 0.960376 0.494584 0.021273
C60   C     C_R   0.778244 0.271831 0.531095 -0.409430
H46   H     H_    0.909486 0.104519 0.564521 0.165683
H47   H     H_    0.367133 0.656634 0.463253 0.179774
C61   C     C_1   0.176213 0.835063 0.688033 0.320076
N1    N     N_1   0.086659 0.868769 0.722563 -0.060748
S1    S     S_3+6 0.904192 0.145651 0.303572 0.007712
O25   O     O_2   0.731536 0.159280 0.307382 -0.234152
O26   O     O_2   0.917425 0.062355 0.310794 -0.290318
O27   O     O_3   0.971759 0.161859 0.223447 -0.475019
H48   H     H_    0.082025 0.147366 0.222986 0.344999
C62   C     C_1   0.682191 0.829941 0.235032 0.456380
N2    N     N_1   0.646984 0.839685 0.177604 -0.048482
S2    S     S_3+6 0.662957 0.223360 0.787177 -0.033915
O28   O     O_2   0.764404 0.162898 0.753902 -0.271815
O29   O     O_2   0.758670 0.277202 0.847720 -0.341369
O30   O     O_3   0.500395 0.178481 0.820013 -0.486093
H49   H     H_    0.466254 0.218151 0.858582 0.353614
C63   C     C_1   0.030786 0.668166 0.219377 0.128385
N3    N     N_1   0.974105 0.610717 0.184128 -0.043901
C64   C     C_1   0.877519 0.352517 0.190671 0.222112
N4    N     N_1   0.806093 0.301064 0.211877 0.018584
S3    S     S_3+6 0.312541 0.740154 0.262085 -0.105992
O31   O     O_2   0.343381 0.676098 0.302079 -0.389129
O32   O     O_2   0.374029 0.723496 0.187461 -0.336757
O33   O     O_3   0.392852 0.828056 0.305491 -0.604653
H50   H     H_    0.377475 0.864874 0.271971 0.354077
C65   C     C_1   0.763727 0.856881 0.556895 0.235033
N5    N     N_1   0.883074 0.881872 0.588633 -0.068127
C66   C     C_1   0.820115 0.353662 0.547105 0.210595
N6    N     N_1   0.855236 0.419992 0.558836 0.009523

loop_
_geom_bond_atom_site_label_1
_geom_bond_atom_site_label_2
_geom_bond_distance
_ccdc_geom_bond_type
C28   H37   1.068204 S    
C25   C26   1.422118 A    
P3    C52   1.843880 S    
O3    P6    1.740412 S    
C12   H24   1.108803 S    
Ba1   Ba2   4.645278 S    
C27   C28   1.388388 A    
P8    O24   1.753250 S    
C19   C20   1.390272 A    
C49   C50   1.413943 A    
C34   C64   1.445940 S    
C42   C43   1.412124 A    
Ba2   O21   2.820449 S    
C56   C57   1.413095 A    
P5    O17   1.770941 S    
C17   C18   1.407165 A    
C44   C45   1.399735 A    
P7    O21   1.573211 D    
C1    C62   1.469757 S    
C65   N5    1.156599 T    
O14   P8    1.755578 S    
C33   C46   1.440822 A    
P2    Ba1   3.409831 S    
O4    P6    1.541722 D    
C63   N3    1.152824 T    
C3    H4    1.110964 S    
P8    O23   1.540509 D    
C2    C3    1.539986 S    
C6    C7    1.530625 S    
S1    O27   1.680885 S    
O10   C8    1.393379 S    
C9    H15   1.110703 S    
O2    Ba2   2.820830 S    
O12   Ba2   2.837043 S    
C11   H21   1.110751 S    
C29   C30   1.429040 A    
C47   C52   1.398066 A    
C36   C37   1.409671 A    
H44   C53   1.083413 S    
C13   H27   1.109127 S    
P1    O1    1.542101 D    
P4    O15   1.747672 S    
S2    O30   1.681940 S    
C12   H23   1.108488 S    
C32   C33   1.433071 A    
O27   H48   0.990438 S    
O3    Ba1   2.793883 S    
H45   C51   1.083742 S    
Ba1   O16   2.774378 S    
C50   C59   1.453811 S    
C5    C61   1.469147 S    
C53   C54   1.400964 A    
P7    O22   1.749925 S    
C4    C5    1.530055 S    
P3    O11   1.780354 S    
P1    Ba1   3.411215 S    
S2    O28   1.502900 D    
O7    Ba1   2.820355 S    
O16   P7    1.767469 S    
C21   C23   1.398549 A    
C1    H2    1.097402 S    
C23   C24   1.404841 A    
P6    C44   1.874917 S    
C53   C57   1.408996 A    
O13   Ba2   2.958334 S    
C11   C12   1.523228 S    
C43   H42   1.081255 S    
C23   H38   1.081106 S    
C15   S2    1.787620 S    
C12   H22   1.110055 S    
P4    O13   1.571233 S    
C14   H30   1.107577 S    
C35   H39   1.079401 S    
C40   C41   1.404610 A    
C20   H36   1.084171 S    
C22   C26   1.408480 A    
P5    O18   1.546112 D    
C15   O24   1.410082 S    
C56   H46   1.083091 S    
P1    O5    1.757075 S    
C33   C34   1.434006 A    
C8    C9    1.521961 S    
C32   C42   1.426694 A    
C9    H17   1.110741 S    
C14   H29   1.108917 S    
P4    C29   1.875431 S    
H1    C10   1.099320 S    
C66   N6    1.147090 T    
C18   C19   1.415426 A    
C57   C58   1.447931 S    
P5    O19   1.751621 S    
O14   Ba2   2.793252 S    
C11   H20   1.110712 S    
Ba1   O20   2.955465 S    
C31   C38   1.413140 A    
Ba1   O13   2.820071 S    
C24   C27   1.411691 A    
H32   C16   1.106798 S    
C30   C35   1.412599 A    
C39   H40   1.082769 S    
P1    O2    1.571100 S    
C8    H13   1.107366 S    
C7    H12   1.110880 S    
C13   C14   1.520969 S    
P2    C48   1.856322 S    
S3    O33   1.674291 S    
C6    H9    1.104240 S    
C17   C31   1.409951 A    
P4    Ba2   3.411844 S    
P2    O10   1.750140 S    
C31   C32   1.426597 A    
P3    O9    1.542920 D    
C35   C36   1.408661 A    
O17   Ba2   2.751518 S    
C28   C29   1.393135 A    
O11   C2    1.426596 S    
C3    H25   1.111600 S    
C1    H19   1.107554 S    
C60   C66   1.414334 S    
C38   C41   1.408502 A    
O30   H49   0.990311 S    
C19   H35   1.082858 S    
S1    O26   1.503031 D    
C4    O15   1.398604 S    
P3    O8    1.757946 S    
C54   C60   1.400052 A    
C16   H34   1.108999 S    
P5    C55   1.868955 S    
C49   C65   1.445088 S    
C4    H6    1.109913 S    
P4    O12   1.542388 D    
O6    P6    1.772190 S    
C48   C49   1.416691 A    
C18   C34   1.413623 A    
C55   C60   1.397163 A    
C2    C63   1.458749 S    
C50   C51   1.403155 A    
C15   H31   1.111084 S    
C10   H18   1.095566 S    
O2    Ba1   2.957522 S    
C47   H47   1.082274 S    
C39   C40   1.399642 A    
C8    H14   1.111297 S    
C61   N1    1.157565 T    
C14   H28   1.109901 S    
C42   C44   1.418763 A    
C17   C22   1.420502 A    
C55   C56   1.406132 A    
C5    H8    1.111268 S    
C58   C59   1.211241 T    
C26   C37   1.407527 A    
C36   C39   1.404139 A    
S1    O25   1.502086 D    
C7    H11   1.104415 S    
C3    H3    1.102571 S    
C51   C52   1.401002 A    
C5    H7    1.106107 S    
C40   H41   1.083743 S    
P8    C27   1.858603 S    
P2    O20   1.549162 S    
C62   N2    1.157612 T    
S3    O31   1.492705 D    
C9    H16   1.107953 S    
P2    O7    1.531915 D    
C64   N4    1.156899 T    
C15   C16   1.519793 S    
C47   C48   1.399176 A    
C24   C25   1.421828 A    
P1    C46   1.876774 S    
S2    O29   1.501223 D    
C45   H43   1.082156 S    
C13   H26   1.109689 S    
C7    S1    1.786825 S    
O33   H50   0.989853 S    
C2    S3    1.742442 S    
Ba2   O20   2.773847 S    
C11   O22   1.403327 S    
O16   Ba2   2.954467 S    
O5    C6    1.400610 S    
C20   C21   1.395779 A    
C6    H10   1.108502 S    
C16   H33   1.105816 S    
C37   C38   1.421704 A    
C4    H5    1.107875 S    
O1    Ba1   2.836581 S    
C1    C10   1.553442 S    
O19   C13   1.406369 S    
O6    C10   1.422502 S    
O8    Ba1   2.750901 S    
C21   C22   1.409865 A    
C45   C46   1.402423 A    
C25   C30   1.424924 A    
P7    C54   1.861834 S    
S3    O32   1.503431 D    
C41   C43   1.404092 A    
