data_mof_unit_36408.cif
_audit_creation_date              2012-10-26T21:13:41-0400
_audit_creation_method            fapswitch 2.2
_symmetry_space_group_name_H-M    P1
_symmetry_Int_Tables_number       1
_space_group_crystal_system       triclinic
_cell_length_a                    9.080678
_cell_length_b                    10.826798
_cell_length_c                    9.553883
_cell_angle_alpha                 89.883004
_cell_angle_beta                  90.009899
_cell_angle_gamma                 90.103523
_cell_volume                      939.283315206

loop_
_atom_site_label
_atom_site_type_symbol
_atom_type_description
_atom_site_fract_x
_atom_site_fract_y
_atom_site_fract_z
_atom_type_partial_charge
C1    C     C_R   0.502226 0.262384 0.500111 0.546791
C2    C     C_R   0.622381 0.535740 0.926235 0.163701
C3    C     C_3   0.697814 0.657901 0.919347 -0.277295
C4    C     C_R   0.220693 0.499994 0.499974 0.554280
C5    C     C_3   0.696801 0.658734 0.078366 -0.279018
C6    C     C_R   0.501876 0.737702 0.499923 0.546689
C7    C     C_R   0.779304 0.500129 0.500031 0.553899
C8    C     C_1   0.065542 0.500092 0.499987 -0.067773
C9    C     C_1   0.934446 0.500147 0.500032 -0.066780
C10   C     C_R   0.507935 0.063496 0.625926 0.024670
C11   C     C_R   0.515542 0.129328 0.500429 0.008573
C12   C     C_R   0.541229 0.936149 0.375347 -0.161091
C13   C     C_R   0.541913 0.064855 0.375428 -0.161331
C14   C     C_R   0.514615 0.870964 0.500217 0.007466
C15   C     C_R   0.507452 0.936276 0.625890 0.015579
C16   C     C_3   0.395154 0.930021 0.740086 -0.267682
C17   C     C_3   0.396090 0.070197 0.740231 -0.268372
C18   C     C_R   0.622262 0.536027 0.073403 0.163873
C19   C     C_R   0.385391 0.451743 0.074436 -0.015776
C20   C     C_R   0.385395 0.451719 0.925704 -0.017480
Cu1   Cu    Cu3+1 0.499990 0.499980 0.640670 0.937426
Cu2   Cu    Cu3+1 0.500010 0.500020 0.359330 0.936728
H1    H     H_    0.627932 0.731039 0.872200 0.148491
H2    H     H_    0.288847 0.889638 0.704587 0.140528
H3    H     H_    0.290270 0.111470 0.704984 0.134750
H4    H     H_    0.442471 0.110283 0.837839 0.139324
H5    H     H_    0.808748 0.652909 0.124973 0.131512
H6    H     H_    0.625257 0.731849 0.122573 0.139643
H7    H     H_    0.554892 0.888547 0.276906 0.124518
H8    H     H_    0.440221 0.889617 0.838066 0.131633
H9    H     H_    0.291611 0.414148 0.129771 0.121508
H10   H     H_    0.291641 0.414074 0.870506 0.119153
H11   H     H_    0.810323 0.650606 0.874319 0.130617
H12   H     H_    0.556380 0.113213 0.277014 0.136717
N1    N     N_R   0.500920 0.500930 0.147930 -0.231826
N2    N     N_R   0.500930 0.500890 0.852020 -0.232116
O1    O     O_R   0.500000 0.319640 0.618810 -0.498134
O2    O     O_R   0.500020 0.319680 0.381230 -0.507554
O3    O     O_R   0.288380 0.499980 0.618770 -0.505396
O4    O     O_R   0.288400 0.500020 0.381190 -0.501652
O5    O     O_R   0.499980 0.680320 0.618770 -0.501013
O6    O     O_R   0.500000 0.680360 0.381190 -0.506768
O7    O     O_R   0.711600 0.499980 0.618810 -0.495407
O8    O     O_R   0.711620 0.500020 0.381230 -0.495610

loop_
_geom_bond_atom_site_label_1
_geom_bond_atom_site_label_2
_ccdc_geom_bond_type
C8    C9    T    
Cu2   O2    S    
C7    O7    A    
C12   H7    S    
C6    C14   S    
C5    H6    S    
C18   N1    A    
C3    H1    S    
C19   C20   A    
Cu1   O3    S    
C4    O3    A    
C1    O1    A    
C4    C8    S    
Cu2   O4    S    
C2    C3    S    
C19   H9    S    
C13   H12   S    
C16   H2    S    
Cu1   N2    S    
C19   N1    A    
C7    O8    A    
Cu2   N1    S    
C11   C13   A    
C5    H5    S    
Cu2   O6    S    
C1    O2    A    
Cu1   O5    S    
C17   H4    S    
Cu1   Cu2   S    
C12   C14   A    
C10   C15   A    
C6    O6    A    
C2    C18   A    
C10   C11   A    
C3    H11   S    
C10   C17   S    
C16   H8    S    
C15   C16   S    
C20   N2    A    
Cu1   O1    S    
C12   C13   A    
C20   H10   S    
C2    N2    A    
C7    C9    S    
C14   C15   A    
C16   C17   S    
C5    C18   S    
Cu1   O7    S    
Cu2   O8    S    
C4    O4    A    
C17   H3    S    
C3    C5    S    
C6    O5    A    
C1    C11   S    
