data_mof_unit_49802.cif
_audit_creation_date              2012-12-10T16:52:10-0500
_audit_creation_method            fapswitch 2.2
_symmetry_space_group_name_H-M    P1
_symmetry_Int_Tables_number       1
_space_group_crystal_system       triclinic
_cell_length_a                    7.7551
_cell_length_b                    8.633587
_cell_length_c                    14.949209
_cell_angle_alpha                 91.357268
_cell_angle_beta                  85.586165
_cell_angle_gamma                 93.514674
_cell_volume                      995.88780034

loop_
_atom_site_label
_atom_site_type_symbol
_atom_type_description
_atom_site_fract_x
_atom_site_fract_y
_atom_site_fract_z
_atom_type_partial_charge
C1    C     C_R   0.544991 0.794240 0.497403 0.912557
C2    C     C_R   0.654956 0.542026 0.809038 -0.257489
C3    C     C_R   0.496605 0.504950 0.231242 -0.063544
C4    C     C_R   0.503395 0.495052 0.768757 -0.063544
C5    C     C_R   0.648472 0.552594 0.180344 -0.253529
C6    C     C_R   0.351533 0.447400 0.819655 -0.253530
C7    C     C_R   0.650786 0.551690 0.087843 0.112079
C8    C     C_R   0.349214 0.448313 0.912156 0.112078
C9    C     C_R   0.499023 0.501733 0.046545 0.064653
C10   C     C_R   0.500974 0.498277 0.953454 0.064654
C11   C     C_R   0.345418 0.454957 0.098363 0.117098
C12   C     C_R   0.455009 0.205760 0.502597 0.912556
C13   C     C_R   0.654576 0.545057 0.901637 0.117098
C14   C     C_R   0.802257 0.598912 0.036178 -0.218309
C15   C     C_R   0.197741 0.401095 0.963822 -0.218306
C16   C     C_1   0.701596 0.004290 0.415735 0.229501
C17   C     C_1   0.298411 0.995712 0.584268 0.229498
C18   C     C_R   0.804223 0.595449 0.943159 -0.222145
C19   C     C_R   0.195770 0.404568 0.056841 -0.222148
C20   C     C_2   0.563249 0.954590 0.482428 -0.243459
C21   C     C_2   0.436752 0.045410 0.517572 -0.243453
C22   C     C_R   0.501448 0.498697 0.673177 0.890561
C23   C     C_R   0.498551 0.501303 0.326823 0.890562
C24   C     C_R   0.345037 0.457990 0.190962 -0.257486
H1    H     H_    0.228504 0.420613 0.231538 0.156920
H2    H     H_    0.985605 0.617170 0.567806 0.197458
H3    H     H_    0.771483 0.579411 0.768462 0.156920
H4    H     H_    0.764677 0.590511 0.212778 0.162528
H5    H     H_    0.235333 0.409473 0.787221 0.162529
H6    H     H_    0.918855 0.638080 0.067682 0.160808
H7    H     H_    0.081145 0.361925 0.932318 0.160809
H8    H     H_    0.922294 0.632013 0.903778 0.157748
H9    H     H_    0.077696 0.368010 0.096222 0.157745
H10   H     H_    0.014395 0.382830 0.432194 0.197459
N1    N     N_2   0.950330 0.457950 0.475660 -0.171379
N2    N     N_2   0.049670 0.542050 0.524340 -0.171378
N3    N     N_1   0.811430 0.043320 0.362749 -0.209630
N4    N     N_1   0.188583 0.956684 0.637256 -0.209632
O1    O     O_R   0.389250 0.738570 0.505970 -0.606351
O2    O     O_R   0.610750 0.261430 0.494030 -0.606352
O3    O     O_R   0.678390 0.711620 0.490370 -0.624638
O4    O     O_R   0.321610 0.288380 0.509630 -0.624637
O5    O     O_R   0.355420 0.513510 0.639950 -0.622083
O6    O     O_R   0.644580 0.486490 0.360050 -0.622084
O7    O     O_R   0.644560 0.486560 0.624350 -0.631894
O8    O     O_R   0.355440 0.513440 0.375650 -0.631895
Zn1   Zn    Zn3+2 0.306940 0.517990 0.510420 0.962538
Zn2   Zn    Zn3+2 0.693060 0.482010 0.489580 0.962537

loop_
_geom_bond_atom_site_label_1
_geom_bond_atom_site_label_2
_ccdc_geom_bond_type
C12   O2    A    
C1    O3    A    
C2    C4    A    
C15   H7    S    
C2    H3    S    
C22   O5    A    
C5    H4    S    
C4    C22   S    
C9    C10   A    
C14   C18   A    
C3    C23   S    
N1    N2    D    
C16   N3    T    
C16   C20   S    
C6    H5    S    
C23   O8    A    
C20   C21   D    
C15   C19   A    
C9    C11   A    
C11   C19   A    
C3    C24   A    
C13   C18   A    
C14   H6    S    
N1    Zn2   S    
H2    N2    S    
O3    Zn2   S    
C8    C15   A    
O4    Zn1   S    
C8    C10   A    
C4    C6    A    
C18   H8    S    
C1    O1    A    
C12   O4    A    
C7    C9    A    
C11   C24   A    
C22   O7    A    
C24   H1    S    
N2    Zn1   S    
O1    Zn1   S    
H10   N1    S    
C19   H9    S    
O7    Zn2   S    
C17   N4    T    
C5    C7    A    
C2    C13   A    
O2    Zn2   S    
O8    Zn1   S    
C1    C20   S    
C6    C8    A    
O5    Zn1   S    
C12   C21   S    
C7    C14   A    
C17   C21   S    
C23   O6    A    
O6    Zn2   S    
C3    C5    A    
C10   C13   A    
