data_mof_unit_48313.cif
_audit_creation_date              2013-03-05T15:46:13-0500
_audit_creation_method            fapswitch 2.2
_symmetry_space_group_name_H-M    P1
_symmetry_Int_Tables_number       1
_space_group_crystal_system       triclinic
_cell_length_a                    10.751678
_cell_length_b                    10.91883
_cell_length_c                    9.897994
_cell_angle_alpha                 109.761181
_cell_angle_beta                  98.395185
_cell_angle_gamma                 92.69167
_cell_volume                      1076.02990317

loop_
_atom_site_label
_atom_site_type_symbol
_atom_site_description
_atom_site_fract_x
_atom_site_fract_y
_atom_site_fract_z
_atom_type_partial_charge
O1    O     O_R   0.511820 0.332340 0.577400 -0.553323
O2    O     O_R   0.474400 0.295500 0.332650 -0.563704
C1    C     C_R   0.494198 0.254530 0.441339 0.872676
O3    O     O_R   0.336400 0.518400 0.622370 -0.527590
O4    O     O_R   0.298980 0.481560 0.377620 -0.563089
C2    C     C_R   0.259780 0.493826 0.499331 0.818156
Cu1   Cu    Cu3+1 0.522160 0.521810 0.644910 1.028154
Cu2   Cu    Cu3+1 0.477840 0.478190 0.355090 1.011451
O5    O     O_R   0.525600 0.704500 0.667350 -0.572952
O6    O     O_R   0.488180 0.667660 0.422600 -0.578256
O7    O     O_R   0.701020 0.518440 0.622380 -0.584808
O8    O     O_R   0.663600 0.481600 0.377630 -0.573110
C3    C     C_R   0.513731 0.745769 0.557898 0.868682
C4    C     C_R   0.739343 0.497632 0.498580 0.818370
C5    C     C_3   0.078106 0.422147 0.606264 0.430699
C6    C     C_3   0.932245 0.417489 0.593665 -0.485539
H1    H     H_    0.887141 0.314844 0.547038 0.182728
H2    H     H_    0.906090 0.456657 0.703910 0.228971
H3    H     H_    0.145426 0.695670 0.655504 0.217059
H4    H     H_    0.935357 0.679726 0.674585 0.167083
C7    C     C_3   0.087457 0.634748 0.549389 -0.464984
C8    C     C_3   0.044492 0.426083 0.338937 -0.005985
C9    C     C_3   0.121234 0.490786 0.499308 -0.123125
H5    H     H_    0.064151 0.491300 0.277260 0.198931
C10   C     C_3   0.876649 0.494464 0.496455 -0.086287
C11   C     C_3   0.944498 0.637138 0.557573 0.209708
C12   C     C_3   0.901891 0.419565 0.340468 -0.376655
H6    H     H_    0.861132 0.315798 0.304987 0.198271
H7    H     H_    0.854633 0.459600 0.259233 0.225887
H8    H     H_    0.112563 0.682288 0.472261 0.208728
H9    H     H_    0.512837 0.862426 0.363917 0.178298
H10   H     H_    0.606226 0.132285 0.607706 0.197009
C13   C     C_2   0.494554 0.114745 0.407291 -0.298191
C14   C     C_2   0.552625 0.067807 0.504234 -0.127291
H11   H     H_    0.554263 0.952659 0.699325 0.169238
C15   C     C_2   0.535473 0.885314 0.587161 -0.255974
C16   C     C_2   0.534766 0.928804 0.476501 -0.081525
H12   H     H_    0.444510 0.049227 0.301986 0.170973
H13   H     H_    0.586482 0.587508 0.157326 0.163815
N1    N     N_2   0.444530 0.445420 0.137360 -0.269357
C17   C     C_2   0.515659 0.510842 0.083685 -0.075724
H14   H     H_    0.586146 0.648378 0.932949 0.190943
N2    N     N_2   0.555520 0.554510 0.862630 -0.301370
C18   C     C_2   0.511616 0.474071 0.922683 0.304600
H15   H     H_    0.369103 0.381677 0.071063 0.267781
N3    N     N_R   0.136464 0.494702 0.760499 0.141110
O9    O     O_R   0.100107 0.606460 0.833565 -0.381426
O10   O     O_R   0.210879 0.439580 0.833049 -0.319323
N4    N     N_R   0.886166 0.721418 0.483155 0.125124
O11   O     O_R   0.833229 0.822008 0.556000 -0.356592
O12   O     O_R   0.891716 0.701170 0.346896 -0.362172
I1    I     I_    0.447885 0.270170 0.813714 -0.261451
I2    I     I_    0.125320 0.220313 0.549658 -0.192136
I3    I     I_    0.093617 0.243190 0.194463 -0.252507

loop_
_geom_bond_atom_site_label_1
_geom_bond_atom_site_label_2
_geom_bond_distance
_ccdc_geom_bond_type
O4    Cu2   1.968629 S    
N2    C18   1.320439 D    
Cu1   N2    2.035216 S    
C12   H7    1.111311 S    
C14   C16   1.446133 S    
C7    H8    1.113595 S    
H11   C15   1.087476 S    
Cu2   O8    1.974179 S    
C17   C18   1.499377 S    
C18   I1    2.146318 S    
C5    C9    1.595193 S    
C13   C14   1.326979 D    
Cu1   Cu2   2.708992 S    
C8    I3    2.168036 S    
C6    H2    1.112675 S    
O1    Cu1   1.939251 S    
Cu1   O7    1.968629 S    
N1    H15   1.027350 S    
H4    C11   1.113831 S    
O3    Cu1   1.974179 S    
C2    C9    1.488378 S    
C5    I2    2.186657 S    
O3    C2    1.303491 A    
N1    C17   1.304351 D    
H3    C7    1.109770 S    
C7    C11   1.551914 S    
O8    C4    1.298948 A    
O2    C1    1.292394 A    
N3    O10   1.299139 A    
C8    C12   1.534037 S    
C7    C9    1.558134 S    
C4    C10   1.481342 S    
O4    C2    1.300504 A    
O7    C4    1.300346 A    
C8    H5    1.114426 S    
C10   C12   1.554240 S    
H14   N2    1.030700 S    
C1    C13   1.447839 S    
C5    C6    1.551991 S    
H9    C16   1.088014 S    
C12   H6    1.112865 S    
H13   C17   1.085044 S    
C3    C15   1.452055 S    
Cu2   O6    1.939251 S    
N4    O11   1.301221 A    
C11   N4    1.469843 S    
C6    C10   1.554210 S    
Cu1   O5    1.928950 S    
O5    C3    1.299281 A    
N3    O9    1.302108 A    
C15   C16   1.332239 D    
Cu2   N1    2.035159 S    
C5    N3    1.485820 S    
N4    O12   1.301730 A    
C10   C11   1.565920 S    
C8    C9    1.582433 S    
O2    Cu2   1.928950 S    
C13   H12   1.087917 S    
C6    H1    1.112704 S    
O1    C1    1.306936 A    
O6    C3    1.301724 A    
H10   C14   1.085659 S    
