data_mof_unit_14356.cif
_audit_creation_date              2012-12-11T15:53:35-0500
_audit_creation_method            fapswitch 2.2
_symmetry_space_group_name_H-M    P1
_symmetry_Int_Tables_number       1
_space_group_crystal_system       triclinic
_cell_length_a                    6.987516
_cell_length_b                    14.607129
_cell_length_c                    15.996715
_cell_angle_alpha                 90.542088
_cell_angle_beta                  89.178263
_cell_angle_gamma                 89.297427
_cell_volume                      1632.37898076

loop_
_atom_site_label
_atom_site_type_symbol
_atom_type_description
_atom_site_fract_x
_atom_site_fract_y
_atom_site_fract_z
_atom_type_partial_charge
O1    O     O_R   0.361600 0.167310 0.164620 -0.513967
O2    O     O_R   0.638400 0.832690 0.835380 -0.515546
O3    O     O_R   0.691080 0.157570 0.338750 -0.515815
O4    O     O_R   0.308920 0.842430 0.661250 -0.515455
O5    O     O_R   0.861410 0.336420 0.339360 -0.520261
O6    O     O_R   0.138590 0.663580 0.660640 -0.524269
C1    C     C_R   0.522742 0.136381 0.368238 0.769766
C2    C     C_R   0.477258 0.863637 0.631776 0.771282
O7    O     O_R   0.691320 0.156280 0.165240 -0.553638
O8    O     O_R   0.308680 0.843720 0.834760 -0.543912
O9    O     O_R   0.861640 0.335130 0.164600 -0.549425
O10   O     O_R   0.138360 0.664870 0.835400 -0.547525
C3    C     C_R   0.523428 0.135202 0.135118 0.733736
C4    C     C_R   0.476665 0.864125 0.865365 0.737503
O11   O     O_R   0.361370 0.168600 0.339370 -0.538429
O12   O     O_R   0.638630 0.831400 0.660630 -0.537023
O13   O     O_3   0.527990 0.310540 0.251980 -0.365619
O14   O     O_3   0.472010 0.689460 0.748020 -0.374874
V1    V     V_3+5 0.802830 0.240980 0.251990 1.566502
V2    V     V_3+5 0.197170 0.759020 0.748010 1.568903
O15   O     O_R   0.191360 0.346160 0.165220 -0.546509
O16   O     O_R   0.808640 0.653840 0.834780 -0.545666
C5    C     C_R   0.022343 0.365200 0.134244 0.742554
C6    C     C_R   0.979658 0.629606 0.862095 0.733054
O17   O     O_R   0.191130 0.347440 0.338740 -0.512457
O18   O     O_R   0.808870 0.652560 0.661260 -0.515145
C7    C     C_R   0.020228 0.367419 0.368822 0.854294
C8    C     C_R   0.979710 0.632431 0.631219 0.839460
V3    V     V_3+5 0.302840 0.262750 0.251990 1.580754
V4    V     V_3+5 0.697160 0.737250 0.748010 1.561528
O19   O     O_3   0.027820 0.193180 0.251990 -0.367865
O20   O     O_3   0.972180 0.806820 0.748010 -0.361797
C9    C     C_3   0.897813 0.427307 0.525127 -0.063138
C10   C     C_3   0.101370 0.572602 0.474646 -0.066675
C11   C     C_3   0.074917 0.465553 0.569102 0.328095
C12   C     C_3   0.924313 0.534227 0.430603 0.327191
C13   C     C_3   0.995191 0.564054 0.560031 -0.312273
C14   C     C_3   0.004255 0.435789 0.439871 -0.318466
C15   C     C_3   0.818268 0.526433 0.515569 0.418032
C16   C     C_3   0.180979 0.473491 0.484219 0.423008
C17   C     C_R   0.846619 0.499340 0.944644 -0.208392
C18   C     C_R   0.172360 0.479458 0.039554 -0.179177
H1    H     H_    0.732423 0.499811 0.901668 0.131942
H2    H     H_    0.303455 0.469716 0.073859 0.125050
C19   C     C_R   0.848858 0.433816 0.008510 0.153604
C20   C     C_R   0.172811 0.537891 0.970087 0.151815
C21   C     C_R   0.010892 0.428251 0.061350 -0.050009
C22   C     C_R   0.998864 0.557365 0.928401 -0.063827
C23   C     C_R   0.667897 0.051017 0.491216 0.419220
C24   C     C_R   0.332066 0.949056 0.508840 0.419050
C25   C     C_R   0.652389 0.984733 0.553610 -0.172956
C26   C     C_R   0.347583 0.015330 0.446440 -0.171502
H3    H     H_    0.771029 0.974953 0.595585 0.204685
H4    H     H_    0.228930 0.025118 0.404474 0.205123
C27   C     C_R   0.486021 0.932767 0.563698 -0.206844
C28   C     C_R   0.513965 0.067280 0.436339 -0.205677
C29   C     C_R   0.646965 0.995040 0.058931 -0.208994
C30   C     C_R   0.354458 0.004041 0.941688 -0.200167
H5    H     H_    0.759286 0.989719 0.104699 0.181353
H6    H     H_    0.242799 0.009793 0.895645 0.179688
C31   C     C_R   0.635695 0.927802 0.995842 0.406848
C32   C     C_R   0.366762 0.071528 0.004363 0.395102
C33   C     C_R   0.488055 0.931761 0.935828 -0.179624
C34   C     C_R   0.512776 0.067127 0.064916 -0.190390
Cl1   Cl    Cl    0.178949 0.420233 0.661111 -0.683820
Cl2   Cl    Cl    0.820440 0.576767 0.337240 -0.634770
C35   C     C_3   0.800569 0.340472 0.556025 -0.228525
C36   C     C_3   0.688477 0.357029 0.637457 -0.566870
H7    H     H_    0.786039 0.375573 0.688849 0.228413
H8    H     H_    0.582223 0.413085 0.630152 0.301326
H9    H     H_    0.611845 0.293746 0.654985 0.229901
H10   H     H_    0.705094 0.313290 0.507307 0.237069
H11   H     H_    0.912806 0.287725 0.566943 0.235575
C37   C     C_3   0.197984 0.659768 0.444258 -0.243657
C38   C     C_3   0.310613 0.643875 0.362934 -0.539966
H12   H     H_    0.417479 0.588076 0.370195 0.300339
H13   H     H_    0.213389 0.625302 0.311432 0.233875
H14   H     H_    0.386561 0.707456 0.345738 0.228829
H15   H     H_    0.085297 0.712329 0.433450 0.235515
H16   H     H_    0.293014 0.686848 0.493200 0.238884
Cl3   Cl    Cl    0.593359 0.581100 0.536159 -0.602823
Cl4   Cl    Cl    0.406246 0.419169 0.463708 -0.597272
C39   C     C_3   0.683169 0.367347 0.012046 -0.393825
C40   C     C_3   0.744218 0.272022 0.981539 -0.618775
H17   H     H_    0.822436 0.276146 0.920749 0.247538
H18   H     H_    0.836514 0.238144 0.027855 0.256180
H19   H     H_    0.615718 0.229553 0.972365 0.220311
H20   H     H_    0.613674 0.365538 0.074600 0.199625
H21   H     H_    0.566971 0.389682 0.970828 0.181764
C41   C     C_3   0.364706 0.562152 0.932894 -0.366362
C42   C     C_3   0.394047 0.510003 0.848992 -0.604962
H22   H     H_    0.416258 0.435836 0.859365 0.211710
H23   H     H_    0.268826 0.515707 0.807968 0.255694
H24   H     H_    0.517355 0.536772 0.813171 0.217970
H25   H     H_    0.381093 0.637084 0.926295 0.205159
H26   H     H_    0.479432 0.543420 0.976561 0.161848
Cl5   Cl    Cl    0.881985 0.113311 0.487396 -0.678286
Cl6   Cl    Cl    0.117901 0.886827 0.512697 -0.676183
Cl7   Cl    Cl    0.805336 0.837470 0.997873 -0.647172
Cl8   Cl    Cl    0.203967 0.164138 0.999901 -0.710091

loop_
_geom_bond_atom_site_label_1
_geom_bond_atom_site_label_2
_ccdc_geom_bond_type
C30   C32   A    
V4    O20   S    
C10   C13   S    
O13   V3    S    
C40   H19   S    
O4    C2    A    
V1    O19   S    
C41   H25   S    
C31   Cl7   S    
O9    V1    S    
C9    C15   S    
C10   C16   S    
C11   C13   S    
C40   H18   S    
O3    C1    A    
C12   Cl2   S    
C29   H5    S    
C11   Cl1   S    
C7    C14   S    
O12   V4    S    
C35   H10   S    
C18   C20   A    
C31   C33   A    
O7    C3    A    
C32   C34   A    
C9    C11   S    
O5    C7    A    
O7    V1    S    
O6    C8    A    
O8    V2    S    
C36   H7    S    
C23   C25   A    
C20   C41   S    
C24   C26   A    
O3    V1    S    
C35   H11   S    
C25   C27   A    
C1    O11   A    
C39   H20   S    
C2    O12   A    
C37   H16   S    
C17   H1    S    
C19   C39   S    
C18   H2    S    
C1    C28   S    
C2    C27   S    
C26   H4    S    
O11   V3    S    
C19   C21   A    
O17   V3    S    
C39   H21   S    
C20   C22   A    
C24   Cl6   S    
C5    C21   S    
C37   C38   S    
C35   C36   S    
C6    C22   S    
C16   Cl4   S    
C40   H17   S    
C15   Cl3   S    
O8    C4    A    
C42   H22   S    
O15   V3    S    
C25   H3    S    
C38   H12   S    
C42   H23   S    
C39   C40   S    
O10   V2    S    
O1    V3    S    
C41   H26   S    
C38   H13   S    
C10   C37   S    
C32   Cl8   S    
O18   V4    S    
C37   H15   S    
O15   C5    A    
O14   V4    S    
O16   C6    A    
O1    C3    A    
C9    C35   S    
C29   C34   A    
V2    O20   S    
C30   C33   A    
O16   V4    S    
C12   C15   S    
C24   C27   A    
C29   C31   A    
O5    V1    S    
O17   C7    A    
C23   C28   A    
O6    V2    S    
O10   C6    A    
O18   C8    A    
C9    C14   S    
O2    V4    S    
C12   C14   S    
C11   C16   S    
V3    O19   S    
C42   H24   S    
C14   C16   S    
C41   C42   S    
C3    C34   S    
C8    C13   S    
C36   H9    S    
C4    C33   S    
O9    C5    A    
O13   V1    S    
C17   C22   A    
O14   V2    S    
C18   C21   A    
O2    C4    A    
C38   H14   S    
C23   Cl5   S    
O4    V2    S    
C13   C15   S    
C10   C12   S    
C36   H8    S    
C17   C19   A    
C30   H6    S    
C26   C28   A    
