data_mof_unit_50165.cif
_audit_creation_date              2012-12-11T18:13:36-0500
_audit_creation_method            fapswitch 2.2
_symmetry_space_group_name_H-M    P1
_symmetry_Int_Tables_number       1
_space_group_crystal_system       triclinic
_cell_length_a                    8.174524
_cell_length_b                    12.650514
_cell_length_c                    18.699546
_cell_angle_alpha                 99.425791
_cell_angle_beta                  91.114426
_cell_angle_gamma                 98.583298
_cell_volume                      1884.37134051

loop_
_atom_site_label
_atom_site_type_symbol
_atom_type_description
_atom_site_fract_x
_atom_site_fract_y
_atom_site_fract_z
_atom_type_partial_charge
Ba1   Ba    Ba6+2 0.852780 0.548340 0.465070 1.643712
Ba2   Ba    Ba6+2 0.337060 0.451750 0.534940 1.634479
C1    C     C_3   0.590060 0.902536 0.252931 -0.385823
C2    C     C_3   0.639765 0.822034 0.298194 0.338293
C3    C     C_3   0.459952 0.275564 0.313819 0.311768
C4    C     C_3   0.432907 0.238017 0.232388 -0.406108
C5    C     C_3   0.061448 0.238146 0.735368 0.374794
C6    C     C_3   0.080700 0.213894 0.811855 -0.369996
C7    C     C_3   0.558349 0.178005 0.702182 0.347394
C8    C     C_3   0.612941 0.100581 0.748777 -0.420161
C9    C     C_R   0.994070 0.446882 0.047788 0.008387
C10   C     C_R   0.892852 0.393339 0.095175 0.037257
C11   C     C_R   0.730132 0.345915 0.072061 -0.087032
C12   C     C_3   0.139880 0.765726 0.265148 0.686601
C13   C     C_R   0.668551 0.351041 0.002636 -0.090676
C14   C     C_R   0.769430 0.401992 0.954389 0.036360
C15   C     C_R   0.932874 0.450120 0.976814 0.005378
C16   C     C_R   0.709553 0.403960 0.883927 -0.109583
C17   C     C_R   0.811996 0.450616 0.833795 -0.043708
C18   C     C_R   0.975175 0.502024 0.856674 -0.004113
C19   C     C_R   0.034584 0.501716 0.928526 -0.008559
C20   C     C_R   0.757690 0.445375 0.760931 -0.006043
C21   C     C_R   0.866462 0.486717 0.711784 -0.298586
C22   C     C_R   0.023975 0.543554 0.733875 0.045405
C23   C     C_3   0.138268 0.797648 0.190026 0.327298
C24   C     C_R   0.079165 0.553337 0.807937 -0.044027
C25   C     C_R   0.156307 0.496428 0.071105 0.000864
C26   C     C_R   0.215534 0.496567 0.143081 -0.002122
C27   C     C_R   0.111214 0.445751 0.191934 -0.044601
C28   C     C_R   0.954000 0.389341 0.165288 -0.043997
C29   C     C_R   0.235758 0.610496 0.834760 -0.040922
C30   C     C_R   0.296965 0.606381 0.904842 0.035442
C31   C     C_R   0.196678 0.551413 0.951867 0.004142
C32   C     C_R   0.257877 0.548155 0.022849 0.011942
C33   C     C_R   0.458594 0.655523 0.928413 -0.089542
C34   C     C_3   0.235544 0.787582 0.619556 0.281728
C35   C     C_R   0.520071 0.650455 0.997825 -0.096183
C36   C     C_R   0.420486 0.597654 0.045603 0.031084
C37   C     C_R   0.378838 0.547884 0.165949 -0.046401
C38   C     C_R   0.480677 0.595458 0.115980 -0.114783
C39   C     C_R   0.433838 0.552112 0.238637 0.011021
C40   C     C_R   0.325857 0.509485 0.287618 -0.270776
C41   C     C_R   0.166814 0.455031 0.265907 0.043777
C42   C     C_R   0.765138 0.182537 0.528407 -0.276183
C43   C     C_R   0.428416 0.807127 0.469490 -0.288847
C44   C     C_R   0.402369 0.984309 0.444050 -0.111665
C45   C     C_3   0.251989 0.910278 0.635700 -0.352523
C46   C     C_R   0.337640 0.875769 0.440188 0.010053
C47   C     C_R   0.577901 0.848001 0.508862 0.064657
C48   C     C_R   0.642674 0.960169 0.516447 -0.059891
C49   C     C_R   0.554227 0.028294 0.482151 -0.064473
C50   C     C_R   0.617961 0.139384 0.488403 0.044386
C51   C     C_R   0.856785 0.116250 0.559329 -0.014474
C52   C     C_R   0.793637 0.006421 0.555845 -0.093077
C53   C     C_3   0.961426 0.211712 0.380599 0.276349
C54   C     C_3   0.954544 0.089611 0.364797 -0.343620
C55   C     C_3   0.729409 0.707611 0.682973 0.319319
C56   C     C_3   0.751976 0.746217 0.764497 -0.413783
H1    H     H_    0.732802 0.865100 0.341250 0.065921
H2    H     H_    0.341305 0.942196 0.682252 0.114289
H3    H     H_    0.297021 0.945503 0.588012 0.080852
H4    H     H_    0.129838 0.934654 0.649339 0.143058
H5    H     H_    0.838742 0.231232 0.395630 0.001564
H6    H     H_    0.052916 0.244531 0.426294 0.081739
H7    H     H_    0.866528 0.054693 0.318304 0.116570
H8    H     H_    0.912919 0.053557 0.412612 0.086401
H9    H     H_    0.079171 0.069536 0.351232 0.135893
H10   H     H_    0.846135 0.683342 0.662143 0.012515
H11   H     H_    0.628427 0.637145 0.672492 0.065776
H12   H     H_    0.536388 0.967271 0.287877 0.097296
H13   H     H_    0.859368 0.812397 0.776634 0.126585
H14   H     H_    0.774094 0.678664 0.792575 0.058960
H15   H     H_    0.638780 0.777003 0.785472 0.118276
H16   H     H_    0.528344 0.789100 0.325109 0.009570
H17   H     H_    0.496979 0.859974 0.209851 0.108734
H18   H     H_    0.343449 0.299545 0.335799 0.017482
H19   H     H_    0.560277 0.346570 0.323548 0.057638
H20   H     H_    0.327703 0.170190 0.221010 0.126372
H21   H     H_    0.404674 0.305755 0.205717 0.053275
H22   H     H_    0.546360 0.209927 0.209511 0.116871
H23   H     H_    0.699402 0.939513 0.226423 0.132955
H24   H     H_    0.202394 0.740572 0.153191 -0.028949
H25   H     H_    0.142183 0.315746 0.732012 0.093683
H26   H     H_    0.930582 0.247025 0.725238 -0.078918
H27   H     H_    0.212495 0.210411 0.825202 0.149560
H28   H     H_    0.038564 0.278346 0.851540 0.070945
H29   H     H_    0.005195 0.134839 0.816299 0.109836
H30   H     H_    0.668963 0.212926 0.675437 -0.052959
H31   H     H_    0.468410 0.131799 0.658858 0.078306
H32   H     H_    0.705373 0.145818 0.791384 0.113308
H33   H     H_    0.669401 0.036424 0.714588 0.096024
H34   H     H_    0.057851 0.686892 0.263438 0.059881
H35   H     H_    0.505262 0.062353 0.775695 0.129154
H36   H     H_    0.649695 0.305613 0.107946 0.059602
H37   H     H_    0.542186 0.314130 0.986423 0.069110
H38   H     H_    0.824715 0.478967 0.655653 0.070211
H39   H     H_    0.583324 0.366869 0.868573 0.106999
H40   H     H_    0.875132 0.344111 0.199056 0.095710
H41   H     H_    0.314115 0.656318 0.801130 0.095088
H42   H     H_    0.538152 0.697426 0.892996 0.061497
H43   H     H_    0.645067 0.689191 0.014482 0.071131
H44   H     H_    0.606711 0.632964 0.131339 0.128377
H45   H     H_    0.268284 0.755741 0.279298 -0.522303
H46   H     H_    0.368540 0.515583 0.343485 0.067094
H47   H     H_    0.329270 0.033467 0.418836 0.099353
H48   H     H_    0.865841 0.958775 0.582831 0.103948
H49   H     H_    0.813873 0.267681 0.531799 0.064165
H50   H     H_    0.377197 0.722303 0.465488 0.074115
H51   H     H_    0.207993 0.881335 0.194478 -0.009366
H52   H     H_    0.356689 0.764158 0.605107 0.006880
H53   H     H_    0.143937 0.757660 0.573447 0.074047
O1    O     O_2   0.873090 0.425890 0.325140 -0.467466
O2    O     O_3   0.689950 0.793092 0.650531 -0.643526
O3    O     O_3   0.084478 0.846835 0.315277 -0.613460
O4    O     O_2   0.316610 0.574140 0.674900 -0.468820
O5    O     O_3   0.067290 0.565720 0.585630 -0.496839
O6    O     O_3   0.530210 0.372990 0.631200 -0.465440
O7    O     O_3   0.185727 0.747067 0.682103 -0.640105
O8    O     O_3   0.611340 0.366290 0.463630 -0.477260
O9    O     O_3   0.108550 0.314140 0.595200 -0.484955
O10   O     O_2   0.197344 0.121260 0.552293 -0.482419
O11   O     O_3   0.107683 0.153009 0.685697 -0.597779
O12   O     O_3   0.122420 0.434370 0.414380 -0.495154
O13   O     O_3   0.578370 0.633800 0.536380 -0.488438
O14   O     O_2   0.341510 0.231850 0.465510 -0.467740
O15   O     O_3   0.503954 0.190109 0.345427 -0.650885
O16   O     O_2   0.416477 0.453059 0.756935 -0.496258
O17   O     O_3   0.480085 0.255373 0.746029 -0.596366
O18   O     O_3   0.659500 0.627100 0.368810 -0.481203
O19   O     O_2   0.775237 0.546242 0.243705 -0.488479
O20   O     O_3   0.004233 0.253033 0.317597 -0.641867
O21   O     O_3   0.711112 0.742838 0.252838 -0.552295
O22   O     O_2   0.848200 0.768190 0.534530 -0.473798
O23   O     O_3   0.081160 0.685950 0.404810 -0.478368
O24   O     O_2   0.999646 0.879343 0.449955 -0.493002
P1    P     P_3+3 0.041040 0.394770 0.336330 0.971490
P2    P     P_3+3 0.672880 0.754030 0.556100 0.969636
P3    P     P_3+3 0.126369 0.823898 0.403116 0.973712
P4    P     P_3+3 0.148670 0.605320 0.663680 0.970703
P5    P     P_3+3 0.066502 0.175005 0.597552 0.950869
P6    P     P_3+3 0.644141 0.614787 0.274888 0.975523
P7    P     P_3+3 0.522195 0.230247 0.439680 0.933802
P8    P     P_3+3 0.546629 0.384178 0.725003 0.951240
O25   O     O_3   0.972718 0.790921 0.164332 -0.616311
C57   C     C_3   0.965215 0.840347 0.101983 0.275070
H54   H     H_    0.045031 0.921046 0.108163 0.018025
H55   H     H_    0.835991 0.855281 0.094549 0.070430
C58   C     C_3   0.006369 0.766200 0.033944 -0.403816
H56   H     H_    0.939352 0.682843 0.032479 0.141026
H57   H     H_    0.968603 0.796934 0.984800 0.078086
H58   H     H_    0.141559 0.764257 0.033185 0.108706

loop_
_geom_bond_atom_site_label_1
_geom_bond_atom_site_label_2
_ccdc_geom_bond_type
O24   P3    D    
C5    H25   S    
C53   C54   S    
O22   P2    D    
C47   P2    S    
O12   P1    S    
C51   P5    S    
C39   C40   A    
C17   C18   A    
C58   H58   S    
C45   H4    S    
C57   H54   S    
C12   H45   S    
C5    C6    S    
C37   C39   A    
C51   C52   A    
C48   C52   A    
Ba2   P4    S    
O10   P5    D    
C26   C27   A    
C33   C35   A    
C58   H57   S    
C6    H27   S    
Ba1   O18   S    
C7    H30   S    
C13   H37   S    
C3    C4    S    
C56   H13   S    
C42   H49   S    
O18   P6    S    
C54   H7    S    
C44   H47   S    
C21   H38   S    
C34   C45   S    
Ba1   Ba2   S    
Ba1   O8    S    
O19   P6    D    
C45   H2    S    
Ba2   O5    S    
C42   C51   A    
C14   C15   A    
C53   H5    S    
C20   P8    S    
C1    H23   S    
C21   C22   A    
O9    P5    S    
C16   H39   S    
C29   H41   S    
Ba1   P1    S    
C1    H17   S    
C7    C8    S    
C2    H16   S    
C43   H50   S    
C23   H51   S    
O5    P4    S    
C42   C50   A    
C5    H26   S    
C24   C29   A    
C22   P4    S    
C36   C38   A    
C27   C41   A    
O1    P1    D    
Ba1   O22   S    
C4    H21   S    
C57   H55   S    
Ba2   O6    S    
C48   C49   A    
C25   C32   A    
C44   C46   A    
C7    O17   S    
C52   H48   S    
C49   C50   A    
C30   C33   A    
O13   P2    S    
C1    H12   S    
C58   H56   S    
C2    O21   S    
O20   P1    S    
C7    H31   S    
C37   C38   A    
Ba2   O9    S    
C16   C17   A    
C55   O2    S    
C26   C37   A    
Ba2   O12   S    
C38   H44   S    
C44   C49   A    
O15   P7    S    
C50   P7    S    
C1    C2    S    
C3    O15   S    
Ba1   O12   S    
C39   P6    S    
C35   C36   A    
Ba2   O4    S    
C4    H22   S    
C29   C30   A    
C9    C25   A    
O14   P7    D    
Ba2   O8    S    
C53   H6    S    
C17   C20   A    
C34   H53   S    
C31   C32   A    
O16   P8    D    
C10   C11   A    
C12   H34   S    
Ba1   O5    S    
O4    P4    D    
C8    H33   S    
C53   O20   S    
C11   C13   A    
C34   H52   S    
C23   H24   S    
O2    P2    S    
O6    P8    S    
C23   O25   S    
C40   C41   A    
C5    O11   S    
C3    H19   S    
O7    P4    S    
Ba1   O23   S    
C57   C58   S    
Ba1   P2    S    
C43   C46   A    
O21   P6    S    
C9    C15   A    
C10   C28   A    
C32   C36   A    
C22   C24   A    
O25   C57   S    
C40   H46   S    
C45   H3    S    
C9    C10   A    
Ba2   O13   S    
O23   P3    S    
C54   H9    S    
C28   H40   S    
C8    H35   S    
C46   P3    S    
C11   H36   S    
C6    H29   S    
C30   C31   A    
C3    H18   S    
Ba1   O13   S    
O11   P5    S    
Ba1   O1    S    
C12   O3    S    
C35   H43   S    
C56   H14   S    
C55   C56   S    
C18   C24   A    
C54   H8    S    
C33   H42   S    
C2    H1    S    
C43   C47   A    
C6    H28   S    
O3    P3    S    
C12   C23   S    
C41   P1    S    
O17   P8    S    
C15   C19   A    
C4    H20   S    
C27   C28   A    
Ba2   O14   S    
C19   C31   A    
C18   C19   A    
C8    H32   S    
C14   C16   A    
C47   C48   A    
C25   C26   A    
O8    P7    S    
C20   C21   A    
C34   O7    S    
C55   H10   S    
C55   H11   S    
C13   C14   A    
C56   H15   S    
