data_mof_unit_12021.cif
_audit_creation_date              2012-12-10T21:00:47-0500
_audit_creation_method            fapswitch 2.2
_symmetry_space_group_name_H-M    P1
_symmetry_Int_Tables_number       1
_space_group_crystal_system       triclinic
_cell_length_a                    18.073986
_cell_length_b                    18.149255
_cell_length_c                    18.33559
_cell_angle_alpha                 120.017003
_cell_angle_beta                  90.149596
_cell_angle_gamma                 119.74021
_cell_volume                      4262.98412708

loop_
_atom_site_label
_atom_site_type_symbol
_atom_type_description
_atom_site_fract_x
_atom_site_fract_y
_atom_site_fract_z
_atom_type_partial_charge
Br1   Br    Br    0.950426 0.082874 0.727269 -0.396766
Br2   Br    Br    0.049740 0.916921 0.272899 -0.396603
Br3   Br    Br    0.325040 0.993497 0.200267 -0.455906
Br4   Br    Br    0.674958 0.006520 0.799660 -0.456014
Br5   Br    Br    0.345756 0.918221 0.832835 -0.508875
Br6   Br    Br    0.654241 0.081777 0.167169 -0.508789
C1    C     C_R   0.111785 0.220099 0.609627 0.518138
C2    C     C_3   0.450344 0.897229 0.946870 0.029829
C3    C     C_3   0.446752 0.032109 0.031011 -0.108542
C4    C     C_3   0.553247 0.967889 0.968991 -0.108551
C5    C     C_3   0.434042 0.401228 0.468117 -0.085475
C6    C     C_3   0.565951 0.598801 0.531871 -0.085468
C7    C     C_3   0.536576 0.451033 0.499342 -0.107773
C8    C     C_3   0.463416 0.548997 0.500648 -0.107742
C9    C     C_3   0.550068 0.500591 0.448772 0.048516
C10   C     C_3   0.449926 0.499438 0.551219 0.048520
C11   C     C_3   0.448343 0.450788 0.416585 -0.119178
C12   C     C_R   0.888220 0.779902 0.390372 0.518202
C13   C     C_3   0.551651 0.549243 0.583404 -0.119245
C14   C     C_R   0.253563 0.184566 0.780518 -0.114624
C15   C     C_R   0.746587 0.815175 0.219228 -0.114448
C16   C     C_R   0.392863 0.781147 0.887962 0.539993
C17   C     C_R   0.607137 0.218853 0.112039 0.539995
C18   C     C_R   0.197458 0.131561 0.694734 -0.121053
C19   C     C_R   0.802636 0.868311 0.305077 -0.120913
C20   C     C_R   0.107995 0.101661 0.679601 0.035614
C21   C     C_R   0.892139 0.898344 0.320345 0.035637
C22   C     C_R   0.074062 0.125026 0.751693 0.237300
C23   C     C_3   0.978532 0.425528 0.413664 -0.128781
C24   C     C_R   0.926185 0.875024 0.248330 0.237288
C25   C     C_R   0.131982 0.180440 0.839466 0.049157
C26   C     C_R   0.868346 0.819564 0.160500 0.049114
C27   C     C_R   0.221319 0.209044 0.852207 -0.140649
C28   C     C_R   0.778942 0.790748 0.147617 -0.140505
C29   C     C_R   0.996144 0.943869 0.532968 -0.097157
C30   C     C_R   0.003874 0.056138 0.467026 -0.097184
C31   C     C_R   0.944017 0.892279 0.445400 0.037292
C32   C     C_R   0.055995 0.107724 0.554595 0.037280
C33   C     C_R   0.947699 0.948751 0.411769 -0.004013
C34   C     C_3   0.021467 0.574473 0.586339 -0.128787
C35   C     C_R   0.052335 0.051256 0.588219 -0.003958
C36   C     C_R   0.493020 0.367958 0.676961 0.027625
C37   C     C_R   0.507122 0.632173 0.323078 0.027605
C38   C     C_R   0.472993 0.390297 0.756237 -0.105987
C39   C     C_R   0.527099 0.609734 0.243768 -0.105929
C40   C     C_R   0.111718 0.501767 0.890549 0.512076
C41   C     C_R   0.888283 0.498236 0.109452 0.512100
C42   C     C_R   0.540680 0.475374 0.839773 0.044437
C43   C     C_R   0.459355 0.524687 0.160254 0.044406
C44   C     C_R   0.628662 0.539068 0.843232 -0.088142
C45   C     C_3   0.437261 0.966531 0.931819 0.162921
C46   C     C_R   0.371359 0.461128 0.156857 -0.088151
C47   C     C_R   0.648860 0.517397 0.764527 -0.134467
C48   C     C_R   0.351209 0.482901 0.235596 -0.134421
C49   C     C_R   0.581761 0.431685 0.681789 -0.072229
C50   C     C_R   0.418371 0.568578 0.318311 -0.072232
C51   C     C_R   0.573284 0.495890 0.981949 -0.148404
C52   C     C_R   0.426706 0.504088 0.018039 -0.148339
C53   C     C_R   0.551720 0.502026 0.056968 0.032557
C54   C     C_R   0.448273 0.497957 0.943021 0.032587
C55   C     C_R   0.478692 0.507343 0.076612 -0.027834
C56   C     C_3   0.562738 0.033467 0.068183 0.162933
C57   C     C_R   0.521305 0.492649 0.923385 -0.027804
C58   C     C_R   0.226231 0.871321 0.093406 0.180998
C59   C     C_R   0.773751 0.128679 0.906538 0.180886
C60   C     C_R   0.179883 0.776338 0.083270 -0.054521
C61   C     C_R   0.820117 0.223672 0.916693 -0.054553
C62   C     C_R   0.104587 0.687401 0.006933 -0.001470
C63   C     C_R   0.895398 0.312598 0.993045 -0.001225
C64   C     C_R   0.392554 0.499346 0.607827 0.509693
C65   C     C_R   0.607445 0.500666 0.392171 0.509721
C66   C     C_R   0.075042 0.694781 0.941507 -0.002472
C67   C     C_3   0.540218 0.038312 0.954017 -0.117755
C68   C     C_R   0.924912 0.305202 0.058473 -0.001896
C69   C     C_R   0.122412 0.789721 0.950614 0.034672
C70   C     C_R   0.877516 0.210256 0.049353 0.034386
C71   C     C_R   0.198279 0.877732 0.026852 -0.080838
C72   C     C_R   0.801671 0.122252 0.973096 -0.081305
C73   C     C_R   0.995746 0.584972 0.052725 -0.125021
C74   C     C_R   0.004250 0.415036 0.947270 -0.124668
C75   C     C_R   0.944665 0.496776 0.052927 0.015046
C76   C     C_R   0.055336 0.503233 0.947072 0.015034
C77   C     C_R   0.948925 0.410443 0.999468 -0.037186
C78   C     C_3   0.459782 0.961686 0.045984 -0.117739
C79   C     C_R   0.051075 0.589565 0.000528 -0.037195
C80   C     C_R   0.393606 0.498942 0.887754 0.500625
C81   C     C_R   0.606393 0.501049 0.112237 0.500626
C82   C     C_R   0.108919 0.500165 0.607927 0.563755
C83   C     C_R   0.891081 0.499834 0.392073 0.563767
C84   C     C_3   0.076135 0.518957 0.479400 -0.148400
C85   C     C_3   0.923863 0.481045 0.520602 -0.148401
C86   C     C_3   0.045252 0.592215 0.513371 0.007661
C87   C     C_3   0.954747 0.407786 0.486632 0.007655
C88   C     C_3   0.949066 0.500020 0.448620 0.053788
C89   C     C_3   0.549655 0.102769 0.053132 0.029831
C90   C     C_3   0.050933 0.499981 0.551382 0.053794
C91   C     C_2   0.099065 0.697390 0.530572 0.248259
C92   C     C_2   0.900933 0.302612 0.469432 0.248279
C93   C     C_2   0.104386 0.211772 0.920333 0.256212
C94   C     C_2   0.896065 0.788329 0.079704 0.256035
C95   C     C_2   0.421009 0.276622 0.590147 0.226216
C96   C     C_2   0.579190 0.723496 0.409863 0.226216
C97   C     C_2   0.092482 0.798855 0.882297 0.253772
C98   C     C_2   0.907395 0.201110 0.117687 0.253619
H1    H     H_    0.266884 0.251404 0.918364 0.103179
H2    H     H_    0.400619 0.585393 0.378250 0.145881
H3    H     H_    0.405311 0.339718 0.753002 0.077034
H4    H     H_    0.594791 0.660222 0.246961 0.077006
H5    H     H_    0.681791 0.604777 0.906915 0.098561
H6    H     H_    0.318181 0.395453 0.093196 0.098729
H7    H     H_    0.139363 0.535087 0.463441 0.134674
H8    H     H_    0.860636 0.464914 0.536561 0.134687
H9    H     H_    0.716997 0.566317 0.767682 0.134232
H10   H     H_    0.283061 0.434095 0.232489 0.134270
H11   H     H_    0.628919 0.489695 0.967419 0.130541
H12   H     H_    0.733427 0.748332 0.081420 0.103068
H13   H     H_    0.371076 0.510293 0.032572 0.130710
H14   H     H_    0.234591 0.951769 0.035490 0.124405
H15   H     H_    0.765342 0.048208 0.964443 0.124415
H16   H     H_    0.201284 0.772178 0.135542 0.152664
H17   H     H_    0.798740 0.227850 0.864424 0.152589
H18   H     H_    0.015229 0.626584 0.883913 0.163386
H19   H     H_    0.984713 0.373394 0.116079 0.163534
H20   H     H_    0.993392 0.651726 0.094315 0.193786
H21   H     H_    0.006596 0.348278 0.905670 0.194610
H22   H     H_    0.959651 0.363758 0.342538 0.192155
H23   H     H_    0.322700 0.207703 0.791750 0.131834
H24   H     H_    0.040347 0.636241 0.657466 0.192092
H25   H     H_    0.572766 0.071369 0.916892 0.174248
H26   H     H_    0.427234 0.928623 0.083105 0.174247
H27   H     H_    0.403285 0.059172 0.056434 0.163902
H28   H     H_    0.596709 0.940819 0.943565 0.163875
H29   H     H_    0.567655 0.410319 0.495763 0.148513
H30   H     H_    0.432342 0.589713 0.504223 0.148421
H31   H     H_    0.378812 0.320287 0.442945 0.184656
H32   H     H_    0.621182 0.679739 0.557040 0.184752
H33   H     H_    0.406917 0.410530 0.347288 0.144595
H34   H     H_    0.677406 0.791897 0.207884 0.131760
H35   H     H_    0.593080 0.589509 0.652702 0.144579
H36   H     H_    0.166478 0.755925 0.579629 0.136206
H37   H     H_    0.833521 0.244077 0.420374 0.136225
H38   H     H_    0.151482 0.250050 0.984398 0.085690
H39   H     H_    0.848439 0.748342 0.015329 0.085416
H40   H     H_    0.352146 0.231054 0.587881 0.102090
H41   H     H_    0.648033 0.769071 0.412085 0.102089
H42   H     H_    0.131853 0.871829 0.888927 0.130563
H43   H     H_    0.867991 0.128139 0.111055 0.130661
H44   H     H_    0.224021 0.114733 0.639951 0.119842
H45   H     H_    0.775987 0.885092 0.359799 0.119717
H46   H     H_    0.994300 0.900522 0.558349 0.170145
H47   H     H_    0.005726 0.099487 0.441644 0.170154
H48   H     H_    0.599548 0.414955 0.621875 0.145833
O1    O     O_3   0.251620 0.500000 0.748430 -0.459270
O2    O     O_R   0.570330 0.268390 0.136490 -0.533474
O3    O     O_R   0.134680 0.268390 0.572240 -0.531976
O4    O     O_R   0.865320 0.731610 0.427760 -0.531943
O5    O     O_R   0.306670 0.731630 0.863510 -0.518489
O6    O     O_R   0.693330 0.268370 0.136490 -0.518487
O7    O     O_R   0.135450 0.439270 0.865360 -0.534078
O8    O     O_R   0.864550 0.560730 0.134640 -0.534470
O9    O     O_R   0.429670 0.560710 0.692610 -0.536057
O10   O     O_R   0.570330 0.439290 0.307390 -0.536049
O11   O     O_R   0.308540 0.439240 0.865360 -0.555866
O12   O     O_3   0.748380 0.500000 0.251570 -0.459195
O13   O     O_R   0.691460 0.560760 0.134640 -0.556037
O14   O     O_R   0.133580 0.439310 0.571150 -0.506824
O15   O     O_R   0.866420 0.560690 0.428850 -0.506829
O16   O     O_R   0.430770 0.560690 0.864590 -0.534061
O17   O     O_R   0.569230 0.439310 0.135410 -0.534047
O18   O     O_R   0.133580 0.560760 0.692610 -0.530229
O19   O     O_R   0.866420 0.439240 0.307390 -0.530202
O20   O     O_2   0.067995 0.717877 0.490014 -0.483245
O21   O     O_2   0.932004 0.282125 0.509991 -0.483256
O22   O     O_2   0.030573 0.197024 0.917927 -0.457897
O23   O     O_R   0.134680 0.560740 0.864590 -0.546040
O24   O     O_2   0.970661 0.805297 0.082548 -0.457136
O25   O     O_2   0.437587 0.250591 0.520291 -0.485603
O26   O     O_2   0.562684 0.749516 0.479757 -0.485656
O27   O     O_2   0.023347 0.725530 0.818235 -0.521995
O28   O     O_2   0.976518 0.274428 0.181762 -0.521926
O29   O     O_R   0.865320 0.439260 0.135410 -0.546025
O30   O     O_R   0.306670 0.439270 0.571150 -0.545335
O31   O     O_R   0.693330 0.560730 0.428850 -0.545332
O32   O     O_R   0.135450 0.268370 0.694460 -0.528304
O33   O     O_R   0.864550 0.731630 0.305540 -0.528407
O34   O     O_R   0.429670 0.731610 0.863510 -0.533477
Zn1   Zn    Zn3+2 0.207400 0.586780 0.791530 0.979810
Zn2   Zn    Zn3+2 0.792600 0.413220 0.208470 0.979852
Zn3   Zn    Zn3+2 0.208510 0.413230 0.792630 0.954062
Zn4   Zn    Zn3+2 0.791490 0.586770 0.207370 0.953550
Zn5   Zn    Zn3+2 0.383150 0.586740 0.791530 0.955152
Zn6   Zn    Zn3+2 0.616850 0.413260 0.208470 0.955163
Zn7   Zn    Zn3+2 0.207400 0.413250 0.618010 0.983645
Zn8   Zn    Zn3+2 0.792600 0.586750 0.381990 0.983681

loop_
_geom_bond_atom_site_label_1
_geom_bond_atom_site_label_2
_ccdc_geom_bond_type
C70   C98   S    
C60   C62   A    
C82   C90   S    
C65   O10   A    
C58   C71   A    
O7    Zn3   S    
C93   H38   S    
C3    C45   S    
O14   Zn7   S    
O9    Zn5   S    
O10   Zn6   S    
C49   H48   S    
C51   H11   S    
O1    Zn3   S    
Br3   C58   S    
C41   C75   S    
C15   C19   A    
O16   Zn5   S    
C68   C70   A    
O19   Zn2   S    
C54   C57   A    
O3    Zn7   S    
C84   H7    S    
C29   C31   A    
C12   C31   S    
C70   C72   A    
C66   C69   A    
C96   H41   S    
Br4   C59   S    
C95   H40   S    
O12   Zn8   S    
C51   C53   A    
C74   H21   S    
C52   C54   A    
C34   H24   S    
C17   O6    A    
O34   Zn5   S    
O31   Zn8   S    
C19   H45   S    
C78   H26   S    
C83   C88   S    
C83   O15   A    
C56   C78   S    
C47   H9    S    
C40   C76   S    
C64   O30   A    
C14   C18   A    
C21   C33   S    
C59   C61   A    
O18   Zn1   S    
C94   O24   D    
Br1   C22   S    
C2    C16   S    
C64   O9    A    
C25   C27   A    
C29   H46   S    
C25   C93   S    
C3    C89   S    
C91   H36   S    
C91   O20   D    
C39   H4    S    
C41   O29   A    
C23   C87   S    
C52   C55   A    
C47   C49   A    
C68   H19   S    
C60   H16   S    
C56   C89   S    
C21   C24   A    
C69   C97   S    
C62   C79   S    
C98   H43   S    
C4    C56   S    
C36   C38   A    
C15   H34   S    
C34   C90   S    
C74   C77   A    
O12   Zn4   S    
C61   H17   S    
C23   C84   S    
C75   C77   A    
O29   Zn2   S    
C46   C48   A    
C86   C91   S    
C51   C57   A    
C48   C50   A    
C41   O8    A    
C3    H27   S    
C67   H25   S    
C53   C55   A    
C44   C47   A    
C82   O18   A    
C7    C13   S    
C45   C67   S    
O33   Zn4   S    
C80   O16   A    
C83   O19   A    
C32   C35   A    
C74   C76   A    
C71   H14   S    
C18   H44   S    
C73   C75   A    
C92   O21   D    
C54   C80   S    
C42   C57   S    
C15   C28   A    
O1    Zn1   S    
C30   C33   A    
C52   H13   S    
C26   C94   S    
C61   C63   A    
C58   C60   A    
C85   H8    S    
C16   O34   A    
O4    Zn8   S    
C63   C77   S    
C5    H31   S    
C36   C49   A    
C85   C87   S    
C37   C39   A    
C5    C10   S    
C84   C86   S    
C6    C9    S    
C39   C43   A    
C62   C66   A    
C43   C46   A    
C86   C88   S    
O13   Zn4   S    
C10   C64   S    
C63   C68   A    
O11   Zn3   S    
O30   Zn7   S    
C34   C86   S    
C84   C90   S    
C69   C71   A    
C2    C45   S    
C50   H2    S    
C14   H23   S    
C14   C27   A    
C1    O32   A    
C13   H35   S    
C6    C8    S    
C87   C90   S    
C82   O14   A    
C7    C9    S    
C92   H37   S    
C96   O26   D    
O15   Zn8   S    
C8    C10   S    
C17   O2    A    
C81   O17   A    
C67   C89   S    
C36   C95   S    
C73   C79   A    
C12   O4    A    
O1    Zn5   S    
C38   H3    S    
C9    C11   S    
O2    Zn6   S    
C5    C11   S    
C59   C72   A    
C66   H18   S    
C2    C78   S    
C7    H29   S    
C22   C25   A    
O5    Zn1   S    
C18   C20   A    
O12   Zn2   S    
C94   H39   S    
O6    Zn2   S    
C30   H47   S    
C98   O28   D    
C16   O5    A    
C19   C21   A    
C76   C79   A    
C9    C65   S    
C73   H20   S    
C12   O33   A    
C20   C22   A    
C27   H1    S    
Br2   C24   S    
Br6   C56   S    
C30   C32   A    
C72   H15   S    
C37   C96   S    
O8    Zn4   S    
C31   C33   A    
O12   Zn6   S    
C85   C88   S    
C24   C26   A    
C8    H30   S    
C5    C7    S    
C43   C55   S    
C23   C88   S    
C93   O22   D    
C10   C13   S    
C40   O7    A    
C48   H10   S    
C6    C13   S    
C42   C44   A    
C4    C67   S    
C1    C32   S    
C17   C89   S    
C97   O27   D    
C44   H5    S    
C34   C85   S    
C29   C35   A    
C4    H28   S    
O1    Zn7   S    
C95   O25   D    
C81   O13   A    
C3    C78   S    
O23   Zn1   S    
C37   C50   A    
C1    O3    A    
C20   C35   S    
C2    C4    S    
C6    H32   S    
C53   C81   S    
C40   O23   A    
Br5   C45   S    
C11   H33   S    
C80   O11   A    
C46   H6    S    
O17   Zn6   S    
C23   H22   S    
C28   H12   S    
C87   C92   S    
O32   Zn3   S    
C38   C42   A    
C97   H42   S    
C26   C28   A    
C65   O31   A    
C8    C11   S    
