data_mof_unit_60471.cif
_audit_creation_date              2012-12-10T18:13:15-0500
_audit_creation_method            fapswitch 2.2
_symmetry_space_group_name_H-M    P1
_symmetry_Int_Tables_number       1
_space_group_crystal_system       triclinic
_cell_length_a                    36.265096
_cell_length_b                    29.17192
_cell_length_c                    21.55004
_cell_angle_alpha                 89.834768
_cell_angle_beta                  126.451892
_cell_angle_gamma                 90.07069
_cell_volume                      18337.8475184

loop_
_atom_site_label
_atom_site_type_symbol
_atom_type_description
_atom_site_fract_x
_atom_site_fract_y
_atom_site_fract_z
_atom_type_partial_charge
C1    C     C_R   0.913241 0.000012 0.913243 0.907713
C2    C     C_1   0.229469 0.999963 0.229477 0.002235
C3    C     C_3   0.491185 0.449118 0.279287 0.426927
C4    C     C_1   0.862568 0.000033 0.862573 -0.235585
C5    C     C_1   0.137432 0.999965 0.137427 -0.235605
C6    C     C_1   0.362567 0.500035 0.862593 -0.234452
C7    C     C_1   0.637431 0.499968 0.137378 -0.236354
C8    C     C_3   0.955376 0.879651 0.672353 -0.822043
C9    C     C_3   0.935561 0.885274 0.246695 -0.789863
C10   C     C_3   0.045377 0.879709 0.329235 -0.821755
C11   C     C_3   0.065159 0.885780 0.754986 -0.789771
C12   C     C_3   0.632081 0.501237 0.827766 -0.806661
C13   C     C_1   0.270530 0.500036 0.770537 0.001928
C14   C     C_3   0.435612 0.385246 0.246725 -0.790282
C15   C     C_3   0.545435 0.379736 0.329276 -0.821711
C16   C     C_3   0.530991 0.603373 0.711304 -0.839051
C17   C     C_1   0.729468 0.499968 0.229426 0.002196
C18   C     C_1   0.728321 0.000025 0.728307 0.001950
C19   C     C_1   0.271679 0.999971 0.271693 0.001902
C20   C     C_1   0.228321 0.500029 0.728316 0.001759
C21   C     C_1   0.771677 0.499975 0.271654 0.001810
C22   C     C_1   0.678492 0.000016 0.678471 0.000506
C23   C     C_1   0.321508 0.999981 0.321529 0.000467
C24   C     C_1   0.178492 0.500018 0.678475 0.000299
C25   C     C_R   0.086759 0.999987 0.086757 0.907590
C26   C     C_1   0.821507 0.499984 0.321508 0.000434
C27   C     C_1   0.636281 0.000008 0.636259 -0.203912
C28   C     C_1   0.363719 0.999991 0.363741 -0.203940
C29   C     C_1   0.136281 0.500009 0.636260 -0.204092
C30   C     C_1   0.863718 0.499992 0.363733 -0.204004
C31   C     C_R   0.000012 0.913260 0.500020 0.904942
C32   C     C_R   0.999987 0.086749 0.499981 0.895332
C33   C     C_R   0.500010 0.413258 0.499935 0.908373
C34   C     C_R   0.499991 0.586747 0.499978 0.893313
C35   C     C_R   0.999958 0.002822 0.622363 0.863095
C36   C     C_R   0.413240 0.500013 0.913266 0.903021
C37   C     C_R   0.000039 0.002695 0.377597 0.863250
C38   C     C_R   0.500081 0.502911 0.622455 0.890904
C39   C     C_R   0.500039 0.502698 0.377597 0.861628
C40   C     C_R   0.499999 0.085614 0.499912 0.878197
C41   C     C_R   0.500003 0.914387 0.500085 0.878175
C42   C     C_R   1.000000 0.585616 0.499921 0.878139
C43   C     C_R   0.000000 0.414389 0.500078 0.878291
C44   C     C_R   0.585602 1.000000 0.585590 0.878203
C45   C     C_R   0.414398 1.000000 0.414410 0.878202
C46   C     C_R   0.085602 0.500000 0.585590 0.878227
C47   C     C_R   0.586758 0.499988 0.086719 0.911539
C48   C     C_R   0.914398 0.500000 0.414409 0.878243
C49   C     C_1   0.000034 0.862600 0.499971 -0.238477
C50   C     C_1   0.999966 0.137422 0.500023 -0.232100
C51   C     C_1   0.500025 0.362593 0.499647 -0.235235
C52   C     C_1   0.499983 0.637414 0.500185 -0.228838
C53   C     C_R   0.001264 0.999915 0.878752 0.881115
C54   C     C_R   0.998764 0.999810 0.121272 0.881189
C55   C     C_R   0.498942 0.500034 0.876444 0.886684
C56   C     C_R   0.498767 0.499811 0.121275 0.881234
C57   C     C_1   0.000038 0.820398 0.499911 -0.004530
C58   C     C_1   0.820359 0.000037 0.820360 -0.002265
C59   C     C_1   0.999962 0.179630 0.500078 -0.003076
C60   C     C_1   0.500024 0.320388 0.499469 -0.002870
C61   C     C_1   0.499992 0.679620 0.500335 -0.001893
C62   C     C_1   0.000033 0.770570 0.499838 0.001205
C63   C     C_1   0.999966 0.229459 0.500150 0.001998
C64   C     C_1   0.500018 0.270559 0.499403 0.002149
C65   C     C_1   0.500002 0.729449 0.500419 0.001672
C66   C     C_1   0.500013 0.228348 0.499445 0.001926
C67   C     C_1   0.500006 0.771659 0.500420 0.001941
C68   C     C_1   0.000026 0.728358 0.499789 0.001404
C69   C     C_1   0.179641 0.999960 0.179640 -0.002324
C70   C     C_1   0.999973 0.271668 0.500201 0.002004
C71   C     C_1   0.500007 0.178513 0.499574 0.000511
C72   C     C_1   0.500006 0.821492 0.500358 0.000414
C73   C     C_1   0.000016 0.678521 0.499760 0.000173
C74   C     C_1   0.999983 0.321498 0.500235 0.000456
C75   C     C_1   0.500003 0.136299 0.499718 -0.203959
C76   C     C_1   0.500005 0.863704 0.500261 -0.204033
C77   C     C_1   0.000008 0.636305 0.499785 -0.204263
C78   C     C_1   0.999992 0.363709 0.500213 -0.203981
C79   C     C_3   0.954177 0.017613 0.741067 -0.408824
C80   C     C_1   0.320358 0.500040 0.820377 -0.002900
C81   C     C_3   0.959929 0.030387 0.174150 -0.423581
C82   C     C_3   0.045767 0.017528 0.258740 -0.408483
C83   C     C_3   0.039944 0.030748 0.825464 -0.423815
C84   C     C_3   0.496133 0.451001 0.779541 -0.395530
C85   C     C_3   0.459923 0.530378 0.174142 -0.423556
C86   C     C_3   0.545764 0.517542 0.258739 -0.408716
C87   C     C_3   0.458080 0.528986 0.744543 -0.413712
C88   C     C_3   0.952926 0.016827 0.668730 -0.406906
C89   C     C_3   0.962772 0.033742 0.247677 -0.458230
C90   C     C_3   0.046992 0.016842 0.331048 -0.407049
C91   C     C_1   0.679640 0.499964 0.179586 -0.002138
C92   C     C_3   0.037053 0.034096 0.751849 -0.458288
C93   C     C_3   0.493065 0.452450 0.705275 -0.486455
C94   C     C_3   0.462761 0.533730 0.247665 -0.458268
C95   C     C_3   0.546986 0.516863 0.331044 -0.407028
C96   C     C_3   0.457879 0.529306 0.673313 -0.426416
C97   C     C_3   0.008446 0.950093 0.793344 -0.405522
C98   C     C_3   0.991783 0.949846 0.207226 -0.405933
C99   C     C_3   0.544106 0.524175 0.832056 -0.498262
C100  C     C_3   0.491798 0.449846 0.207239 -0.405953
C101  C     C_3   0.001037 0.999594 0.810957 0.098236
C102  C     C_1   0.770531 0.000032 0.770524 0.002290
C103  C     C_3   0.998984 0.999361 0.189052 0.098286
C104  C     C_3   0.499337 0.500619 0.809343 0.117658
C105  C     C_3   0.498987 0.499363 0.189054 0.098269
C106  C     C_3   0.000054 0.000282 0.690037 0.069386
C107  C     C_3   0.999956 0.000101 0.309953 0.069269
C108  C     C_3   0.500565 0.502640 0.690501 0.117035
C109  C     C_3   0.499957 0.500104 0.309954 0.070018
C110  C     C_3   0.009142 0.949350 0.721414 0.426653
C111  C     C_3   0.991163 0.949119 0.279267 0.426863
C112  C     C_3   0.548599 0.521131 0.764962 0.457646
H1    H     H_    0.925925 0.995982 0.731598 0.162641
H2    H     H_    0.962450 0.065446 0.156407 0.194628
H3    H     H_    0.051382 0.053198 0.247473 0.185666
H4    H     H_    0.037265 0.065789 0.842803 0.194441
H5    H     H_    0.465247 0.433314 0.767360 0.184961
H6    H     H_    0.462438 0.565439 0.156396 0.194614
H7    H     H_    0.551373 0.553212 0.247460 0.185651
H8    H     H_    0.425454 0.514001 0.729539 0.163744
H9    H     H_    0.944916 0.051845 0.643057 0.170074
H10   H     H_    0.971900 0.069505 0.269908 0.177930
H11   H     H_    0.054779 0.051920 0.356152 0.169985
H12   H     H_    0.926091 0.016003 0.126546 0.159260
H13   H     H_    0.027706 0.069816 0.729135 0.177913
H14   H     H_    0.458715 0.439833 0.656200 0.190261
H15   H     H_    0.471873 0.569496 0.269885 0.177845
H16   H     H_    0.554757 0.551946 0.356127 0.169885
H17   H     H_    0.425791 0.512233 0.625461 0.190282
H18   H     H_    0.924683 0.993965 0.624920 0.203592
H19   H     H_    0.928436 0.027262 0.233875 0.182353
H20   H     H_    0.075369 0.994141 0.375246 0.203604
H21   H     H_    0.071417 0.027783 0.765696 0.182268
H22   H     H_    0.517875 0.428165 0.708900 0.168607
H23   H     H_    0.074107 0.995947 0.268537 0.162539
H24   H     H_    0.428426 0.527235 0.233859 0.182353
H25   H     H_    0.575374 0.494177 0.375257 0.203558
H26   H     H_    0.454139 0.564563 0.651814 0.172064
H27   H     H_    0.981176 0.928154 0.785864 0.186340
H28   H     H_    0.959009 0.936002 0.155834 0.153132
H29   H     H_    0.019098 0.927974 0.214834 0.185945
H30   H     H_    0.041245 0.936310 0.844928 0.153140
H31   H     H_    0.574205 0.508071 0.885423 0.149560
H32   H     H_    0.459024 0.435998 0.155852 0.153237
H33   H     H_    0.519113 0.427979 0.214839 0.185944
H34   H     H_    0.073848 0.016468 0.873219 0.159313
H35   H     H_    0.544070 0.560619 0.847228 0.180204
H36   H     H_    0.975157 0.915944 0.613073 0.231459
H37   H     H_    0.939669 0.855985 0.622396 0.241214
H38   H     H_    0.928016 0.889869 0.677973 0.244139
H39   H     H_    0.982814 0.860834 0.724713 0.248831
H40   H     H_    0.918758 0.952590 0.212070 0.219797
H41   H     H_    0.900186 0.880087 0.229050 0.237538
H42   H     H_    0.959026 0.866618 0.301921 0.261880
H43   H     H_    0.937478 0.870870 0.201061 0.231666
H44   H     H_    0.025420 0.915895 0.388091 0.231432
H45   H     H_    0.526611 0.430638 0.824396 0.174892
H46   H     H_    0.061312 0.856150 0.379571 0.241200
H47   H     H_    0.072608 0.890082 0.323319 0.244069
H48   H     H_    0.018033 0.860717 0.277214 0.248793
H49   H     H_    0.081534 0.953170 0.788723 0.219799
H50   H     H_    0.100581 0.880772 0.772771 0.237460
H51   H     H_    0.041837 0.867015 0.700004 0.261814
H52   H     H_    0.063292 0.871355 0.800772 0.231605
H53   H     H_    0.582488 0.456709 0.808510 0.219420
H54   H     H_    0.653947 0.470740 0.840879 0.238519
H55   H     H_    0.644000 0.517900 0.883065 0.226501
H56   H     H_    0.426089 0.515988 0.126537 0.159329
H57   H     H_    0.636288 0.524701 0.791719 0.261230
H58   H     H_    0.418780 0.452560 0.212112 0.219810
H59   H     H_    0.400240 0.380039 0.229083 0.237532
H60   H     H_    0.459087 0.366590 0.301948 0.261721
H61   H     H_    0.437532 0.370856 0.201088 0.231852
H62   H     H_    0.525460 0.415904 0.388120 0.231088
H63   H     H_    0.561391 0.356187 0.379628 0.241116
H64   H     H_    0.572655 0.390127 0.323341 0.244136
H65   H     H_    0.518100 0.360727 0.277272 0.248862
H66   H     H_    0.592303 0.578511 0.803450 0.233799
H67   H     H_    0.574110 0.495965 0.268547 0.162496
H68   H     H_    0.550362 0.634513 0.716656 0.244633
H69   H     H_    0.512047 0.611767 0.735514 0.238671
H70   H     H_    0.507940 0.595430 0.648901 0.234089
H71   H     H_    0.460034 0.564886 0.763690 0.183058
H72   H     H_    0.948447 0.053286 0.751879 0.185511
N1    N     N_2   0.973081 0.919969 0.658458 -0.297661
N2    N     N_2   0.945968 0.933850 0.256285 -0.306380
N3    N     N_2   0.027429 0.919926 0.342605 -0.297617
N4    N     N_2   0.054455 0.934303 0.744724 -0.306034
N5    N     N_2   0.584602 0.487088 0.786309 -0.293626
N6    N     N_2   0.446000 0.433826 0.256321 -0.306471
N7    N     N_2   0.527467 0.419941 0.342633 -0.297668
N8    N     N_2   0.562770 0.566092 0.753680 -0.288616
O1    O     O_R   0.936850 0.964330 0.936870 -0.600371
O2    O     O_R   0.000010 0.035670 0.092610 -0.622495
O3    O     O_R   0.000010 0.964330 0.092610 -0.629465
O4    O     O_R   0.999990 0.035670 0.907390 -0.622259
O5    O     O_R   0.499990 0.464330 0.907390 -0.626488
O6    O     O_R   0.500010 0.535670 0.092610 -0.622526
O7    O     O_R   0.500010 0.464330 0.092610 -0.629521
O8    O     O_R   0.499990 0.535670 0.907390 -0.624591
O9    O     O_R   0.964320 0.936860 0.464320 -0.592704
O10   O     O_R   0.035680 0.063140 0.535680 -0.603696
O11   O     O_R   0.035680 0.936860 0.535680 -0.592997
O12   O     O_R   0.063150 0.035670 0.063130 -0.599865
O13   O     O_R   0.964320 0.063140 0.464320 -0.603666
O14   O     O_R   0.464320 0.436860 0.464320 -0.589930
O15   O     O_R   0.535680 0.563140 0.535680 -0.595367
O16   O     O_R   0.535680 0.436860 0.535680 -0.601221
O17   O     O_R   0.464320 0.563140 0.464320 -0.607532
O18   O     O_R   0.964330 0.000000 0.556950 -0.629205
O19   O     O_R   0.035670 0.000000 0.443050 -0.629242
O20   O     O_R   0.464330 0.500000 0.556950 -0.637449
O21   O     O_R   0.535670 0.500000 0.443050 -0.630380
O22   O     O_R   0.035630 1.000000 0.628230 -0.608195
O23   O     O_R   0.063150 0.964330 0.063130 -0.600415
O24   O     O_R   0.964370 0.000000 0.371770 -0.608374
O25   O     O_R   0.535630 0.500000 0.628230 -0.581463
O26   O     O_R   0.464370 0.500000 0.371770 -0.609025
O27   O     O_R   0.499940 0.063120 0.447680 -0.592693
O28   O     O_R   0.500060 0.936880 0.552320 -0.592631
O29   O     O_R   0.500060 0.063120 0.552320 -0.592386
O30   O     O_R   0.499940 0.936880 0.447680 -0.592492
O31   O     O_R   0.999940 0.563120 0.447680 -0.592692
O32   O     O_R   0.000060 0.436880 0.552320 -0.592596
O33   O     O_R   0.000060 0.563120 0.552320 -0.592523
O34   O     O_R   0.936850 0.035670 0.936870 -0.599819
O35   O     O_R   0.999940 0.436880 0.447680 -0.592507
O36   O     O_R   0.563110 1.000000 0.510830 -0.592636
O37   O     O_R   0.436890 0.000000 0.489170 -0.592604
O38   O     O_R   0.063110 0.500000 0.510830 -0.592717
O39   O     O_R   0.936890 0.500000 0.489170 -0.592611
O40   O     O_R   0.563120 0.000000 0.615390 -0.592435
O41   O     O_R   0.436880 1.000000 0.384610 -0.592478
O42   O     O_R   0.063120 0.500000 0.615390 -0.592452
O43   O     O_R   0.936880 0.500000 0.384610 -0.592487
O44   O     O_R   0.436850 0.464330 0.936870 -0.601622
O45   O     O_R   0.563150 0.535670 0.063130 -0.598893
O46   O     O_R   0.563150 0.464330 0.063130 -0.598878
O47   O     O_R   0.436850 0.535670 0.936870 -0.601421
O48   O     O_R   0.999990 0.964330 0.907390 -0.629659
Zn1   Zn    Zn3+2 0.000000 0.952370 0.000000 0.937992
Zn2   Zn    Zn3+2 0.500030 0.000000 0.569830 0.963914
Zn3   Zn    Zn3+2 0.999970 0.500000 0.430170 0.963484
Zn4   Zn    Zn3+2 0.000030 0.500000 0.569830 0.963671
Zn5   Zn    Zn3+2 0.000000 0.047630 0.000000 0.942675
Zn6   Zn    Zn3+2 0.500000 0.452370 0.000000 0.940030
Zn7   Zn    Zn3+2 0.500000 0.547630 0.000000 0.941618
Zn8   Zn    Zn3+2 0.952370 0.000000 0.452390 0.953598
Zn9   Zn    Zn3+2 0.047630 0.000000 0.547610 0.953588
Zn10  Zn    Zn3+2 0.452370 0.500000 0.452390 0.949886
Zn11  Zn    Zn3+2 0.547630 0.500000 0.547610 0.967087
Zn12  Zn    Zn3+2 0.499970 0.000000 0.430170 0.963726

loop_
_geom_bond_atom_site_label_1
_geom_bond_atom_site_label_2
_ccdc_geom_bond_type
C1    O34   A    
C96   C108  S    
C21   C26   S    
C33   O16   A    
C54   O2    A    
O4    Zn5   S    
C46   O38   A    
C90   H11   S    
C39   O26   A    
C19   C23   S    
C92   H21   S    
C17   C91   S    
C88   H18   S    
C72   C76   T    
O13   Zn8   S    
C92   H13   S    
C12   H55   S    
H49   N4    S    
H66   N8    S    
C15   N7    S    
C57   C62   S    
C110  N1    S    
C94   H15   S    
C43   C78   S    
C100  H32   S    
C12   N5    S    
C110  N4    S    
C100  C105  S    
C15   H64   S    
O40   Zn2   S    
C50   C59   T    
C46   O42   A    
C30   C48   S    
C96   H17   S    
C35   O18   A    
C45   O41   A    
C82   H3    S    
C37   C107  S    
C14   H61   S    
C52   C61   T    
C93   C108  S    
C96   H26   S    
C16   H70   S    
C42   O33   A    
C89   H10   S    
C107  C111  S    
C16   H68   S    
C98   C103  S    
C47   O46   A    
O5    Zn6   S    
C49   C57   T    
C79   H72   S    
O45   Zn7   S    
O47   Zn7   S    
C67   C72   S    
C18   C102  T    
O39   Zn4   S    
C82   H23   S    
C24   C29   T    
C37   O19   A    
C5    C69   T    
O38   Zn3   S    
C16   N8    S    
O7    Zn6   S    
C112  N5    S    
O11   Zn9   S    
C48   O39   A    
C6    C80   T    
C95   H16   S    
C35   C106  S    
C66   C71   S    
O31   Zn3   S    
C84   H5    S    
C65   C67   T    
O2    Zn5   S    
C81   H2    S    
C70   C74   S    
C94   H24   S    
C82   C103  S    
O35   Zn3   S    
C86   H7    S    
C98   C111  S    
C8    N1    S    
O18   Zn8   S    
C2    C69   S    
C100  H33   S    
C37   O24   A    
C31   O11   A    
O12   Zn5   S    
H62   N7    S    
C56   O7    A    
C90   H20   S    
C25   O12   A    
C36   O47   A    
C99   C104  S    
O3    Zn1   S    
C13   C80   S    
C9    H41   S    
O9    Zn8   S    
C47   O45   A    
C32   O10   A    
O26   Zn10  S    
C38   O25   A    
C89   C107  S    
C45   O37   A    
C31   C49   S    
C97   C110  S    
C85   C105  S    
C27   C44   S    
O8    Zn7   S    
C79   C88   S    
C35   O22   A    
C43   O35   A    
C60   C64   S    
C56   O6    A    
O29   Zn2   S    
C33   O14   A    
C12   H54   S    
C28   C45   S    
O23   Zn1   S    
C95   H25   S    
C39   O21   A    
C81   H12   S    
C11   N4    S    
C20   C24   S    
C54   C103  S    
C25   O23   A    
C8    H39   S    
H40   N2    S    
C9    N2    S    
C3    C100  S    
C3    N6    S    
C53   C101  S    
C16   H69   S    
O32   Zn4   S    
C68   C73   S    
O28   Zn2   S    
C55   C104  S    
C11   H50   S    
C17   C21   T    
C108  C112  S    
C98   H28   S    
O33   Zn4   S    
O16   Zn11  S    
C64   C66   T    
C8    H38   S    
C83   C92   S    
C34   O17   A    
C3    N7    S    
C112  N8    S    
C83   H34   S    
C88   C106  S    
C85   C94   S    
H53   N5    S    
C55   O8    A    
C63   C70   T    
O6    Zn7   S    
C7    C91   T    
C87   C96   S    
O46   Zn6   S    
O22   Zn9   S    
C11   H51   S    
C10   N3    S    
C23   C28   T    
O19   Zn9   S    
C44   O36   A    
O43   Zn3   S    
C5    C25   S    
C14   H60   S    
C9    H42   S    
C93   H22   S    
O27   Zn12  S    
C15   H65   S    
C98   H29   S    
C95   C109  S    
C84   C104  S    
C59   C63   S    
C86   C105  S    
C33   C51   S    
O20   Zn10  S    
C42   O31   A    
C10   H48   S    
C41   O28   A    
O1    Zn1   S    
C56   C105  S    
O34   Zn5   S    
C81   C103  S    
H44   N3    S    
C92   C106  S    
C99   H35   S    
H58   N6    S    
C87   H71   S    
C54   O3    A    
C83   C101  S    
C13   C20   T    
C2    C19   T    
C18   C22   S    
C85   H56   S    
C111  N3    S    
C83   H4    S    
C32   C50   S    
C41   O30   A    
C14   H59   S    
C89   H19   S    
C90   C107  S    
C84   H45   S    
C26   C30   T    
C12   H57   S    
C11   H52   S    
C34   O15   A    
O24   Zn8   S    
O17   Zn10  S    
C94   C109  S    
C34   C52   S    
C82   C90   S    
C40   C75   S    
C62   C68   T    
C29   C46   S    
C22   C27   T    
C1    C4    S    
C79   H1    S    
C8    H37   S    
H36   N1    S    
C40   O29   A    
C81   C89   S    
C87   H8    S    
C40   O27   A    
C53   O48   A    
C41   C76   S    
C71   C75   T    
O37   Zn2   S    
C55   O5    A    
C79   C101  S    
C3    C109  S    
C58   C102  S    
C86   H67   S    
C43   O32   A    
C6    C36   S    
O21   Zn11  S    
C84   C93   S    
C111  N2    S    
C38   C108  S    
C85   H6    S    
C93   H14   S    
C44   O40   A    
C97   H30   S    
C31   O9    A    
C48   O43   A    
C86   C95   S    
C99   H31   S    
C87   C104  S    
C14   N6    S    
C61   C65   S    
C10   H46   S    
C39   C109  S    
O10   Zn9   S    
C36   O44   A    
C9    H43   S    
C42   C77   S    
C106  C110  S    
C74   C78   T    
O14   Zn10  S    
C4    C58   T    
O48   Zn1   S    
C53   O4    A    
C73   C77   T    
C1    O1    A    
C99   C112  S    
C51   C60   T    
O25   Zn11  S    
C38   O20   A    
C32   O13   A    
C15   H63   S    
O15   Zn11  S    
C10   H47   S    
C97   H27   S    
C97   C101  S    
C88   H9    S    
O41   Zn12  S    
C7    C47   S    
O42   Zn4   S    
O36   Zn12  S    
O44   Zn6   S    
O30   Zn12  S    
