data_mof_unit_39144.cif
_audit_creation_date              2012-12-11T16:07:32-0500
_audit_creation_method            fapswitch 2.2
_symmetry_space_group_name_H-M    P1
_symmetry_Int_Tables_number       1
_space_group_crystal_system       triclinic
_cell_length_a                    6.947345
_cell_length_b                    14.385828
_cell_length_c                    15.922484
_cell_angle_alpha                 90.338191
_cell_angle_beta                  89.788112
_cell_angle_gamma                 90.063483
_cell_volume                      1591.30621644

loop_
_atom_site_label
_atom_site_type_symbol
_atom_type_description
_atom_site_fract_x
_atom_site_fract_y
_atom_site_fract_z
_atom_type_partial_charge
O1    O     O_R   0.494320 0.415010 0.412140 -0.541980
O2    O     O_R   0.824010 0.404260 0.587250 -0.543425
O3    O     O_R   0.994320 0.584990 0.587860 -0.539895
C1    C     C_R   0.654779 0.382942 0.617173 0.685544
O4    O     O_R   0.824040 0.403870 0.412760 -0.544728
O5    O     O_R   0.994350 0.584590 0.412130 -0.547800
C2    C     C_R   0.655397 0.381480 0.383598 0.704338
O6    O     O_R   0.494300 0.415410 0.587870 -0.544191
O7    O     O_3   0.660800 0.559290 0.500000 -0.360392
V1    V     V_3+5 0.935650 0.489000 0.500000 1.383725
O8    O     O_R   0.324060 0.595740 0.412750 -0.518296
C3    C     C_R   0.155303 0.619713 0.385169 0.710968
O9    O     O_R   0.324040 0.596130 0.587240 -0.538864
C4    C     C_R   0.154842 0.618300 0.616207 0.691243
V2    V     V_3+5 0.435660 0.511000 0.500000 1.412442
O10   O     O_3   0.160640 0.440710 0.500000 -0.374702
C5    C     C_3   0.953845 0.720480 0.729270 -0.164298
C6    C     C_3   0.050010 0.709087 0.816646 -0.177548
H1    H     H_    0.982369 0.676292 0.872380 0.123259
H2    H     H_    0.805710 0.698532 0.712180 0.117266
C7    C     C_3   0.123494 0.810285 0.812425 -0.018330
C8    C     C_3   0.030776 0.820546 0.726235 0.244725
C9    C     C_3   0.216910 0.789303 0.681958 -0.145279
C10   C     C_3   0.311880 0.777522 0.769511 -0.153680
C11   C     C_3   0.238560 0.675591 0.773247 -0.124344
C12   C     C_3   0.143084 0.688173 0.686703 -0.044184
H3    H     H_    0.283004 0.822840 0.626233 0.105563
H4    H     H_    0.459456 0.800549 0.786369 0.113978
H5    H     H_    0.325611 0.614644 0.792339 0.113506
C13   C     C_3   0.260733 0.845265 0.254895 -0.407913
H6    H     H_    0.406780 0.849909 0.228259 0.173045
H7    H     H_    0.222747 0.917367 0.274577 0.101468
C14   C     C_3   0.259154 0.781618 0.333911 0.068402
H8    H     H_    0.181837 0.819043 0.385405 0.109685
H9    H     H_    0.378127 0.632346 0.235415 0.174451
C15   C     C_3   0.176700 0.709941 0.155189 0.063255
C16   C     C_3   0.918533 0.799728 0.234994 0.035504
C17   C     C_3   0.116203 0.810108 0.186677 0.014311
H10   H     H_    0.891525 0.865432 0.270808 0.108607
C18   C     C_3   0.145061 0.690220 0.314437 0.001663
C19   C     C_3   0.221256 0.646184 0.231157 -0.284930
C20   C     C_3   0.932384 0.719996 0.299833 -0.359818
H11   H     H_    0.867129 0.743878 0.360150 0.133190
H12   H     H_    0.848195 0.658517 0.277961 0.180786
H13   H     H_    0.053223 0.677219 0.122312 0.129541
H14   H     H_    0.151577 0.577319 0.220849 0.115226
C21   C     C_3   0.435649 0.311231 0.727191 -0.308388
H15   H     H_    0.389528 0.382967 0.744491 0.148432
H16   H     H_    0.332223 0.286058 0.678831 0.129280
C22   C     C_3   0.425173 0.246052 0.804567 0.059620
H17   H     H_    0.309388 0.194212 0.792133 0.129677
H18   H     H_    0.741575 0.407797 0.789266 0.165669
C23   C     C_3   0.784530 0.339934 0.761090 -0.376672
C24   C     C_3   0.691371 0.214120 0.658154 -0.354785
C25   C     C_3   0.642475 0.313744 0.689182 0.010112
H19   H     H_    0.842585 0.211940 0.634911 0.150847
H20   H     H_    0.596823 0.194606 0.604594 0.141892
C26   C     C_3   0.621229 0.192222 0.815333 -0.036955
C27   C     C_3   0.787348 0.263509 0.829879 0.536824
C28   C     C_3   0.665411 0.142593 0.730211 -0.487507
H21   H     H_    0.546055 0.093991 0.714296 0.162756
H22   H     H_    0.798532 0.100066 0.735402 0.171598
H23   H     H_    0.932822 0.348651 0.735648 0.123129
H24   H     H_    0.927740 0.226442 0.826002 0.081698
C29   C     C_3   0.552677 0.355921 0.233202 -0.367364
H25   H     H_    0.406660 0.382677 0.249090 0.187731
H26   H     H_    0.640317 0.416608 0.212836 0.106462
C30   C     C_3   0.538386 0.284439 0.159751 0.543698
H27   H     H_    0.619263 0.311398 0.104570 0.127852
H28   H     H_    0.373279 0.248472 0.354412 0.170543
H29   H     H_    0.357311 0.141289 0.247979 0.216852
C31   C     C_3   0.521570 0.225818 0.337371 -0.341827
C32   C     C_3   0.848557 0.275727 0.286938 -0.363406
C33   C     C_3   0.645107 0.311314 0.312051 -0.031808
H30   H     H_    0.917881 0.241787 0.341711 0.106710
H31   H     H_    0.941642 0.335384 0.268646 0.198849
C34   C     C_3   0.623426 0.188904 0.186092 -0.103291
C35   C     C_3   0.510769 0.153965 0.264319 -0.419474
C36   C     C_3   0.836707 0.205365 0.213422 0.463934
H32   H     H_    0.901256 0.138405 0.233800 0.051726
H33   H     H_    0.584388 0.192307 0.393794 0.127775
H34   H     H_    0.571411 0.086449 0.285354 0.108749
O11   O     O_R   0.771990 0.083520 0.910980 -0.530690
O12   O     O_R   0.442180 0.095020 0.086060 -0.506799
O13   O     O_R   0.271950 0.914280 0.086680 -0.550982
C37   C     C_R   0.611332 0.117966 0.114908 0.735532
O14   O     O_R   0.442270 0.094630 0.911580 -0.550387
O15   O     O_R   0.272040 0.913890 0.910940 -0.548833
C38   C     C_R   0.611499 0.119452 0.884588 0.713246
O16   O     O_R   0.771900 0.083910 0.086710 -0.516708
O17   O     O_3   0.605520 0.939610 0.998840 -0.393353
V3    V     V_3+5 0.330640 0.009880 0.998810 1.491330
O18   O     O_R   0.942330 0.902710 0.911540 -0.547153
C39   C     C_R   0.111558 0.880477 0.882670 0.677715
O19   O     O_R   0.942240 0.903100 0.086030 -0.554728
C40   C     C_R   0.109687 0.880628 0.115192 0.653294
V4    V     V_3+5 0.830640 0.987830 0.998780 1.454844
O20   O     O_3   0.105630 0.058150 0.998800 -0.327340
N1    N     N_3   0.454831 0.763874 0.363732 -0.659028
H35   H     H_    0.535864 0.734291 0.315364 0.263658
H36   H     H_    0.519117 0.827515 0.379053 0.214023
N2    N     N_3   0.336512 0.709005 0.094879 -0.656211
H37   H     H_    0.438296 0.758324 0.111804 0.259273
H38   H     H_    0.284396 0.728242 0.035914 0.212718
N3    N     N_3   0.751004 0.782861 0.181369 -0.698743
H39   H     H_    0.787076 0.749640 0.125144 0.238777
H40   H     H_    0.687687 0.846488 0.166764 0.231304
N4    N     N_3   0.367151 0.299730 0.879491 -0.612758
H41   H     H_    0.455875 0.357746 0.887535 0.285625
H42   H     H_    0.376547 0.259548 0.933648 0.290046
F1    F     F_    0.777228 0.303205 0.909267 -0.680530
N5    N     N_3   0.917509 0.900640 0.700812 -0.700666
H43   H     H_    0.869106 0.887710 0.639787 0.219235
H44   H     H_    0.795430 0.903099 0.739318 0.216731
F2    F     F_    0.347693 0.274774 0.135920 -0.625189
F3    F     F_    0.944895 0.238115 0.146389 -0.609286

loop_
_geom_bond_atom_site_label_1
_geom_bond_atom_site_label_2
_ccdc_geom_bond_type
O18   C39   A    
C6    C7    S    
C32   C33   S    
O19   C40   A    
C1    O6    A    
N5    H44   S    
V4    O20   S    
C23   C27   S    
V3    O20   S    
C21   H16   S    
C24   C28   S    
C34   C35   S    
N3    H40   S    
C27   H24   S    
C5    C12   S    
C28   H22   S    
O12   C37   A    
O5    C3    A    
C13   H6    S    
O13   C40   A    
C7    C39   S    
C26   C28   S    
V2    O10   S    
C5    H2    S    
N4    H41   S    
C13   C17   S    
C15   N2    S    
C6    H1    S    
C9    C12   S    
C16   C20   S    
C31   C35   S    
O8    V2    S    
O15   V3    S    
C30   H27   S    
C29   H26   S    
C27   F1    S    
C19   H14   S    
O1    V2    S    
C9    H3    S    
C21   C22   S    
O7    V1    S    
O16   V4    S    
C31   H33   S    
C18   C20   S    
O9    C4    A    
C22   N4    S    
C32   H30   S    
C15   C19   S    
C6    C11   S    
C20   H12   S    
N5    H43   S    
O13   V3    S    
C22   H17   S    
C2    C33   S    
C24   H19   S    
C23   C25   S    
C11   H5    S    
O11   C38   A    
O15   C39   A    
C14   C18   S    
C22   C26   S    
C21   H15   S    
C14   H8    S    
C10   C11   S    
C31   C33   S    
C37   O16   A    
O17   V3    S    
O4    C2    A    
C11   C12   S    
O17   V4    S    
C29   C33   S    
C28   H21   S    
C14   N1    S    
C3    C18   S    
O2    C1    A    
C16   N3    S    
C16   C17   S    
C35   H34   S    
N1    H35   S    
C9    C10   S    
C29   C30   S    
C5    C6    S    
C32   C36   S    
C34   C36   S    
C15   H13   S    
C4    C12   S    
N2    H38   S    
O3    C4    A    
C18   C19   S    
N1    H36   S    
C34   C37   S    
O6    V2    S    
C8    N5    S    
O9    V2    S    
C1    C25   S    
C32   H31   S    
C20   H11   S    
O2    V1    S    
O18   V4    S    
O14   V3    S    
H18   C23   S    
C21   C25   S    
C30   C34   S    
C24   C25   S    
C13   C14   S    
O1    C2    A    
C10   H4    S    
O5    V1    S    
O8    C3    A    
O19   V4    S    
N3    H39   S    
C5    C8    S    
O14   C38   A    
C26   C27   S    
O4    V1    S    
C16   H10   S    
O3    V1    S    
V1    O10   S    
C13   H7    S    
C23   H23   S    
C36   F3    S    
C15   C17   S    
N4    H42   S    
O7    V2    S    
N2    H37   S    
H9    C19   S    
C26   C38   S    
C30   F2    S    
C36   H32   S    
C29   H25   S    
O11   V4    S    
C7    C10   S    
C17   C40   S    
C8    C9    S    
H28   C31   S    
O12   V3    S    
C7    C8    S    
H29   C35   S    
C24   H20   S    
