data_mof_unit_38557.cif
_audit_creation_date              2012-12-10T17:15:41-0500
_audit_creation_method            fapswitch 2.2
_symmetry_space_group_name_H-M    P1
_symmetry_Int_Tables_number       1
_space_group_crystal_system       triclinic
_cell_length_a                    17.299341
_cell_length_b                    13.026018
_cell_length_c                    11.625874
_cell_angle_alpha                 99.74694
_cell_angle_beta                  90.003314
_cell_angle_gamma                 91.007826
_cell_volume                      2581.56409422

loop_
_atom_site_label
_atom_site_type_symbol
_atom_type_description
_atom_site_fract_x
_atom_site_fract_y
_atom_site_fract_z
_atom_type_partial_charge
C1    C     C_R   0.500045 0.299458 0.478962 0.811104
C2    C     C_R   0.499954 0.700542 0.521038 0.811114
C3    C     C_R   0.502555 0.813257 0.531624 -0.083803
C4    C     C_R   0.497442 0.186743 0.468377 -0.083799
C5    C     C_R   0.437182 0.025134 0.378020 -0.214349
C6    C     C_R   0.562811 0.974867 0.621984 -0.214344
C7    C     C_R   0.449097 0.130842 0.383164 -0.228522
C8    C     C_R   0.550898 0.869159 0.616839 -0.228515
C9    C     C_R   0.537202 0.136076 0.548288 -0.072488
C10   C     C_R   0.462793 0.863924 0.451714 -0.072485
C11   C     C_R   0.525278 0.028043 0.543080 0.118694
C12   C     C_R   0.474716 0.971957 0.456924 0.118695
C13   C     C_R   0.434854 0.391152 0.027813 -0.108308
C14   C     C_R   0.565141 0.608849 0.972187 -0.108311
C15   C     C_R   0.441378 0.402968 0.149893 0.029603
C16   C     C_R   0.558621 0.597033 0.850108 0.029609
C17   C     C_R   0.525970 0.548355 0.155595 0.030352
C18   C     C_R   0.474030 0.451644 0.844404 0.030332
C19   C     C_R   0.523431 0.539736 0.032420 -0.017479
C20   C     C_R   0.476567 0.460264 0.967579 -0.017489
C21   C     C_R   0.350469 0.495371 0.514221 0.797510
C22   C     C_R   0.649532 0.504622 0.485778 0.797519
C23   C     C_R   0.265783 0.484772 0.520667 -0.115521
C24   C     C_R   0.734221 0.515194 0.479332 -0.115529
C25   C     C_R   0.220260 0.438873 0.422428 0.126588
C26   C     C_R   0.779754 0.561040 0.577582 0.126566
C27   C     C_R   0.139869 0.439620 0.434111 -0.164917
C28   C     C_R   0.860144 0.560265 0.565890 -0.164925
C29   C     C_R   0.104561 0.481674 0.539323 0.087930
C30   C     C_R   0.895444 0.518227 0.460664 0.087937
C31   C     C_R   0.149618 0.518728 0.638965 0.030841
C32   C     C_R   0.850377 0.481224 0.361017 0.030840
C33   C     C_R   0.229977 0.520291 0.628247 -0.277243
C34   C     C_R   0.770018 0.479693 0.371740 -0.277227
C35   C     C_2   0.020069 0.484473 0.543120 -0.242583
C36   C     C_2   0.979936 0.515402 0.456857 -0.242587
Cu1   Cu    Cu3+1 0.505800 0.507690 0.615350 0.937879
Cu2   Cu    Cu3+1 0.494200 0.492310 0.384650 0.937882
H1    H     H_    0.589242 0.650382 0.803709 0.124317
H2    H     H_    0.410757 0.349620 0.196293 0.124316
H3    H     H_    0.735347 0.447594 0.296025 0.165182
H4    H     H_    0.264642 0.552430 0.703954 0.165176
H5    H     H_    0.009230 0.535873 0.380974 0.164943
H6    H     H_    0.990776 0.464002 0.619004 0.164933
H7    H     H_    0.896795 0.592885 0.638630 0.158471
H8    H     H_    0.103225 0.406970 0.361374 0.158460
H9    H     H_    0.582143 0.830043 0.677243 0.148941
H10   H     H_    0.417852 0.169958 0.322760 0.148936
H11   H     H_    0.397339 0.986286 0.312476 0.152871
H12   H     H_    0.602653 0.013716 0.687531 0.152875
H13   H     H_    0.440037 0.390905 0.791780 0.145103
H14   H     H_    0.559966 0.609091 0.208217 0.145107
N1    N     N_R   0.514530 0.519260 0.788680 -0.184499
N2    N     N_R   0.485470 0.480740 0.211320 -0.184499
O1    O     O_R   0.504120 0.354440 0.581590 -0.569354
O2    O     O_R   0.495880 0.645560 0.418410 -0.569349
O3    O     O_R   0.494320 0.341440 0.386760 -0.600322
O4    O     O_R   0.505680 0.658560 0.613240 -0.600316
O5    O     O_R   0.391870 0.507230 0.608700 -0.584999
O6    O     O_R   0.608130 0.492770 0.391300 -0.584999
O7    O     O_R   0.382070 0.494240 0.413880 -0.590460
O8    O     O_R   0.617930 0.505760 0.586120 -0.590468
C37   C     C_3   0.257177 0.388743 0.307435 -0.369420
C38   C     C_3   0.203685 0.323964 0.216976 -0.907154
H15   H     H_    0.172846 0.262442 0.255491 0.257125
H16   H     H_    0.161560 0.374594 0.182405 0.246767
H17   H     H_    0.238736 0.285460 0.142419 0.262894
H18   H     H_    0.283835 0.450821 0.264913 0.226229
H19   H     H_    0.302864 0.335459 0.327566 0.202319
C39   C     C_3   0.742851 0.611148 0.692597 -0.369370
C40   C     C_3   0.796366 0.675838 0.783102 -0.907175
H20   H     H_    0.838468 0.625144 0.817622 0.246748
H21   H     H_    0.827231 0.737375 0.744642 0.257114
H22   H     H_    0.761328 0.714324 0.857685 0.262891
H23   H     H_    0.697191 0.664488 0.672502 0.202312
H24   H     H_    0.716161 0.549062 0.735074 0.226250
C41   C     C_R   0.384561 0.305920 0.967080 0.091312
C42   C     C_R   0.401171 0.201827 0.973167 -0.179736
C43   C     C_R   0.353574 0.121167 0.916195 -0.134896
C44   C     C_R   0.288815 0.143944 0.853797 -0.102518
C45   C     C_R   0.271378 0.247441 0.848636 -0.139598
C46   C     C_R   0.318834 0.328328 0.905531 -0.165465
H25   H     H_    0.451332 0.183231 0.020977 0.121240
H26   H     H_    0.366932 0.041007 0.920339 0.127303
H27   H     H_    0.252067 0.081409 0.809642 0.121423
H28   H     H_    0.221096 0.264883 0.800526 0.124929
H29   H     H_    0.304771 0.408307 0.901440 0.119875
C47   C     C_R   0.615425 0.694091 0.032925 0.091313
C48   C     C_R   0.681168 0.671692 0.094442 -0.165516
C49   C     C_R   0.728612 0.752588 0.151348 -0.139614
C50   C     C_R   0.711143 0.856085 0.146234 -0.102496
C51   C     C_R   0.646365 0.878853 0.083872 -0.134888
C52   C     C_R   0.598781 0.798183 0.026886 -0.179715
H30   H     H_    0.695255 0.591713 0.098497 0.119890
H31   H     H_    0.778909 0.735154 0.199430 0.124925
H32   H     H_    0.747880 0.918628 0.190400 0.121419
H33   H     H_    0.632981 0.959013 0.079768 0.127300
H34   H     H_    0.548605 0.816770 0.979104 0.121236
C53   C     C_R   0.114487 0.558042 0.754235 0.110708
C54   C     C_R   0.061595 0.639953 0.767476 -0.159925
C55   C     C_R   0.027620 0.674572 0.875958 -0.161495
C56   C     C_R   0.046866 0.628782 0.972271 -0.101690
C57   C     C_R   0.100199 0.548371 0.960321 -0.135897
C58   C     C_R   0.133902 0.513106 0.851835 -0.174148
H35   H     H_    0.046572 0.676788 0.693896 0.134709
H36   H     H_    0.986391 0.736970 0.885352 0.131763
H37   H     H_    0.020419 0.655524 0.056122 0.126879
H38   H     H_    0.115044 0.512879 0.034937 0.128561
H39   H     H_    0.174277 0.449874 0.843435 0.118662
C59   C     C_R   0.885498 0.441937 0.245731 0.110704
C60   C     C_R   0.866085 0.486917 0.148161 -0.174138
C61   C     C_R   0.899777 0.451678 0.039660 -0.135909
C62   C     C_R   0.953097 0.371251 0.027665 -0.101679
C63   C     C_R   0.972342 0.325418 0.123949 -0.161479
C64   C     C_R   0.938377 0.360010 0.232446 -0.159930
H40   H     H_    0.825721 0.550163 0.156595 0.118656
H41   H     H_    0.884934 0.487204 0.965067 0.128547
H42   H     H_    0.979536 0.344528 0.943803 0.126878
H43   H     H_    0.013561 0.263007 0.114521 0.131749
H44   H     H_    0.953400 0.323142 0.306003 0.134704
C65   C     C_R   0.408889 0.803571 0.364360 0.115299
C66   C     C_R   0.428854 0.783571 0.245577 -0.146534
C67   C     C_R   0.380382 0.721694 0.164718 -0.131243
C68   C     C_R   0.312220 0.678469 0.201948 -0.107696
C69   C     C_R   0.292047 0.697850 0.319983 -0.122751
C70   C     C_R   0.340113 0.760216 0.401062 -0.124874
H45   H     H_    0.482296 0.814930 0.216205 0.135654
H46   H     H_    0.396134 0.706261 0.073389 0.130255
H47   H     H_    0.275172 0.629690 0.139424 0.120698
H48   H     H_    0.239449 0.663896 0.348798 0.126956
H49   H     H_    0.324437 0.773544 0.492506 0.108021
C71   C     C_R   0.591108 0.196427 0.635641 0.115300
C72   C     C_R   0.659891 0.239766 0.598938 -0.124888
C73   C     C_R   0.707961 0.302127 0.680014 -0.122782
C74   C     C_R   0.687786 0.321521 0.798048 -0.107720
C75   C     C_R   0.619617 0.278314 0.835280 -0.131227
C76   C     C_R   0.571141 0.216440 0.754423 -0.146514
H50   H     H_    0.675568 0.226427 0.507494 0.108030
H51   H     H_    0.760565 0.336068 0.651198 0.126972
H52   H     H_    0.724838 0.370297 0.860571 0.120714
H53   H     H_    0.603863 0.293756 0.926608 0.130259
H54   H     H_    0.517694 0.185093 0.783796 0.135648

loop_
_geom_bond_atom_site_label_1
_geom_bond_atom_site_label_2
_ccdc_geom_bond_type
C76   H54   S    
C55   C56   A    
C27   C29   A    
C19   C20   A    
C73   H51   S    
C10   C65   S    
C63   C64   A    
C49   C50   A    
C67   C68   A    
C41   C42   A    
C54   H35   S    
Cu1   Cu2   S    
C69   C70   A    
C32   C59   S    
C33   H4    S    
C70   H49   S    
C24   C26   A    
C21   O5    A    
C22   O6    A    
C43   H26   S    
C46   H29   S    
C48   H30   S    
C18   C20   A    
C25   C37   S    
C66   H45   S    
C59   C60   A    
C54   C55   A    
C57   C58   A    
C18   N1    A    
C50   H32   S    
C16   N1    A    
C42   H25   S    
C60   C61   A    
C71   C72   A    
C23   C33   A    
C18   H13   S    
C31   C33   A    
C60   H40   S    
C31   C53   S    
C21   O7    A    
Cu1   O4    S    
Cu2   O7    S    
Cu1   N1    S    
C62   H42   S    
C53   C58   A    
C72   H50   S    
C5    H11   S    
C34   H3    S    
C4    C7    A    
C69   H48   S    
C17   H14   S    
C61   C62   A    
C51   H33   S    
C45   C46   A    
C74   H52   S    
C13   C41   S    
C28   H7    S    
C59   C64   A    
C38   H17   S    
C37   H19   S    
C74   C75   A    
C5    C12   A    
C3    C8    A    
C50   C51   A    
C5    C7    A    
C42   C43   A    
C75   C76   A    
C6    C8    A    
C71   C76   A    
C24   C34   A    
C37   C38   S    
C35   C36   D    
C32   C34   A    
C15   N2    A    
C44   H27   S    
C1    O3    A    
C22   O8    A    
Cu2   O3    S    
C53   C54   A    
Cu2   N2    S    
C56   H37   S    
C6    H12   S    
C35   H6    S    
C9    C11   A    
C65   C66   A    
Cu1   O5    S    
C10   C12   A    
Cu2   O6    S    
C27   H8    S    
C21   C23   S    
C39   H24   S    
C72   C73   A    
C26   C39   S    
C22   C24   S    
C6    C11   A    
C39   C40   S    
C40   H21   S    
C62   C63   A    
C9    C71   S    
C55   H36   S    
C29   C35   S    
C47   C52   A    
C13   C20   A    
C14   C19   A    
C45   H28   S    
C44   C45   A    
C36   H5    S    
C49   H31   S    
C40   H22   S    
C11   C12   A    
C2    O4    A    
C73   C74   A    
C25   C27   A    
C37   H18   S    
C26   C28   A    
C30   C36   S    
C61   H41   S    
C1    C4    S    
C38   H15   S    
C13   C15   A    
C2    C3    S    
C48   C49   A    
C8    H9    S    
C14   C47   S    
C65   C70   A    
C29   C31   A    
C3    C10   A    
C2    O2    A    
C7    H10   S    
C30   C32   A    
C67   H46   S    
C58   H39   S    
C63   H43   S    
C41   C46   A    
C17   N2    A    
C28   C30   A    
C51   C52   A    
C17   C19   A    
C75   H53   S    
C68   H47   S    
C14   C16   A    
C23   C25   A    
C1    O1    A    
C56   C57   A    
C15   H2    S    
C16   H1    S    
C43   C44   A    
Cu1   O1    S    
C40   H20   S    
Cu2   O2    S    
C47   C48   A    
C64   H44   S    
C39   H23   S    
C66   C67   A    
Cu1   O8    S    
C57   H38   S    
C4    C9    A    
C52   H34   S    
C38   H16   S    
C68   C69   A    
