data_mof_unit_32502.cif
_audit_creation_date              2012-12-11T15:23:29-0500
_audit_creation_method            fapswitch 2.2
_symmetry_space_group_name_H-M    P1
_symmetry_Int_Tables_number       1
_space_group_crystal_system       triclinic
_cell_length_a                    6.928992
_cell_length_b                    17.528565
_cell_length_c                    19.327854
_cell_angle_alpha                 109.629135
_cell_angle_beta                  90.298344
_cell_angle_gamma                 90.519442
_cell_volume                      2210.87520345

loop_
_atom_site_label
_atom_site_type_symbol
_atom_type_description
_atom_site_fract_x
_atom_site_fract_y
_atom_site_fract_z
_atom_type_partial_charge
O1    O     O_R   0.505810 0.439670 0.562310 -0.529478
O2    O     O_R   0.169070 0.404920 0.411210 -0.542631
O3    O     O_R   0.005550 0.560330 0.437690 -0.543255
C1    C     C_R   0.338317 0.381349 0.383114 0.687610
O4    O     O_R   0.175650 0.430000 0.560110 -0.538440
O5    O     O_R   0.012170 0.585580 0.587650 -0.539024
C2    C     C_R   0.344198 0.414746 0.581696 0.715697
O6    O     O_R   0.499180 0.414420 0.412350 -0.542522
O7    O     O_3   0.341430 0.551020 0.508860 -0.365645
V1    V     V_3+5 0.063930 0.490540 0.498360 1.427745
O8    O     O_R   0.682850 0.595080 0.588790 -0.529736
C3    C     C_R   0.852708 0.617778 0.617258 0.691724
O9    O     O_R   0.676280 0.570000 0.439890 -0.542240
C4    C     C_R   0.844995 0.584821 0.418032 0.703606
V2    V     V_3+5 0.564760 0.509460 0.501640 1.440900
O10   O     O_3   0.837130 0.448980 0.491140 -0.364088
C5    C     C_R   0.756145 0.866324 0.173090 -0.242154
C6    C     C_R   0.917247 0.860636 0.127607 -0.132444
C7    C     C_R   0.066516 0.805335 0.128364 0.151403
C8    C     C_R   0.053634 0.758949 0.175673 0.063442
C9    C     C_R   0.892429 0.766961 0.221805 -0.008416
C10   C     C_R   0.742934 0.820414 0.220013 0.105932
C11   C     C_R   0.200151 0.704600 0.177839 -0.193734
C12   C     C_R   0.189971 0.659212 0.225402 0.170053
C13   C     C_R   0.030272 0.668219 0.272444 0.078693
C14   C     C_R   0.880398 0.721521 0.270000 0.004766
C15   C     C_R   0.718129 0.729605 0.315896 0.118294
C16   C     C_R   0.570417 0.782821 0.313300 -0.160314
C17   C     C_R   0.582624 0.827728 0.265801 -0.181139
C18   C     C_R   0.017288 0.625103 0.322011 -0.200563
C19   C     C_R   0.855943 0.632477 0.367492 -0.109051
C20   C     C_R   0.705908 0.684376 0.363577 -0.184594
H1    H     H_    0.641327 0.907914 0.172988 0.128516
H2    H     H_    0.324641 0.697233 0.142649 0.172156
H3    H     H_    0.131809 0.584562 0.324804 0.156990
H4    H     H_    0.580752 0.690457 0.398382 0.130027
H5    H     H_    0.444749 0.789538 0.347903 0.130030
H6    H     H_    0.466155 0.868222 0.264833 0.126039
C21   C     C_3   0.757252 0.807446 0.750496 -0.126030
C22   C     C_3   0.920026 0.775455 0.693274 -0.184353
H7    H     H_    0.948820 0.796111 0.645911 0.110389
H8    H     H_    0.649690 0.854197 0.751011 0.103057
C23   C     C_3   0.868058 0.687827 0.687886 -0.021924
C24   C     C_3   0.710491 0.719755 0.744857 0.264221
C25   C     C_3   0.851045 0.724250 0.807829 -0.209242
C26   C     C_3   0.013069 0.692529 0.750280 -0.145291
C27   C     C_3   0.065526 0.780868 0.756191 -0.095494
C28   C     C_3   0.902875 0.811689 0.812583 -0.054223
H9    H     H_    0.820277 0.703363 0.854919 0.113018
H10   H     H_    0.117549 0.644776 0.749792 0.123305
H11   H     H_    0.213072 0.807456 0.761293 0.126650
C29   C     C_3   0.509068 0.243986 0.301885 -0.180351
C30   C     C_3   0.354872 0.179448 0.261045 -0.197855
H12   H     H_    0.330187 0.120780 0.269950 0.115948
H13   H     H_    0.612398 0.239054 0.344238 0.117766
C31   C     C_3   0.414498 0.189338 0.187495 -0.027236
C32   C     C_3   0.563429 0.253430 0.228136 0.407465
C33   C     C_3   0.415779 0.321393 0.238980 -0.225004
C34   C     C_3   0.262194 0.256448 0.198415 -0.153676
C35   C     C_3   0.202624 0.247068 0.272589 -0.082164
C36   C     C_3   0.356419 0.310941 0.312371 -0.068167
H14   H     H_    0.442252 0.379847 0.229866 0.116710
H15   H     H_    0.160822 0.261464 0.155517 0.147854
H16   H     H_    0.053247 0.244157 0.291985 0.136699
C37   C     C_R   0.559692 0.134019 0.821838 -0.231377
C38   C     C_R   0.416890 0.140727 0.874794 -0.172928
C39   C     C_R   0.263965 0.196268 0.881630 0.292953
C40   C     C_R   0.250971 0.239857 0.832178 0.079070
C41   C     C_R   0.394217 0.231369 0.778240 0.015998
C42   C     C_R   0.549099 0.178601 0.773778 0.071774
C43   C     C_R   0.097917 0.293022 0.836491 -0.173284
C44   C     C_R   0.086825 0.337286 0.788863 -0.163378
C45   C     C_R   0.227726 0.329581 0.734753 0.103418
C46   C     C_R   0.382480 0.275760 0.728869 -0.110594
C47   C     C_R   0.523838 0.265500 0.673626 0.053535
C48   C     C_R   0.679293 0.211851 0.670342 0.235246
C49   C     C_R   0.690373 0.169875 0.720491 -0.256322
C50   C     C_R   0.214669 0.374792 0.686883 0.129727
C51   C     C_R   0.352555 0.364217 0.630401 -0.242195
C52   C     C_R   0.503251 0.307255 0.622421 0.308149
H17   H     H_    0.677375 0.092126 0.816721 0.143745
H18   H     H_    0.985160 0.300789 0.876810 0.179061
H19   H     H_    0.965215 0.377228 0.794508 0.169301
H20   H     H_    0.810291 0.129462 0.717075 0.129579
O11   O     O_R   0.271890 0.085690 0.087580 -0.542133
O12   O     O_R   0.595690 0.070020 0.939870 -0.534073
O13   O     O_R   0.758900 0.914390 0.912370 -0.541869
C53   C     C_R   0.426558 0.087393 0.920344 0.704418
O14   O     O_R   0.602020 0.095100 0.088770 -0.519029
O15   O     O_R   0.765280 0.939660 0.062330 -0.541401
C54   C     C_R   0.432750 0.118829 0.116778 0.690178
O16   O     O_R   0.265520 0.060430 0.937620 -0.533013
O17   O     O_3   0.429560 0.949050 0.991100 -0.378516
V3    V     V_3+5 0.707160 0.009450 0.001650 1.465514
O18   O     O_R   0.094540 0.929890 0.060190 -0.548774
C55   C     C_R   0.925989 0.912889 0.080354 0.707303
O19   O     O_R   0.088200 0.904800 0.911290 -0.545591
C56   C     C_R   0.918264 0.881872 0.883014 0.685313
V4    V     V_3+5 0.206300 0.990390 0.998440 1.413314
O20   O     O_3   0.934030 0.050940 0.008900 -0.350880
N1    N     N_3   0.515862 0.686161 0.738733 -0.671455
H21   H     H_    0.448327 0.714747 0.788861 0.214674
H22   H     H_    0.527762 0.625147 0.733745 0.216318
O21   O     O_3   0.752223 0.256196 0.203997 -0.652135
H23   H     H_    0.805952 0.309071 0.235676 0.271090
N2    N     N_3   0.229642 0.793639 0.080464 -0.684733
H24   H     H_    0.316456 0.845788 0.096955 0.246212
H25   H     H_    0.181352 0.781104 0.026393 0.232967
O22   O     O_3   0.128044 0.210519 0.936526 -0.645287
H26   H     H_    0.188875 0.202877 0.980166 0.287872
N3    N     N_3   0.062572 0.432856 0.697911 -0.677573
H27   H     H_    0.965506 0.413479 0.653743 0.275634
H28   H     H_    0.121541 0.489362 0.702134 0.218484
O23   O     O_3   0.629097 0.290354 0.564103 -0.612280
H29   H     H_    0.558111 0.293355 0.520482 0.281050
N4    N     N_3   0.827845 0.199181 0.616418 -0.590028
H30   H     H_    0.960859 0.213436 0.643670 0.228970
H31   H     H_    0.828322 0.137624 0.584957 0.220443
N5    N     N_3   0.342020 0.604121 0.226138 -0.676955
H32   H     H_    0.287272 0.545304 0.201858 0.221577
H33   H     H_    0.457335 0.610304 0.193662 0.236688

loop_
_geom_bond_atom_site_label_1
_geom_bond_atom_site_label_2
_ccdc_geom_bond_type
C33   H14   S    
C22   C27   S    
C9    C14   A    
C47   C48   A    
N1    H21   S    
C10   C17   A    
C6    C55   S    
C45   C46   A    
O18   C55   A    
C4    C19   S    
C1    O6    A    
O23   H29   S    
O11   C54   A    
C30   H12   S    
C31   C32   S    
C14   C15   A    
O17   V3    S    
C18   H3    S    
C20   H4    S    
C16   C17   A    
C3    C23   S    
C29   C36   S    
C38   C53   S    
C18   C19   A    
O12   C53   A    
C25   C28   S    
N2    H24   S    
C37   C42   A    
O13   V3    S    
O19   C56   A    
N4    H30   S    
C6    C7    A    
O14   V3    S    
O12   V3    S    
O8    V2    S    
C39   O22   S    
C31   C54   S    
C53   O16   A    
C40   C41   A    
C17   H6    S    
C45   C50   A    
C50   N3    S    
O1    V2    S    
C25   H9    S    
O14   C54   A    
C47   C52   A    
O17   V4    S    
C29   H13   S    
C43   H18   S    
C33   C36   S    
C38   C39   A    
C34   C35   S    
N1    H22   S    
O9    C4    A    
C42   C49   A    
C5    H1    S    
O21   H23   S    
O19   V4    S    
C30   C35   S    
O15   V3    S    
C21   H8    S    
N5    H33   S    
C46   C47   A    
C39   C40   A    
C27   C28   S    
C12   C13   A    
C21   C22   S    
O4    C2    A    
C50   C51   A    
C27   H11   S    
C49   H20   S    
C13   C14   A    
C25   C26   S    
C1    C36   S    
C35   C36   S    
O2    C1    A    
C23   C24   S    
O11   V4    S    
C37   H17   S    
C19   C20   A    
C8    C11   A    
V3    O20   S    
O8    C3    A    
C11   H2    S    
C22   C23   S    
C5    C6    A    
C41   C46   A    
N3    H28   S    
C48   C49   A    
N5    H32   S    
O3    C4    A    
C22   H7    S    
C52   O23   S    
O6    V2    S    
O9    V2    S    
O2    V1    S    
C29   C30   S    
C2    C51   S    
O7    V1    S    
C30   C31   S    
C13   C18   A    
C32   O21   S    
C26   C27   S    
C12   N5    S    
N3    H27   S    
C15   C20   A    
O1    C2    A    
C24   C25   S    
C44   C45   A    
O5    V1    S    
C24   N1    S    
C31   C34   S    
O15   C55   A    
C21   C24   S    
C28   C56   S    
C26   H10   S    
C34   H15   S    
C5    C10   A    
V4    O20   S    
C35   H16   S    
O13   C56   A    
C7    C8    A    
C33   C34   S    
O4    V1    S    
O3    V1    S    
V1    O10   S    
O22   H26   S    
O5    C3    A    
C32   C33   S    
N2    H25   S    
C16   H5    S    
C40   C43   A    
C48   N4    S    
N4    H31   S    
O18   V4    S    
O7    V2    S    
C41   C42   A    
C23   C26   S    
C44   H19   S    
C29   C32   S    
C11   C12   A    
C51   C52   A    
C7    N2    S    
C43   C44   A    
C8    C9    A    
C37   C38   A    
C15   C16   A    
C9    C10   A    
V2    O10   S    
O16   V4    S    
C21   C28   S    
