data_mof_unit_61204.cif
_audit_creation_date              2013-03-05T16:05:41-0500
_audit_creation_method            fapswitch 2.2
_symmetry_space_group_name_H-M    P1
_symmetry_Int_Tables_number       1
_space_group_crystal_system       triclinic
_cell_length_a                    30.22477
_cell_length_b                    30.443201
_cell_length_c                    24.587975
_cell_angle_alpha                 90.032417
_cell_angle_beta                  127.832828
_cell_angle_gamma                 89.997248
_cell_volume                      17868.7903516

loop_
_atom_site_label
_atom_site_type_symbol
_atom_site_description
_atom_site_fract_x
_atom_site_fract_y
_atom_site_fract_z
_atom_type_partial_charge
O1    O     O_R   0.822280 0.769280 0.499990 -0.542128
O2    O     O_R   0.177720 0.769280 0.500010 -0.536277
O3    O     O_R   0.322280 0.269280 0.499990 -0.538039
O4    O     O_R   0.677720 0.269280 0.500010 -0.540805
O5    O     O_R   0.769270 0.822280 0.499990 -0.604762
O6    O     O_R   0.230730 0.822280 0.500010 -0.606207
O7    O     O_R   0.269270 0.322280 0.499990 -0.605499
O8    O     O_R   0.730730 0.322280 0.500010 -0.605072
C1    C     C_R   0.810246 0.809943 0.499919 0.808600
C2    C     C_R   0.189618 0.809921 0.499833 0.811061
C3    C     C_R   0.310323 0.309920 0.500039 0.810362
C4    C     C_R   0.689712 0.309940 0.499999 0.809310
O9    O     O_R   0.726580 0.723490 0.400140 -0.538891
O10   O     O_R   0.273420 0.723490 0.599860 -0.530863
O11   O     O_R   0.226580 0.223490 0.400140 -0.534960
O12   O     O_R   0.773420 0.223490 0.599860 -0.539349
O13   O     O_R   0.673560 0.776500 0.400140 -0.574680
O14   O     O_R   0.326440 0.776500 0.599860 -0.587315
O15   O     O_R   0.173560 0.276500 0.400140 -0.587243
O16   O     O_R   0.826440 0.276500 0.599860 -0.573593
C5    C     C_R   0.683436 0.749588 0.367571 0.877920
C6    C     C_R   0.316511 0.749712 0.632724 0.859559
C7    C     C_R   0.183321 0.249536 0.367316 0.862303
C8    C     C_R   0.816597 0.249561 0.632451 0.876774
Cu1   Cu    Cu3+1 0.781380 0.718610 0.500000 1.183245
Cu2   Cu    Cu3+1 0.218620 0.718610 0.500000 1.199952
Cu3   Cu    Cu3+1 0.281380 0.218610 0.500000 1.196613
Cu4   Cu    Cu3+1 0.718620 0.218610 0.500000 1.183159
Cu5   Cu    Cu3+1 0.718600 0.781380 0.500000 1.054840
Cu6   Cu    Cu3+1 0.281400 0.781380 0.500000 1.051776
Cu7   Cu    Cu3+1 0.218600 0.281380 0.500000 1.050656
Cu8   Cu    Cu3+1 0.781400 0.281380 0.500000 1.056940
O17   O     O_R   0.730720 0.677700 0.500010 -0.539127
O18   O     O_R   0.269280 0.677700 0.499990 -0.534469
O19   O     O_R   0.230720 0.177700 0.500010 -0.531848
O20   O     O_R   0.769280 0.177700 0.499990 -0.540142
O21   O     O_R   0.677700 0.730710 0.500010 -0.549034
O22   O     O_R   0.322300 0.730710 0.499990 -0.545939
O23   O     O_R   0.177700 0.230710 0.500010 -0.546608
O24   O     O_R   0.822300 0.230710 0.499990 -0.548972
O25   O     O_R   0.826430 0.723490 0.599850 -0.535889
O26   O     O_R   0.173570 0.723490 0.400150 -0.522872
O27   O     O_R   0.326430 0.223490 0.599850 -0.521826
O28   O     O_R   0.673570 0.223490 0.400150 -0.536862
O29   O     O_R   0.773410 0.776490 0.599850 -0.593231
O30   O     O_R   0.226590 0.776490 0.400150 -0.595901
O31   O     O_R   0.273410 0.276490 0.599850 -0.597357
O32   O     O_R   0.726590 0.276490 0.400150 -0.591583
C9    C     C_R   0.689573 0.689971 0.499461 0.916084
C10   C     C_R   0.309224 0.690021 0.498125 0.899538
C11   C     C_R   0.190741 0.190019 0.501817 0.902236
C12   C     C_R   0.810455 0.189970 0.500601 0.914385
C13   C     C_R   0.816439 0.750271 0.632452 0.838302
C14   C     C_R   0.183758 0.750049 0.367600 0.846033
C15   C     C_R   0.316244 0.250133 0.632406 0.846371
C16   C     C_R   0.683601 0.250157 0.367562 0.838638
C17   C     C_R   0.625000 0.789794 0.257245 -0.248769
C18   C     C_R   0.388562 0.786547 0.744255 -0.246360
C19   C     C_R   0.113466 0.287320 0.256409 -0.249844
C20   C     C_R   0.876428 0.289399 0.743363 -0.247646
H1    H     H_    0.637225 0.819822 0.286984 0.202765
H2    H     H_    0.386353 0.814377 0.715232 0.211714
H3    H     H_    0.117626 0.315643 0.285933 0.212314
H4    H     H_    0.865509 0.319488 0.714111 0.202061
C21   C     C_R   0.589474 0.792164 0.185240 0.326307
C22   C     C_R   0.423439 0.789241 0.816257 0.322130
C23   C     C_R   0.076651 0.289637 0.184390 0.319995
C24   C     C_R   0.909406 0.291684 0.815240 0.329240
C25   C     C_R   0.573414 0.752918 0.146558 -0.219156
C26   C     C_R   0.426577 0.753304 0.855017 -0.215382
C27   C     C_R   0.070777 0.252769 0.145473 -0.218476
C28   C     C_R   0.923143 0.252589 0.853805 -0.215198
C29   C     C_R   0.593245 0.711915 0.180555 0.220697
C30   C     C_R   0.393143 0.715636 0.820268 0.221744
C31   C     C_R   0.102030 0.214208 0.179238 0.221572
C32   C     C_R   0.901757 0.211907 0.818821 0.226932
C33   C     C_R   0.629523 0.710199 0.253236 0.264493
C34   C     C_R   0.356343 0.714332 0.747754 0.269963
C35   C     C_R   0.139286 0.212526 0.251875 0.270569
C36   C     C_R   0.867115 0.210327 0.746301 0.259140
C37   C     C_R   0.645170 0.749490 0.291598 -0.211092
C38   C     C_R   0.354453 0.749802 0.709233 -0.217013
C39   C     C_R   0.144741 0.249323 0.290873 -0.218154
C40   C     C_R   0.854531 0.249414 0.708472 -0.208278
N1    N     N_R   0.482031 0.738726 0.035851 -0.139176
N2    N     N_R   0.447435 0.739052 0.967327 -0.138891
N3    N     N_R   0.985456 0.227956 0.034913 -0.140893
N4    N     N_R   0.950673 0.228016 0.966381 -0.133769
C41   C     C_R   0.464696 0.754504 0.931314 0.526823
C42   C     C_R   0.535050 0.754179 0.070883 0.541688
C43   C     C_R   0.961060 0.253648 0.930160 0.521536
C44   C     C_R   0.031709 0.253818 0.069769 0.539408
N5    N     N_R   0.517892 0.769917 0.966584 -0.137473
N6    N     N_R   0.552415 0.769924 0.035194 -0.144045
N7    N     N_R   0.007558 0.279419 0.965273 -0.137915
N8    N     N_R   0.042173 0.279637 0.033872 -0.144069
C45   C     C_3   0.876300 0.879911 0.555220 -0.272547
C46   C     C_3   0.131733 0.884049 0.451952 -0.266886
C47   C     C_3   0.368510 0.383910 0.548163 -0.268003
C48   C     C_3   0.624539 0.380371 0.445391 -0.270847
C49   C     C_3   0.854475 0.913014 0.496154 0.526985
C50   C     C_3   0.150950 0.912266 0.515271 0.533434
C51   C     C_3   0.349157 0.412292 0.484995 0.533124
C52   C     C_3   0.646117 0.412974 0.505043 0.527543
H5    H     H_    0.875898 0.884239 0.599743 0.174735
H6    H     H_    0.138434 0.891499 0.413298 0.181197
H7    H     H_    0.362044 0.391290 0.587055 0.181091
H8    H     H_    0.625656 0.385037 0.401476 0.175333
C53   C     C_3   0.906584 0.905013 0.500381 -0.176223
C54   C     C_3   0.093898 0.905463 0.499648 -0.174721
C55   C     C_3   0.406043 0.405447 0.500189 -0.173645
C56   C     C_3   0.593391 0.405047 0.499495 -0.176478
C57   C     C_3   0.929086 0.871425 0.559196 -0.268155
C58   C     C_3   0.073934 0.876681 0.436456 -0.279087
C59   C     C_3   0.426133 0.376484 0.563197 -0.280253
C60   C     C_3   0.571121 0.371961 0.440066 -0.268327
C61   C     C_3   0.896786 0.835381 0.503903 0.307773
C62   C     C_3   0.098147 0.836450 0.484621 0.302486
C63   C     C_3   0.401577 0.336393 0.514659 0.301499
C64   C     C_3   0.602512 0.335441 0.494617 0.308338
C65   C     C_3   0.875308 0.868656 0.446522 0.251262
C66   C     C_3   0.117141 0.865057 0.546233 0.255858
C67   C     C_3   0.382456 0.365181 0.453223 0.256736
C68   C     C_3   0.623757 0.368227 0.552590 0.251088
C69   C     C_3   0.822056 0.877000 0.440422 -0.320973
C70   C     C_3   0.175164 0.872010 0.563680 -0.321750
C71   C     C_3   0.324605 0.372167 0.436236 -0.321394
C72   C     C_3   0.677618 0.376486 0.560028 -0.322605
C73   C     C_3   0.844721 0.843548 0.499670 -0.206748
C74   C     C_3   0.155084 0.843465 0.500046 -0.209041
C75   C     C_3   0.344819 0.343451 0.499715 -0.209379
C76   C     C_3   0.655199 0.343540 0.500179 -0.206506
H9    H     H_    0.972957 0.869102 0.606967 0.225556
H10   H     H_    0.032322 0.878444 0.385042 0.220278
H11   H     H_    0.467857 0.378095 0.614500 0.220315
H12   H     H_    0.527447 0.370062 0.391801 0.224844
H13   H     H_    0.778392 0.878898 0.392145 0.193073
H14   H     H_    0.216448 0.869734 0.615395 0.191159
H15   H     H_    0.283212 0.370019 0.384618 0.192296
H16   H     H_    0.721065 0.377957 0.608785 0.190670
C77   C     C_R   0.833411 0.757008 0.744566 -0.281537
C78   C     C_R   0.168229 0.750150 0.256038 -0.273397
C79   C     C_R   0.331898 0.252441 0.743959 -0.276339
C80   C     C_R   0.667094 0.254159 0.255473 -0.279763
H17   H     H_    0.788606 0.760690 0.716221 0.227131
H18   H     H_    0.213305 0.750554 0.284764 0.219950
H19   H     H_    0.286825 0.253095 0.715199 0.221704
H20   H     H_    0.711972 0.257254 0.283824 0.225231
C81   C     C_R   0.868708 0.758552 0.816769 0.300622
C82   C     C_R   0.133438 0.747823 0.183897 0.299423
C83   C     C_R   0.366736 0.253909 0.816173 0.302933
C84   C     C_R   0.632204 0.252001 0.183334 0.297548
C85   C     C_R   0.927240 0.753326 0.853870 -0.224356
C86   C     C_R   0.074450 0.746133 0.146230 -0.220869
C87   C     C_R   0.425654 0.252783 0.853682 -0.224011
C88   C     C_R   0.573584 0.246714 0.146066 -0.220994
C89   C     C_R   0.949222 0.747399 0.817585 0.359548
C90   C     C_R   0.051793 0.744924 0.182341 0.360407
C91   C     C_R   0.448371 0.250905 0.817793 0.358159
C92   C     C_R   0.551540 0.241793 0.182545 0.360144
C93   C     C_R   0.913413 0.747905 0.745069 0.392280
C94   C     C_R   0.087410 0.748683 0.254753 0.390226
C95   C     C_R   0.412792 0.251546 0.745292 0.395399
C96   C     C_R   0.587103 0.245382 0.254973 0.387224
C97   C     C_R   0.855057 0.751312 0.708423 -0.237543
C98   C     C_R   0.145843 0.749870 0.291706 -0.224895
C99   C     C_R   0.354321 0.250851 0.708295 -0.227076
C100  C     C_R   0.645284 0.250193 0.291591 -0.234541
N9    N     N_R   0.012884 0.776302 0.966818 -0.135772
N10   N     N_R   0.988825 0.723069 0.032729 -0.183562
N11   N     N_R   0.508548 0.279013 0.966433 -0.137043
N12   N     N_R   0.490235 0.220742 0.032816 -0.184497
N13   N     N_R   0.047444 0.774508 0.035374 -0.155270
N14   N     N_R   0.954144 0.724964 0.964221 -0.186660
N15   N     N_R   0.543283 0.277504 0.034994 -0.154130
N16   N     N_R   0.455370 0.222331 0.964286 -0.182091
C101  C     C_R   0.036227 0.747730 0.069756 0.527710
C102  C     C_R   0.965455 0.751698 0.929982 0.508019
C103  C     C_R   0.534971 0.248209 0.069609 0.527855
C104  C     C_R   0.463824 0.251555 0.929811 0.508306
C105  C     C_3   0.592380 0.647168 0.440385 0.236309
C106  C     C_3   0.390953 0.631759 0.561397 0.215680
C107  C     C_3   0.108656 0.131941 0.438534 0.216534
C108  C     C_3   0.907836 0.147562 0.559332 0.235317
C109  C     C_3   0.580763 0.643943 0.493344 -0.331830
C110  C     C_3   0.429303 0.638362 0.540348 -0.318632
C111  C     C_3   0.070765 0.138478 0.460268 -0.320053
C112  C     C_3   0.918835 0.143966 0.505825 -0.331246
H21   H     H_    0.545091 0.658964 0.488622 0.156638
H22   H     H_    0.473947 0.648557 0.574909 0.178843
H23   H     H_    0.026163 0.148776 0.426149 0.178853
H24   H     H_    0.954151 0.159018 0.509776 0.156682
C113  C     C_3   0.594067 0.594079 0.499824 -0.235729
C114  C     C_3   0.406159 0.594389 0.499940 -0.236014
C115  C     C_3   0.093883 0.094385 0.500192 -0.236374
C116  C     C_3   0.905949 0.094059 0.500256 -0.235719
C117  C     C_3   0.604406 0.597808 0.446293 0.248300
C118  C     C_3   0.369246 0.588099 0.522497 0.261461
C119  C     C_3   0.130363 0.088167 0.477002 0.260784
C120  C     C_3   0.896221 0.098166 0.554309 0.248384
C121  C     C_3   0.666377 0.606336 0.504370 0.220676
C122  C     C_3   0.321552 0.612215 0.457610 0.208922
C123  C     C_3   0.178390 0.112100 0.541934 0.209336
C124  C     C_3   0.834070 0.106291 0.496629 0.220578
C125  C     C_3   0.657184 0.601969 0.559329 -0.281085
C126  C     C_3   0.357718 0.618342 0.433424 -0.299810
C127  C     C_3   0.142657 0.118145 0.566750 -0.298149
C128  C     C_3   0.842650 0.101531 0.441166 -0.281115
C129  C     C_3   0.644025 0.651747 0.551549 0.474811
C130  C     C_3   0.380106 0.661944 0.474448 0.488806
C131  C     C_3   0.120300 0.161871 0.526175 0.488280
C132  C     C_3   0.855411 0.151361 0.448048 0.475508
C133  C     C_3   0.654813 0.655973 0.498211 -0.268655
C134  C     C_3   0.342734 0.656098 0.496794 -0.266559
C135  C     C_3   0.157227 0.156100 0.503165 -0.266803
C136  C     C_3   0.845233 0.155966 0.501905 -0.268257
H25   H     H_    0.683541 0.583058 0.608080 0.204512
H26   H     H_    0.344017 0.612793 0.380491 0.208279
H27   H     H_    0.156674 0.112426 0.619780 0.208508
H28   H     H_    0.816141 0.082270 0.392745 0.204501
O33   O     O_R   0.425350 0.545750 0.442230 -0.587996
O34   O     O_R   0.574650 0.545750 0.557770 -0.604132
O35   O     O_R   0.925350 0.045750 0.442230 -0.604133
O36   O     O_R   0.074650 0.045750 0.557770 -0.588259
O37   O     O_R   0.483150 0.545730 0.557820 -0.563603
O38   O     O_R   0.516850 0.545730 0.442180 -0.556286
O39   O     O_R   0.983150 0.045730 0.557820 -0.556004
O40   O     O_R   0.016850 0.045730 0.442180 -0.563268
C137  C     C_R   0.440083 0.560315 0.500072 0.886939
C138  C     C_R   0.560220 0.560038 0.499943 0.869985
C139  C     C_R   0.939780 0.060026 0.500084 0.869683
C140  C     C_R   0.059920 0.060322 0.499967 0.887591
O41   O     O_R   0.925350 0.954170 0.442210 -0.566647
O42   O     O_R   0.074650 0.954170 0.557790 -0.564787
O43   O     O_R   0.425350 0.454170 0.442210 -0.564647
O44   O     O_R   0.574650 0.454170 0.557790 -0.566811
O45   O     O_R   0.983160 0.954150 0.557800 -0.562908
O46   O     O_R   0.016840 0.954150 0.442200 -0.561360
O47   O     O_R   0.483160 0.454150 0.557800 -0.561421
O48   O     O_R   0.516840 0.454150 0.442200 -0.563246
C141  C     C_R   0.940000 0.939580 0.500063 0.899402
C142  C     C_R   0.060281 0.939855 0.499934 0.912778
C143  C     C_R   0.439707 0.439850 0.500027 0.912721
C144  C     C_R   0.560007 0.439603 0.499903 0.900047
Cu9   Cu    Cu3+1 0.965810 0.999960 0.431560 1.097098
Cu10  Cu    Cu3+1 0.034190 0.999960 0.568440 1.123638
Cu11  Cu    Cu3+1 0.465810 0.499960 0.431560 1.123783
Cu12  Cu    Cu3+1 0.534190 0.499960 0.568440 1.096193
N17   N     N_R   0.844521 0.766663 0.851205 0.160921
O49   O     O_R   0.869276 0.792772 0.904230 -0.286769
O50   O     O_R   0.794162 0.752864 0.824188 -0.312997
N18   N     N_R   0.158895 0.744990 0.150194 0.162022
O51   O     O_R   0.140525 0.716696 0.100870 -0.309029
O52   O     O_R   0.205613 0.765560 0.175616 -0.285466
N19   N     N_R   0.341581 0.257902 0.850173 0.161542
O53   O     O_R   0.363416 0.283786 0.903061 -0.286634
O54   O     O_R   0.292733 0.240512 0.822804 -0.292173
N20   N     N_R   0.657409 0.252950 0.149223 0.158277
O55   O     O_R   0.641350 0.225316 0.099833 -0.319971
O56   O     O_R   0.702106 0.276442 0.174374 -0.296285
O57   O     O_3   0.006319 0.742823 0.852957 -0.542884
C145  C     C_3   0.019210 0.697637 0.861596 -0.114629
H29   H     H_    0.998458 0.680851 0.811134 0.184436
H30   H     H_    0.007653 0.681323 0.891817 0.140322
H31   H     H_    0.065103 0.693916 0.890868 0.216158
O58   O     O_3   0.994306 0.744926 0.146348 -0.547593
C146  C     C_3   0.977340 0.702633 0.150338 -0.095141
H32   H     H_    0.991518 0.695466 0.203133 0.198492
H33   H     H_    0.992479 0.676628 0.133449 0.148728
H34   H     H_    0.930902 0.701398 0.115236 0.204658
O59   O     O_3   0.505781 0.250435 0.853534 -0.544335
C147  C     C_3   0.523343 0.206387 0.862050 -0.110593
H35   H     H_    0.504545 0.190285 0.811552 0.187270
H36   H     H_    0.513366 0.187301 0.891912 0.141508
H37   H     H_    0.569493 0.205904 0.891639 0.213480
O60   O     O_3   0.494268 0.238123 0.146903 -0.546018
C148  C     C_3   0.481401 0.194200 0.150691 -0.098626
H38   H     H_    0.496332 0.185807 0.203452 0.195925
H39   H     H_    0.498876 0.170586 0.133681 0.146360
H40   H     H_    0.435205 0.190272 0.115596 0.207921
O61   O     O_3   0.935834 0.743442 0.710401 -0.544443
C149  C     C_3   0.946864 0.785736 0.697918 -0.143955
H41   H     H_    0.978194 0.803451 0.746925 0.187195
H42   H     H_    0.907809 0.805475 0.664827 0.097741
H43   H     H_    0.964728 0.782293 0.669978 0.223570
O62   O     O_3   0.064601 0.751264 0.289164 -0.552666
C150  C     C_3   0.057009 0.795993 0.296504 -0.167374
H44   H     H_    0.028874 0.812620 0.245630 0.188517
H45   H     H_    0.097824 0.813548 0.329877 0.107816
H46   H     H_    0.036820 0.798215 0.321732 0.224902
O63   O     O_3   0.435696 0.251994 0.710926 -0.542182
C151  C     C_3   0.442897 0.296150 0.700476 -0.155281
H47   H     H_    0.471043 0.314150 0.750131 0.187700
H48   H     H_    0.401934 0.313365 0.666096 0.101350
H49   H     H_    0.462896 0.296770 0.674951 0.225648
O64   O     O_3   0.564554 0.243589 0.289760 -0.554525
C152  C     C_3   0.553350 0.286844 0.298776 -0.157814
H50   H     H_    0.522400 0.303277 0.248388 0.188343
H51   H     H_    0.592401 0.306712 0.330892 0.104500
H52   H     H_    0.534928 0.285466 0.326248 0.222624
N21   N     N_R   0.556102 0.671209 0.375787 0.184064
O65   O     O_R   0.503081 0.661617 0.333296 -0.275020
O66   O     O_R   0.575391 0.704064 0.362247 -0.316210
N22   N     N_R   0.409336 0.639806 0.630879 0.165096
O67   O     O_R   0.415776 0.607279 0.669396 -0.213719
O68   O     O_R   0.424258 0.679159 0.656770 -0.333335
N23   N     N_R   0.089621 0.140178 0.368833 0.167431
O69   O     O_R   0.082296 0.107723 0.329657 -0.212297
O70   O     O_R   0.074550 0.179585 0.343295 -0.333910
N24   N     N_R   0.944294 0.172032 0.623522 0.183981
O71   O     O_R   0.997452 0.162864 0.665539 -0.276149
O72   O     O_R   0.924914 0.204711 0.637274 -0.313035
N25   N     N_R   0.583786 0.567124 0.389834 0.177483
O73   O     O_R   0.553891 0.581016 0.326602 -0.211196
O74   O     O_R   0.597053 0.525782 0.402857 -0.291109
N26   N     N_R   0.362638 0.548184 0.549581 0.179973
O75   O     O_R   0.324405 0.546441 0.558360 -0.271942
O76   O     O_R   0.398875 0.516493 0.572809 -0.305883
N27   N     N_R   0.136655 0.048334 0.449404 0.180056
O77   O     O_R   0.174359 0.046750 0.439714 -0.269063
O78   O     O_R   0.101102 0.016237 0.427582 -0.306850
N28   N     N_R   0.917492 0.067874 0.611336 0.177634
O79   O     O_R   0.947854 0.082182 0.674399 -0.214070
O80   O     O_R   0.904401 0.026462 0.599028 -0.290208
N29   N     N_R   0.712195 0.585812 0.509177 0.164887
O81   O     O_R   0.753560 0.567869 0.566605 -0.341384
O82   O     O_R   0.712446 0.586087 0.456479 -0.246353
N30   N     N_R   0.263948 0.596408 0.411558 0.171464
O83   O     O_R   0.253946 0.557368 0.384880 -0.302923
O84   O     O_R   0.222280 0.622833 0.389461 -0.320108
N31   N     N_R   0.235928 0.096138 0.587506 0.171647
O85   O     O_R   0.245846 0.057096 0.614077 -0.304663
O86   O     O_R   0.277674 0.122484 0.609590 -0.317869
N32   N     N_R   0.788728 0.085760 0.492856 0.164473
O87   O     O_R   0.789080 0.086411 0.546006 -0.246084
O88   O     O_R   0.746985 0.067711 0.435743 -0.341441
N33   N     N_R   0.569561 0.834550 0.152675 0.157535
O89   O     O_R   0.519000 0.839325 0.095683 -0.278323
O90   O     O_R   0.599816 0.869478 0.183876 -0.294947
N34   N     N_R   0.453388 0.829457 0.848753 0.153133
O91   O     O_R   0.472855 0.852209 0.822814 -0.287572
O92   O     O_R   0.453618 0.846880 0.897273 -0.272695
N35   N     N_R   0.044958 0.329342 0.152030 0.157052
O93   O     O_R   0.993481 0.327762 0.095907 -0.276927
O94   O     O_R   0.065332 0.367022 0.182744 -0.295681
N36   N     N_R   0.926281 0.334147 0.847731 0.154419
O95   O     O_R   0.938031 0.365462 0.822432 -0.289691
O96   O     O_R   0.921401 0.343684 0.895437 -0.269972
O97   O     O_3   0.666889 0.682018 0.606150 -0.562987
C153  C     C_3   0.649438 0.670910 0.645936 -0.180843
H53   H     H_    0.664102 0.637554 0.668689 0.161511
H54   H     H_    0.603157 0.673367 0.615251 0.143806
H55   H     H_    0.668326 0.694611 0.689146 0.217079
O98   O     O_3   0.383113 0.702138 0.448337 -0.540102
C154  C     C_3   0.423528 0.698804 0.437266 -0.180468
H56   H     H_    0.414037 0.671370 0.401639 0.162071
H57   H     H_    0.466280 0.695053 0.486797 0.134704
H58   H     H_    0.423090 0.729658 0.412975 0.214525
O99   O     O_3   0.117695 0.201992 0.552839 -0.540535
C155  C     C_3   0.077690 0.198595 0.564581 -0.176288
H59   H     H_    0.087428 0.171109 0.600189 0.162919
H60   H     H_    0.034762 0.194886 0.515308 0.134212
H61   H     H_    0.078412 0.229406 0.589209 0.214582
O100  O     O_3   0.831932 0.181261 0.392944 -0.565086
C156  C     C_3   0.848766 0.169800 0.352607 -0.184850
H62   H     H_    0.834017 0.136338 0.330284 0.162880
H63   H     H_    0.894989 0.172298 0.382694 0.146243
H64   H     H_    0.829486 0.193260 0.309092 0.214023
N37   N     N_R   0.575666 0.671851 0.141372 0.171060
O101  O     O_R   0.555484 0.639713 0.155011 -0.203361
O102  O     O_R   0.579950 0.667248 0.092148 -0.265382
N38   N     N_R   0.398969 0.677369 0.858350 0.166468
O103  O     O_R   0.447536 0.658422 0.900103 -0.247852
O104  O     O_R   0.355718 0.660930 0.850657 -0.218936
N39   N     N_R   0.095591 0.176373 0.139858 0.170932
O105  O     O_R   0.086159 0.137882 0.153835 -0.206517
O106  O     O_R   0.099872 0.180120 0.090532 -0.264607
N40   N     N_R   0.918734 0.171630 0.856872 0.170931
O107  O     O_R   0.970429 0.158500 0.891916 -0.241014
O108  O     O_R   0.884234 0.150580 0.862430 -0.223859
N41   N     N_R   0.650379 0.668569 0.287561 0.174203
O109  O     O_R   0.674706 0.641811 0.272058 -0.233427
O110  O     O_R   0.643347 0.656579 0.332571 -0.264891
N42   N     N_R   0.323290 0.675732 0.713928 0.170016
O111  O     O_R   0.276950 0.670028 0.705908 -0.244902
O112  O     O_R   0.337420 0.647800 0.687005 -0.235128
N43   N     N_R   0.171972 0.173603 0.285224 0.171132
O113  O     O_R   0.204305 0.158725 0.271186 -0.243706
O114  O     O_R   0.166271 0.151095 0.325514 -0.240645
N44   N     N_R   0.847958 0.168642 0.711731 0.168752
O115  O     O_R   0.818187 0.142912 0.720058 -0.227623
O116  O     O_R   0.859413 0.156588 0.670836 -0.266952
O117  O     O_3   0.834922 0.955790 0.492501 -0.554696
C157  C     C_3   0.787362 0.953152 0.490376 -0.093849
H65   H     H_    0.797219 0.936962 0.537190 0.151015
H66   H     H_    0.752294 0.935933 0.443128 0.142614
H67   H     H_    0.773091 0.986918 0.489071 0.242496
O118  O     O_3   0.176660 0.953904 0.531860 -0.538442
C158  C     C_3   0.226858 0.950466 0.539889 -0.067310
H68   H     H_    0.218655 0.940660 0.490877 0.153600
H69   H     H_    0.256664 0.927245 0.581887 0.130055
H70   H     H_    0.247281 0.983150 0.554239 0.237635
O119  O     O_3   0.323655 0.453979 0.468890 -0.538798
C159  C     C_3   0.273381 0.450532 0.460676 -0.065144
H71   H     H_    0.281454 0.440493 0.509517 0.153123
H72   H     H_    0.243484 0.427490 0.418356 0.131604
H73   H     H_    0.253122 0.483268 0.446669 0.237692
O120  O     O_3   0.666393 0.455689 0.510134 -0.554544
C160  C     C_3   0.714313 0.452973 0.513021 -0.094262
H74   H     H_    0.704640 0.437373 0.465916 0.152035
H75   H     H_    0.748829 0.435140 0.559880 0.141373
H76   H     H_    0.729294 0.486694 0.515712 0.242401
N45   N     N_R   0.919387 0.792530 0.506267 0.174432
O121  O     O_R   0.969812 0.781618 0.558988 -0.267260
O122  O     O_R   0.890329 0.765975 0.453991 -0.252979
N46   N     N_R   0.069474 0.794568 0.470053 0.169973
O123  O     O_R   0.018736 0.789414 0.413663 -0.275981
O124  O     O_R   0.092160 0.763886 0.516601 -0.241551
N47   N     N_R   0.430018 0.294484 0.528505 0.168932
O125  O     O_R   0.481159 0.289363 0.584089 -0.273369
O126  O     O_R   0.406802 0.263895 0.481735 -0.244784
N48   N     N_R   0.579160 0.292630 0.490723 0.175176
O127  O     O_R   0.528922 0.282138 0.437063 -0.268406
O128  O     O_R   0.607332 0.265665 0.542504 -0.251342
N49   N     N_R   0.876872 0.862182 0.389033 0.171122
O129  O     O_R   0.830827 0.863224 0.326102 -0.283916
O130  O     O_R   0.924406 0.855168 0.400528 -0.276522
N50   N     N_R   0.107113 0.854752 0.595672 0.170256
O131  O     O_R   0.148967 0.850424 0.660632 -0.281612
O132  O     O_R   0.056140 0.850026 0.574959 -0.296393
N51   N     N_R   0.392139 0.355021 0.403413 0.170070
O133  O     O_R   0.350090 0.350890 0.338488 -0.282595
O134  O     O_R   0.442996 0.350224 0.423759 -0.294501
N52   N     N_R   0.621227 0.361312 0.609231 0.171215
O135  O     O_R   0.666856 0.361768 0.672502 -0.284599
O136  O     O_R   0.573232 0.354555 0.596634 -0.276505

loop_
_geom_bond_atom_site_label_1
_geom_bond_atom_site_label_2
_geom_bond_distance
_ccdc_geom_bond_type
N28   O80   1.300102 A    
N19   O54   1.301461 A    
C90   O58   1.384153 S    
N49   O129  1.300188 A    
C78   H18   1.083850 S    
C89   O57   1.383074 S    
O63   C151  1.410476 S    
O40   C140  1.281084 A    
C35   N43   1.435159 S    
N33   O89   1.301299 A    
C29   N37   1.438346 S    
O38   Cu11  1.973621 S    
N21   O65   1.300296 A    
C149  H41   1.113145 S    
C108  N24   1.457912 S    
C6    C38   1.485795 S    
C123  C135  1.537991 S    
C122  N30   1.458115 S    
C86   C90   1.415844 A    
C18   C38   1.402043 A    
C120  N28   1.457867 S    
C46   C58   1.559092 S    
O59   C147  1.409866 S    
C9    C133  1.461659 S    
O48   C144  1.281097 A    
N38   O103  1.301276 A    
Cu6   O22   1.976826 S    
C106  N22   1.456878 S    
C81   C85   1.416892 A    
C124  C128  1.543216 S    
N50   O132  1.300405 A    
C147  H35   1.112989 S    
C53   C141  1.461975 S    
C26   C30   1.416336 A    
C67   N51   1.456221 S    
C150  H45   1.112899 S    
C83   C87   1.417135 A    
O4    C4    1.289878 A    
C77   H17   1.083737 S    
C45   H5    1.110015 S    
C79   C83   1.403524 A    
C30   N38   1.436643 S    
N45   O122  1.300429 A    
C57   H9    1.110151 S    
Cu9   Cu10  2.658166 S    
C113  C138  1.457501 S    
Cu1   Cu5   2.692917 S    
N1    C42   1.355586 A    
N24   O72   1.299893 A    
N17   O50   1.301504 A    
Cu3   Cu7   2.692917 S    
Cu4   Cu8   2.693046 S    
N34   O91   1.301383 A    
Cu1   O25   1.949978 S    
C28   C43   1.483114 S    
N44   O116  1.300866 A    
O33   Cu11  1.974972 S    
Cu3   O19   1.973898 S    
C46   C50   1.545439 S    
Cu4   O28   1.950180 S    
O13   C5    1.301579 A    
Cu5   O29   1.950695 S    
O47   Cu12  1.974099 S    
C110  H22   1.110103 S    
O15   C7    1.305200 A    
C54   C142  1.461963 S    
O11   Cu3   1.950831 S    
C154  H56   1.112712 S    
C52   C72   1.546201 S    
C24   C28   1.416458 A    
O9    C5    1.300993 A    
O2    Cu2   1.976824 S    
C122  C134  1.537790 S    
C82   N18   1.438157 S    
C130  O98   1.410751 S    
O43   C143  1.281886 A    
C94   O62   1.383051 S    
N12   C103  1.358148 A    
O64   C152  1.410510 S    
O6    Cu6   1.973847 S    
C111  C131  1.548329 S    
O19   C11   1.291720 A    
N41   O109  1.301126 A    
C109  C129  1.550305 S    
N43   O113  1.301096 A    
C67   C71   1.543112 S    
C36   N44   1.436433 S    
C87   C104  1.478913 S    
N10   N14   1.331777 A    
C158  H69   1.112301 S    
C55   C143  1.461929 S    
C4    C76   1.462881 S    
N34   O92   1.301454 A    
O9    Cu1   1.950831 S    
N42   O112  1.299956 A    
N15   C103  1.358717 A    
N39   O105  1.301223 A    
C48   C76   1.549512 S    
C56   C68   1.528024 S    
C63   C67   1.521332 S    
O117  C157  1.408355 S    
C19   H3    1.083351 S    
C46   H6    1.110028 S    
C20   H4    1.083886 S    
N46   O123  1.300090 A    
C151  H48   1.112952 S    
C130  C134  1.539785 S    
C156  H62   1.112193 S    
O39   Cu10  1.973729 S    
C112  C132  1.550251 S    
C53   C65   1.528121 S    
C22   C26   1.415783 A    
N11   N15   1.332346 A    
C147  H37   1.109194 S    
O46   Cu9   1.974201 S    
C153  H53   1.112208 S    
C71   C75   1.550910 S    
O3    C3    1.289111 A    
C157  H65   1.112022 S    
C61   N45   1.457069 S    
C69   C73   1.551143 S    
C56   C144  1.461922 S    
C31   N39   1.438639 S    
C91   O59   1.383040 S    
C86   C101  1.485920 S    
C63   N47   1.457398 S    
O99   C155  1.408687 S    
C29   C33   1.412451 A    
O47   C143  1.281815 A    
C160  H74   1.111971 S    
C49   C53   1.532935 S    
O42   Cu10  1.974715 S    
N18   O51   1.301488 A    
O23   C11   1.292436 A    
N27   O78   1.299846 A    
O97   C153  1.408170 S    
O44   Cu12  1.974715 S    
C21   N33   1.441638 S    
N47   O125  1.300069 A    
C48   C52   1.544894 S    
O41   Cu9   1.975009 S    
N51   O134  1.300430 A    
N1    N2    1.330814 A    
O5    C1    1.295193 A    
C125  H25   1.110089 S    
N17   O49   1.301402 A    
N26   O76   1.299882 A    
O57   C145  1.409965 S    
C146  H34   1.109198 S    
N25   O74   1.300095 A    
C158  H68   1.111731 S    
C44   N8    1.356536 A    
O100  C156  1.408148 S    
C62   C66   1.521411 S    
N29   O82   1.300406 A    
C19   C23   1.400666 A    
N36   O96   1.301473 A    
C27   C44   1.471026 S    
C108  C120  1.531823 S    
C118  C122  1.530491 S    
O48   Cu11  1.974201 S    
C63   C75   1.533251 S    
C125  C129  1.548583 S    
C61   C73   1.532365 S    
C54   C58   1.547406 S    
C23   N35   1.441429 S    
O20   C12   1.290611 A    
C120  C124  1.527575 S    
N22   O68   1.300351 A    
O29   C13   1.301086 A    
C148  H38   1.110896 S    
C127  C131  1.548666 S    
C152  H51   1.112968 S    
C131  O99   1.410754 S    
C155  H59   1.112690 S    
C124  N32   1.456532 S    
C115  C119  1.532246 S    
C48   H8    1.110014 S    
C113  C125  1.553490 S    
C87   C91   1.413012 A    
C84   C88   1.418787 A    
C88   C92   1.415684 A    
Cu4   O20   1.973809 S    
C159  H71   1.111765 S    
C47   C51   1.545338 S    
C156  H64   1.109248 S    
C52   C56   1.532910 S    
C132  C136  1.538635 S    
N32   O87   1.300498 A    
O38   C138  1.280905 A    
C157  H67   1.107573 S    
C60   C64   1.541373 S    
C116  C128  1.553539 S    
C65   N49   1.456313 S    
C65   C69   1.543198 S    
C84   N20   1.438254 S    
C78   C98   1.398196 A    
C126  C130  1.548710 S    
C62   N46   1.457334 S    
N51   O133  1.300159 A    
N4    C43   1.358094 A    
O8    C4    1.295268 A    
C79   C99   1.399892 A    
C58   H10   1.110172 S    
C64   N48   1.457054 S    
C160  H76   1.107450 S    
O25   C13   1.301799 A    
O42   C142  1.282049 A    
C57   C61   1.541347 S    
O36   Cu10  1.975265 S    
C154  H57   1.111575 S    
Cu2   Cu6   2.693046 S    
C59   C63   1.541637 S    
N35   O94   1.301537 A    
N48   O127  1.300155 A    
C26   C41   1.482087 S    
Cu5   O21   1.976915 S    
C56   C60   1.547480 S    
N50   O131  1.300159 A    
Cu2   O26   1.950180 S    
O16   Cu8   1.950406 S    
O27   C15   1.301915 A    
O14   C6    1.306269 A    
C107  N23   1.456688 S    
C110  C114  1.553886 S    
C32   C36   1.409871 A    
N30   O83   1.300044 A    
N43   O114  1.300324 A    
C24   N36   1.438209 S    
C146  H32   1.110982 S    
O1    Cu1   1.976919 S    
C109  H21   1.109736 S    
C145  H29   1.112951 S    
C124  C136  1.537430 S    
C68   N52   1.456279 S    
Cu6   O30   1.950495 S    
C112  H24   1.109745 S    
O10   C6    1.301860 A    
O3    Cu3   1.976919 S    
N20   O55   1.301491 A    
C72   H16   1.110136 S    
C80   C84   1.402799 A    
C114  C118  1.532413 S    
C31   C35   1.411886 A    
N38   O104  1.300681 A    
C115  C140  1.456772 S    
C91   C95   1.408219 A    
C41   N5    1.358868 A    
C93   C97   1.408592 A    
C43   N7    1.359011 A    
N16   C104  1.357163 A    
O60   C148  1.411556 S    
O34   C138  1.281034 A    
C149  H43   1.108753 S    
C147  H36   1.113447 S    
O98   C154  1.408689 S    
C148  H40   1.109201 S    
C121  C125  1.543279 S    
C105  C133  1.537058 S    
C119  N27   1.457557 S    
C155  H61   1.109120 S    
N12   N16   1.331892 A    
Cu1   O17   1.973898 S    
N37   O102  1.301266 A    
C18   H2    1.083388 S    
N3    N4    1.330980 A    
C128  H28   1.110088 S    
N45   O121  1.300148 A    
O13   Cu5   1.950207 S    
N9    C102  1.357572 A    
O39   C139  1.280958 A    
C48   C60   1.558880 S    
C159  H73   1.108295 S    
C15   C99   1.473899 S    
C36   C40   1.411747 A    
O15   Cu7   1.950207 S    
C145  H31   1.109191 S    
N52   O135  1.300174 A    
O35   Cu9   1.974975 S    
C7    C39   1.484569 S    
C92   C96   1.410792 A    
C83   N19   1.439210 S    
N47   O126  1.300382 A    
C19   C39   1.402882 A    
C66   N50   1.456184 S    
C47   C59   1.559267 S    
C93   O61   1.383039 S    
C108  C136  1.536995 S    
C70   C74   1.550863 S    
O17   C9    1.290658 A    
C12   C136  1.461583 S    
C33   N41   1.436767 S    
C51   C55   1.533400 S    
C106  C110  1.545300 S    
C94   C98   1.406234 A    
O34   Cu12  1.975262 S    
C118  N26   1.457405 S    
N7    N8    1.332226 A    
C25   C29   1.415151 A    
C92   O60   1.384170 S    
N14   C102  1.357140 A    
C80   H20   1.083843 S    
C68   C72   1.543245 S    
C32   N40   1.433318 S    
O37   Cu12  1.973729 S    
N28   O79   1.299973 A    
C105  C117  1.531897 S    
Cu7   O31   1.950695 S    
N3    C44   1.355849 A    
C119  C123  1.530616 S    
N49   O130  1.300565 A    
C114  C137  1.457110 S    
C14   C98   1.473840 S    
N33   O90   1.301561 A    
O35   C139  1.280973 A    
C42   N6    1.356739 A    
N21   O66   1.299885 A    
C81   N17   1.439272 S    
N10   C101  1.358079 A    
C55   C67   1.527420 S    
N23   O69   1.300179 A    
O1    C1    1.289927 A    
C123  N31   1.458148 S    
C153  H55   1.109253 S    
C50   C70   1.545044 S    
C22   N34   1.438244 S    
O37   C137  1.281026 A    
N46   O124  1.300386 A    
O7    C3    1.295890 A    
N31   O85   1.299994 A    
C2    C74   1.462515 S    
C62   C74   1.533039 S    
C107  C111  1.545107 S    
O21   C9    1.293452 A    
O28   C16   1.300706 A    
C150  H44   1.113476 S    
C96   C100  1.407868 A    
C46   C74   1.549431 S    
C150  H46   1.107257 S    
C51   O119  1.409819 S    
C153  H54   1.112190 S    
C121  C133  1.537453 S    
C157  H66   1.112072 S    
C13   C97   1.475807 S    
C1    C73   1.462991 S    
C110  C130  1.548397 S    
C50   C54   1.533409 S    
N40   O108  1.300644 A    
C89   C93   1.408381 A    
C96   O64   1.383556 S    
N18   O52   1.301402 A    
C11   C135  1.461084 S    
N24   O71   1.300299 A    
C149  H42   1.113007 S    
C17   C21   1.400289 A    
N2    C41   1.358228 A    
C121  N29   1.456525 S    
O6    C2    1.295776 A    
N44   O115  1.300507 A    
C60   H12   1.110152 S    
O45   C141  1.281167 A    
C47   H7    1.110029 S    
C69   H13   1.110148 S    
C77   C97   1.400328 A    
C78   C82   1.403157 A    
O36   C140  1.280419 A    
C54   C66   1.527416 S    
C35   C39   1.416475 A    
C146  H33   1.114121 S    
N25   O73   1.299981 A    
Cu8   O32   1.950495 S    
C21   C25   1.414260 A    
O45   Cu10  1.974099 S    
C23   C27   1.413273 A    
C85   C89   1.413125 A    
N29   O81   1.300201 A    
C129  C133  1.538700 S    
N27   O77   1.300315 A    
Cu3   O27   1.949978 S    
C115  C127  1.553670 S    
O120  C160  1.408383 S    
C20   C24   1.400247 A    
C30   C34   1.408843 A    
O33   C137  1.280636 A    
N41   O110  1.300843 A    
N26   O75   1.300313 A    
C95   O63   1.382391 S    
O12   Cu4   1.950630 S    
C158  H70   1.108172 S    
C131  C135  1.539890 S    
N35   O93   1.301328 A    
N5    N6    1.332395 A    
C152  H50   1.113197 S    
O119  C159  1.408663 S    
C106  C118  1.529957 S    
C116  C120  1.532206 S    
N42   O111  1.300723 A    
C155  H60   1.111557 S    
C77   C81   1.403076 A    
C126  H26   1.110211 S    
C79   H19   1.083776 S    
C59   H11   1.110174 S    
C80   C100  1.398601 A    
C151  H47   1.113441 S    
C132  O100  1.410579 S    
C159  H72   1.112266 S    
C156  H63   1.112197 S    
O62   C150  1.410634 S    
C88   C103  1.485569 S    
N32   O88   1.300582 A    
C10   C134  1.460799 S    
C117  N25   1.457862 S    
N19   O53   1.301396 A    
C17   H1    1.083830 S    
C34   C38   1.414624 A    
C61   C65   1.521905 S    
C107  C119  1.530057 S    
C18   C22   1.400974 A    
O16   C8    1.302484 A    
C117  C121  1.527549 S    
O14   Cu6   1.950406 S    
C33   C37   1.412679 A    
C160  H75   1.112076 S    
C111  H23   1.110116 S    
C128  C132  1.548653 S    
C52   O120  1.409972 S    
O11   C7    1.302214 A    
O12   C8    1.300644 A    
N48   O128  1.300423 A    
O30   C14   1.301055 A    
C71   H15   1.110138 S    
C129  O97   1.410579 S    
C49   O117  1.409998 S    
C72   C76   1.551071 S    
O43   Cu11  1.975009 S    
O4    Cu4   1.976824 S    
Cu2   O18   1.973809 S    
O5    Cu5   1.973944 S    
N39   O106  1.301296 A    
C114  C126  1.553716 S    
O18   C10   1.291653 A    
O7    Cu7   1.973944 S    
O8    Cu8   1.973847 S    
O26   C14   1.300859 A    
N30   O84   1.299787 A    
C105  C109  1.545802 S    
C145  H30   1.113398 S    
O40   Cu9   1.973621 S    
C50   O118  1.409875 S    
O61   C149  1.410399 S    
O24   C12   1.293543 A    
C123  C127  1.542996 S    
O10   Cu2   1.950630 S    
C108  C112  1.545882 S    
N23   O70   1.300371 A    
C66   C70   1.543187 S    
C95   C99   1.406783 A    
C49   C69   1.546352 S    
C116  C139  1.457478 S    
N13   C101  1.358907 A    
C34   N42   1.431906 S    
C16   C100  1.475376 S    
C107  C135  1.535686 S    
C105  N21   1.457938 S    
C28   C32   1.417178 A    
N31   O86   1.299757 A    
C58   C62   1.541587 S    
O41   C141  1.282512 A    
N22   O67   1.300096 A    
C5    C37   1.475421 S    
C148  H39   1.114132 S    
C82   C86   1.418964 A    
C152  H52   1.108827 S    
C17   C37   1.400009 A    
N11   C104  1.357569 A    
C45   C57   1.558965 S    
C25   C42   1.470241 S    
O2    C2    1.289223 A    
N20   O56   1.301409 A    
C51   C71   1.545056 S    
O31   C15   1.300016 A    
N37   O101  1.301237 A    
O32   C16   1.301976 A    
C85   C102  1.478965 S    
C70   H14   1.110138 S    
N9    N13   1.332524 A    
C111  C115  1.553614 S    
C64   C76   1.532383 S    
C151  H49   1.106830 S    
C109  C113  1.553406 S    
C3    C75   1.462697 S    
N52   O136  1.300529 A    
Cu11  Cu12  2.658166 S    
O22   C10   1.292449 A    
C53   C57   1.547403 S    
O46   C142  1.281667 A    
C127  H27   1.110208 S    
C47   C75   1.549498 S    
O44   C144  1.282552 A    
C8    C40   1.476323 S    
C45   C73   1.549571 S    
C27   C31   1.413713 A    
C20   C40   1.399325 A    
N36   O95   1.301398 A    
N40   O107  1.300889 A    
C113  C117  1.532216 S    
Cu7   O23   1.976915 S    
Cu8   O24   1.976826 S    
O58   C146  1.411473 S    
C90   C94   1.410869 A    
C154  H58   1.109117 S    
C112  C116  1.553459 S    
C122  C126  1.543025 S    
C106  C134  1.535446 S    
O118  C158  1.408700 S    
C55   C59   1.547199 S    
C45   C49   1.544767 S    
C64   C68   1.521857 S    
