data_mof_unit_32850.cif
_audit_creation_date              2012-10-26T20:13:06-0400
_audit_creation_method            fapswitch 2.2
_symmetry_space_group_name_H-M    P1
_symmetry_Int_Tables_number       1
_space_group_crystal_system       triclinic
_cell_length_a                    21.279387
_cell_length_b                    21.32539
_cell_length_c                    13.79952
_cell_angle_alpha                 89.928177
_cell_angle_beta                  90.282254
_cell_angle_gamma                 89.958678
_cell_volume                      6262.0185482

loop_
_atom_site_label
_atom_site_type_symbol
_atom_type_description
_atom_site_fract_x
_atom_site_fract_y
_atom_site_fract_z
_atom_type_partial_charge
C1    C     C_R   0.085137 0.414722 0.500275 0.557016
C2    C     C_R   0.213910 0.691488 0.415266 0.232927
C3    C     C_3   0.274684 0.155082 0.951887 -0.491789
C4    C     C_3   0.671960 0.407023 0.505627 0.012365
C5    C     C_3   0.600156 0.408333 0.499673 -0.236026
C6    C     C_3   0.570804 0.349657 0.544148 -0.408407
C7    C     C_3   0.298670 0.666107 0.324270 0.004578
C8    C     C_3   0.335509 0.682589 0.232982 -0.244574
C9    C     C_3   0.358025 0.750578 0.234220 -0.390029
C10   C     C_3   0.151157 0.779737 0.703419 0.007000
C11   C     C_3   0.171103 0.834192 0.768717 -0.231993
C12   C     C_3   0.204714 0.885741 0.712049 -0.408019
C13   C     C_R   0.191259 0.715295 0.584769 0.245797
C14   C     C_3   0.893797 0.175336 0.474425 0.008622
C15   C     C_3   0.890620 0.103750 0.471684 -0.240402
C16   C     C_3   0.828889 0.080643 0.427397 -0.405691
C17   C     C_3   0.164258 0.207787 0.315905 0.007144
C18   C     C_3   0.186344 0.166087 0.232779 -0.242276
C19   C     C_3   0.249105 0.134425 0.255980 -0.393823
C20   C     C_3   0.909902 0.825388 0.520008 0.008853
C21   C     C_3   0.910889 0.897016 0.525675 -0.238627
C22   C     C_3   0.855874 0.922495 0.584440 -0.414857
C23   C     C_3   0.670063 0.628646 0.450816 0.008429
C24   C     C_R   0.833764 0.260776 0.516636 0.239616
C25   C     C_3   0.598804 0.625123 0.463373 -0.242839
C26   C     C_3   0.569724 0.690055 0.476804 -0.401217
C27   C     C_3   0.282632 0.333580 0.702674 0.007974
C28   C     C_3   0.325168 0.308514 0.783574 -0.243572
C29   C     C_3   0.362989 0.251379 0.751118 -0.397244
C30   C     C_3   0.170238 0.869022 0.426457 0.009268
C31   C     C_3   0.107924 0.865054 0.371111 -0.242116
C32   C     C_3   0.081047 0.798636 0.371964 -0.408766
C33   C     C_3   0.747922 0.217800 0.273219 0.011055
C34   C     C_3   0.763731 0.257310 0.184127 -0.243339
C35   C     C_R   0.193151 0.287051 0.416057 0.241273
C36   C     C_3   0.787015 0.322598 0.212178 -0.392235
C37   C     C_3   0.703138 0.262407 0.718627 0.007052
C38   C     C_3   0.742247 0.289911 0.801555 -0.246230
C39   C     C_3   0.799885 0.325063 0.764401 -0.388594
C40   C     C_3   0.389613 0.682986 0.600673 0.009532
C41   C     C_3   0.382983 0.614850 0.633697 -0.234785
C42   C     C_3   0.334011 0.579454 0.573719 -0.409767
C43   C     C_3   0.712689 0.778957 0.253189 0.005014
C44   C     C_3   0.751990 0.741229 0.181269 -0.239999
C45   C     C_3   0.772462 0.678017 0.223075 -0.407205
C46   C     C_R   0.841657 0.743868 0.484488 0.246016
C47   C     C_3   0.385507 0.323391 0.432110 0.003444
C48   C     C_3   0.382054 0.390435 0.393013 -0.239910
C49   C     C_3   0.322214 0.423949 0.425253 -0.398228
C50   C     C_3   0.180103 0.106729 0.589335 0.007025
C51   C     C_3   0.113104 0.110256 0.628409 -0.233194
C52   C     C_3   0.075373 0.162994 0.580745 -0.407768
C53   C     C_3   0.759761 0.794081 0.722793 0.006007
C54   C     C_3   0.787551 0.753443 0.803674 -0.246726
C55   C     C_3   0.822527 0.696658 0.763494 -0.396386
C56   C     C_R   0.760282 0.665664 0.518003 0.238703
C57   C     C_R   0.210338 0.304062 0.589155 0.242340
C58   C     C_R   0.268094 0.827248 0.438719 0.239667
C59   C     C_R   0.690281 0.214646 0.411241 0.239416
C60   C     C_R   0.707171 0.200651 0.585048 0.247451
C61   C     C_R   0.915065 0.584886 0.499838 0.554063
C62   C     C_R   0.327902 0.767736 0.559617 0.245975
C63   C     C_R   0.715065 0.808163 0.414323 0.245081
C64   C     C_R   0.328305 0.233311 0.446938 0.243865
C65   C     C_R   0.265755 0.169011 0.557382 0.238611
C66   C     C_R   0.698744 0.791795 0.587686 0.238893
C67   C     C_R   0.804485 0.386204 0.473660 -0.164265
C68   C     C_R   0.166648 0.646549 0.415254 -0.160221
C69   C     C_R   0.146225 0.667506 0.585017 -0.163459
C70   C     C_R   0.880361 0.306889 0.521477 -0.163217
C71   C     C_R   0.148421 0.334671 0.415291 -0.157154
C72   C     C_R   0.914671 0.415516 0.499802 0.554091
C73   C     C_R   0.886226 0.695437 0.480602 -0.160846
C74   C     C_R   0.805870 0.618782 0.519626 -0.160136
C75   C     C_R   0.163585 0.349922 0.588144 -0.157580
C76   C     C_R   0.315506 0.872180 0.436612 -0.156519
C77   C     C_R   0.644961 0.167606 0.413126 -0.153024
C78   C     C_R   0.662885 0.152526 0.585401 -0.148713
C79   C     C_R   0.372753 0.815628 0.561809 -0.157287
C80   C     C_R   0.667609 0.853738 0.414648 -0.159926
C81   C     C_R   0.373242 0.185737 0.442627 -0.163418
C82   C     C_R   0.313901 0.124394 0.558729 -0.167784
C83   C     C_R   0.085128 0.585236 0.500102 0.555369
C84   C     C_R   0.650761 0.836174 0.586515 -0.158647
C85   C     C_R   0.865641 0.368861 0.498985 -0.067710
C86   C     C_R   0.133363 0.633740 0.500200 -0.085980
C87   C     C_R   0.133189 0.365931 0.501173 -0.086909
C88   C     C_R   0.868232 0.633739 0.499671 -0.068705
C89   C     C_R   0.366967 0.866948 0.499401 -0.081909
C90   C     C_R   0.631751 0.135717 0.499587 -0.090606
C91   C     C_R   0.635038 0.867365 0.500315 -0.084128
C92   C     C_R   0.366478 0.132254 0.499886 -0.071020
C93   C     C_R   0.010203 0.554289 0.105936 0.210414
C94   C     C_R   0.585507 0.914951 0.500127 0.557753
C95   C     C_R   0.057553 0.498289 0.893295 0.214507
C96   C     C_R   0.990838 0.441994 0.107553 0.218818
C97   C     C_R   0.943620 0.497038 0.893116 0.214437
C98   C     C_R   0.485629 0.056161 0.106888 0.228126
C99   C     C_R   0.555194 0.992135 0.894712 0.218363
C100  C     C_R   0.511296 0.944769 0.106294 0.220290
C101  C     C_R   0.442663 0.010663 0.891684 0.217007
C102  C     C_R   0.771380 0.278721 0.496056 0.095455
C103  C     C_R   0.225999 0.726171 0.499976 0.096459
C104  C     C_R   0.224881 0.272355 0.502840 0.095223
C105  C     C_R   0.414955 0.084863 0.499857 0.555127
C106  C     C_R   0.778370 0.728242 0.501393 0.095612
C107  C     C_R   0.274669 0.774617 0.499646 0.089510
C108  C     C_R   0.721838 0.231013 0.497394 0.091057
C109  C     C_R   0.730405 0.777435 0.501343 0.101559
C110  C     C_R   0.273840 0.224146 0.502703 0.100783
C111  C     C_R   0.007941 0.554278 0.208215 0.027916
C112  C     C_R   0.055617 0.501798 0.790694 0.023476
C113  C     C_R   0.992887 0.444621 0.210847 0.008307
C114  C     C_R   0.944735 0.496664 0.790543 0.024614
C115  C     C_R   0.485682 0.053776 0.209959 0.012266
C116  C     C_R   0.414876 0.915110 0.499842 0.553522
C117  C     C_R   0.554747 0.993191 0.791971 0.013563
C118  C     C_R   0.513298 0.946514 0.209190 0.014236
C119  C     C_R   0.444671 0.007709 0.789085 0.017915
C120  C     C_R   0.000609 0.497898 0.054710 0.120139
C121  C     C_R   0.000665 0.497553 0.945492 0.120276
C122  C     C_R   0.498096 0.000609 0.054791 0.133177
C123  C     C_R   0.498482 0.001014 0.945379 0.127518
C124  C     C_3   0.080061 0.632655 0.067647 0.020702
C125  C     C_3   0.078276 0.698315 0.112046 -0.288820
C126  C     C_3   0.144142 0.726078 0.120809 -0.474681
C127  C     C_R   0.584812 0.085687 0.500028 0.557489
C128  C     C_3   0.152581 0.448308 0.921076 -0.010335
C129  C     C_3   0.129508 0.388453 0.971514 -0.256440
C130  C     C_3   0.174843 0.333950 0.955930 -0.488665
C131  C     C_3   0.950420 0.338899 0.103336 0.013676
C132  C     C_3   0.995697 0.290570 0.147659 -0.273137
C133  C     C_3   0.961511 0.246006 0.216090 -0.498022
C134  C     C_3   0.853094 0.549344 0.928415 -0.001354
C135  C     C_3   0.796475 0.549784 0.996000 -0.250171
C136  C     C_3   0.755839 0.607921 0.979611 -0.498043
C137  C     C_3   0.487520 0.166739 0.097886 -0.002671
C138  C     C_R   0.756161 0.341593 0.475222 0.237693
C139  C     C_3   0.429537 0.199513 0.139615 -0.270211
C140  C     C_3   0.447357 0.260029 0.191608 -0.480815
C141  C     C_3   0.646242 0.935776 0.921935 0.025971
C142  C     C_3   0.689363 0.919261 0.007144 -0.234351
C143  C     C_3   0.731653 0.863683 0.983757 -0.506443
C144  C     C_3   0.502395 0.835245 0.093593 0.001695
C145  C     C_3   0.556354 0.795669 0.134934 -0.272346
C146  C     C_3   0.532193 0.735898 0.182872 -0.492879
C147  C     C_3   0.354789 0.073169 0.906558 0.029784
C148  C     C_3   0.308251 0.095074 0.983359 -0.246782
Cu1   Cu    Cu3+1 1.000000 0.500000 0.596430 0.919395
Cu2   Cu    Cu3+1 1.000000 0.500000 0.403570 0.916447
Cu3   Cu    Cu3+1 0.500000 0.000000 0.596430 0.921098
Cu4   Cu    Cu3+1 0.500000 0.000000 0.403570 0.917669
H1    H     H_    0.794703 0.434310 0.453359 0.105506
H2    H     H_    0.620099 0.156314 0.346695 0.144506
H3    H     H_    0.219734 0.923423 0.762539 0.128548
H4    H     H_    0.172581 0.906487 0.657060 0.107730
H5    H     H_    0.941033 0.188901 0.501699 0.108899
H6    H     H_    0.888346 0.193429 0.398968 0.103297
H7    H     H_    0.930355 0.085644 0.427819 0.099179
H8    H     H_    0.895650 0.084913 0.546450 0.169187
H9    H     H_    0.788325 0.096446 0.471463 0.191534
H10   H     H_    0.828840 0.028610 0.425144 0.132133
H11   H     H_    0.823485 0.098534 0.352212 0.122030
H12   H     H_    0.117538 0.227673 0.296013 0.102250
H13   H     H_    0.653083 0.128443 0.652824 0.150404
H14   H     H_    0.158846 0.178011 0.381812 0.115277
H15   H     H_    0.150373 0.129349 0.219070 0.099807
H16   H     H_    0.191091 0.194770 0.165940 0.160880
H17   H     H_    0.287075 0.169946 0.261532 0.201026
H18   H     H_    0.261168 0.101147 0.197182 0.116405
H19   H     H_    0.246189 0.107960 0.325223 0.135943
H20   H     H_    0.953725 0.810253 0.483365 0.111488
H21   H     H_    0.909523 0.806028 0.595199 0.103522
H22   H     H_    0.955584 0.912291 0.560313 0.096193
H23   H     H_    0.909120 0.917029 0.451284 0.172576
H24   H     H_    0.412618 0.812370 0.610675 0.129472
H25   H     H_    0.810381 0.908148 0.551453 0.186050
H26   H     H_    0.857956 0.974458 0.585991 0.128030
H27   H     H_    0.858530 0.905104 0.660213 0.119621
H28   H     H_    0.687778 0.580721 0.434295 0.099331
H29   H     H_    0.680027 0.659870 0.387954 0.119964
H30   H     H_    0.577797 0.603048 0.397883 0.098075
H31   H     H_    0.587498 0.595216 0.526972 0.161579
H32   H     H_    0.586680 0.711520 0.545333 0.202222
H33   H     H_    0.517819 0.685788 0.480288 0.101960
H34   H     H_    0.581880 0.721168 0.415039 0.133585
H35   H     H_    0.657033 0.879236 0.348662 0.129994
H36   H     H_    0.257446 0.375566 0.730502 0.095472
H37   H     H_    0.312824 0.348097 0.640849 0.110632
H38   H     H_    0.358228 0.346137 0.806170 0.100532
H39   H     H_    0.296187 0.295591 0.847262 0.158916
H40   H     H_    0.331180 0.211351 0.735616 0.202335
H41   H     H_    0.395912 0.237144 0.809835 0.113587
H42   H     H_    0.390614 0.262536 0.685210 0.133501
H43   H     H_    0.184910 0.919085 0.429571 0.099097
H44   H     H_    0.162252 0.851987 0.501748 0.119212
H45   H     H_    0.073461 0.897235 0.405376 0.095201
H46   H     H_    0.414150 0.191259 0.396960 0.117558
H47   H     H_    0.114918 0.880477 0.294955 0.165649
H48   H     H_    0.112909 0.766021 0.333432 0.205747
H49   H     H_    0.034745 0.798283 0.334527 0.122851
H50   H     H_    0.074560 0.781994 0.447584 0.123535
H51   H     H_    0.731853 0.170799 0.248218 0.108015
H52   H     H_    0.791476 0.211979 0.317282 0.119190
H53   H     H_    0.800861 0.233135 0.141840 0.098758
H54   H     H_    0.721331 0.261862 0.137265 0.162883
H55   H     H_    0.749359 0.349287 0.249334 0.217183
H56   H     H_    0.800496 0.348749 0.145862 0.116539
H57   H     H_    0.310092 0.083237 0.604407 0.110545
H58   H     H_    0.828502 0.319057 0.261050 0.136668
H59   H     H_    0.659991 0.241050 0.749816 0.110544
H60   H     H_    0.688931 0.301492 0.669455 0.118529
H61   H     H_    0.712529 0.322993 0.843429 0.102971
H62   H     H_    0.757567 0.251682 0.851172 0.169992
H63   H     H_    0.832441 0.292229 0.727562 0.206245
H64   H     H_    0.825187 0.346880 0.826321 0.143991
H65   H     H_    0.785625 0.362634 0.712927 0.134511
H66   H     H_    0.428654 0.704619 0.642710 0.116907
H67   H     H_    0.402361 0.683246 0.522321 0.097062
H68   H     H_    0.625960 0.846047 0.653168 0.141296
H69   H     H_    0.429115 0.590868 0.626369 0.101698
H70   H     H_    0.369402 0.613621 0.711359 0.173385
H71   H     H_    0.287185 0.602084 0.579907 0.192764
H72   H     H_    0.330307 0.530533 0.600666 0.116267
H73   H     H_    0.348063 0.578183 0.496364 0.117076
H74   H     H_    0.695664 0.821825 0.215466 0.111281
H75   H     H_    0.671490 0.750091 0.275365 0.106916
H76   H     H_    0.723919 0.733049 0.114326 0.101957
H77   H     H_    0.794433 0.768608 0.161326 0.175047
H78   H     H_    0.797467 0.684291 0.293165 0.194646
H79   H     H_    0.013108 0.597861 0.247377 0.135649
H80   H     H_    0.804982 0.654575 0.171999 0.136249
H81   H     H_    0.730975 0.647304 0.233774 0.114252
H82   H     H_    0.431224 0.302864 0.409660 0.106580
H83   H     H_    0.384353 0.325264 0.512854 0.107439
H84   H     H_    0.423496 0.417126 0.419757 0.101199
H85   H     H_    0.383773 0.389580 0.312539 0.161480
H86   H     H_    0.279982 0.399623 0.396432 0.201669
H87   H     H_    0.322269 0.472768 0.397196 0.112808
H88   H     H_    0.319714 0.425509 0.505541 0.120472
H89   H     H_    0.203375 0.065429 0.623270 0.102379
H90   H     H_    0.098742 0.505886 0.750075 0.130293
H91   H     H_    0.177830 0.099461 0.509315 0.103049
H92   H     H_    0.088956 0.064917 0.614543 0.095115
H93   H     H_    0.114703 0.117904 0.708062 0.171189
H94   H     H_    0.098411 0.209040 0.593012 0.198119
H95   H     H_    0.027704 0.164584 0.612925 0.126010
H96   H     H_    0.070695 0.154609 0.501622 0.109358
H97   H     H_    0.738754 0.836802 0.755667 0.102192
H98   H     H_    0.798884 0.808658 0.674350 0.125722
H99   H     H_    0.821031 0.782145 0.846869 0.104500
H100  H     H_    0.749481 0.737312 0.852568 0.165805
H101  H     H_    0.989014 0.402698 0.254186 0.132711
H102  H     H_    0.789075 0.663805 0.728259 0.200664
H103  H     H_    0.846621 0.671724 0.823641 0.110917
H104  H     H_    0.858517 0.711548 0.710181 0.139178
H105  H     H_    0.156764 0.621225 0.348876 0.140895
H106  H     H_    0.901179 0.493824 0.750071 0.132326
H107  H     H_    0.474343 0.094760 0.252060 0.129622
H108  H     H_    0.598321 0.989220 0.752481 0.124872
H109  H     H_    0.525178 0.905094 0.250294 0.130307
H110  H     H_    0.401841 0.011696 0.747131 0.127025
H111  H     H_    0.101720 0.635727 0.994687 0.177611
H112  H     H_    0.111452 0.601951 0.112439 0.131459
H113  H     H_    0.048892 0.729555 0.065880 0.174448
H114  H     H_    0.056872 0.696012 0.185216 0.154433
H115  H     H_    0.174054 0.695932 0.167717 0.192806
H116  H     H_    0.121140 0.657010 0.651124 0.136414
H117  H     H_    0.141413 0.773524 0.153524 0.169831
H118  H     H_    0.166035 0.730186 0.048182 0.142600
H119  H     H_    0.200646 0.458943 0.948164 0.152717
H120  H     H_    0.157335 0.440361 0.841815 0.103969
H121  H     H_    0.124714 0.397245 0.050520 0.188199
H122  H     H_    0.082868 0.375038 0.941693 0.200549
H123  H     H_    0.178937 0.323390 0.877396 0.173725
H124  H     H_    0.156950 0.291567 0.993604 0.149779
H125  H     H_    0.222009 0.345486 0.985757 0.141701
H126  H     H_    0.920954 0.314453 0.048503 0.156847
H127  H     H_    0.928053 0.294517 0.541620 0.113108
H128  H     H_    0.916527 0.357473 0.157331 0.119760
H129  H     H_    0.017826 0.263078 0.088533 0.160430
H130  H     H_    0.034008 0.314357 0.188299 0.155210
H131  H     H_    0.941586 0.272452 0.278102 0.139560
H132  H     H_    0.995056 0.210583 0.244818 0.131090
H133  H     H_    0.923020 0.221332 0.177143 0.143697
H134  H     H_    0.835690 0.552343 0.852354 0.119189
H135  H     H_    0.882674 0.591180 0.945250 0.151095
H136  H     H_    0.767541 0.507221 0.982904 0.171648
H137  H     H_    0.813104 0.548927 0.072484 0.169755
H138  H     H_    0.125153 0.346388 0.347621 0.141713
H139  H     H_    0.783898 0.651174 0.991305 0.145512
H140  H     H_    0.716036 0.607761 0.031332 0.144215
H141  H     H_    0.736599 0.608212 0.904637 0.157254
H142  H     H_    0.507093 0.197348 0.040261 0.151302
H143  H     H_    0.525939 0.161921 0.152584 0.115245
H144  H     H_    0.396279 0.210695 0.079670 0.164335
H145  H     H_    0.404933 0.168122 0.191222 0.156059
H146  H     H_    0.478826 0.249720 0.254102 0.144856
H147  H     H_    0.404195 0.283213 0.218736 0.186838
H148  H     H_    0.471467 0.292581 0.141106 0.139274
H149  H     H_    0.934783 0.705440 0.463339 0.105259
H150  H     H_    0.675516 0.946414 0.857424 0.112901
H151  H     H_    0.615851 0.894302 0.906159 0.157976
H152  H     H_    0.719209 0.960408 0.025310 0.171607
H153  H     H_    0.660394 0.907639 0.071550 0.186444
H154  H     H_    0.702913 0.821571 0.967016 0.140515
H155  H     H_    0.762209 0.853257 0.047107 0.143031
H156  H     H_    0.762131 0.875059 0.921126 0.137394
H157  H     H_    0.479901 0.808341 0.033917 0.155485
H158  H     H_    0.464795 0.842628 0.148374 0.114300
H159  H     H_    0.589072 0.782965 0.075520 0.163441
H160  H     H_    0.792477 0.570748 0.534864 0.111479
H161  H     H_    0.583081 0.823216 0.189332 0.139121
H162  H     H_    0.503258 0.747750 0.247048 0.145973
H163  H     H_    0.572510 0.706721 0.207262 0.133421
H164  H     H_    0.503551 0.708190 0.130823 0.147422
H165  H     H_    0.328043 0.061764 0.839414 0.111714
H166  H     H_    0.388029 0.112486 0.891522 0.154671
H167  H     H_    0.272843 0.057714 0.996169 0.162630
H168  H     H_    0.333766 0.103917 0.052441 0.192023
H169  H     H_    0.309089 0.193793 0.943438 0.145109
H170  H     H_    0.239990 0.168817 0.007739 0.139194
H171  H     H_    0.151452 0.373065 0.655358 0.134960
H172  H     H_    0.249501 0.147731 0.882101 0.172467
H173  H     H_    0.689508 0.452295 0.476347 0.105236
H174  H     H_    0.686291 0.402973 0.583281 0.108079
H175  H     H_    0.582538 0.450298 0.538807 0.098865
H176  H     H_    0.585236 0.412278 0.422583 0.164859
H177  H     H_    0.586818 0.306894 0.505541 0.192383
H178  H     H_    0.518829 0.352575 0.538121 0.106710
H179  H     H_    0.583690 0.345884 0.622009 0.121217
H180  H     H_    0.284817 0.615804 0.319872 0.102027
H181  H     H_    0.330008 0.672751 0.388249 0.123054
H182  H     H_    0.311145 0.912040 0.388236 0.136960
H183  H     H_    0.376983 0.651084 0.227650 0.101488
H184  H     H_    0.305327 0.674900 0.168098 0.160445
H185  H     H_    0.317393 0.783282 0.235121 0.217363
H186  H     H_    0.385773 0.759935 0.167930 0.109832
H187  H     H_    0.388064 0.759375 0.298865 0.134654
H188  H     H_    0.123225 0.746515 0.747943 0.112977
H189  H     H_    0.120586 0.798469 0.644113 0.098195
H190  H     H_    0.128733 0.854517 0.803503 0.100304
H191  H     H_    0.202735 0.816404 0.826938 0.178473
H192  H     H_    0.247043 0.866805 0.675475 0.194185
N1    N     N_R   1.000000 0.500000 0.258690 -0.279760
N2    N     N_R   1.000000 0.500000 0.741310 -0.279403
N3    N     N_R   0.500000 0.000000 0.258690 -0.277896
N4    N     N_R   0.500000 0.000000 0.741310 -0.276213
O1    O     O_R   0.064280 0.435730 0.581430 -0.501652
O2    O     O_R   0.435720 0.064270 0.418570 -0.507005
O3    O     O_R   0.435720 0.064270 0.581430 -0.504061
O4    O     O_R   0.564280 0.935730 0.418570 -0.506946
O5    O     O_R   0.435720 0.935730 0.418570 -0.494722
O6    O     O_R   0.564280 0.064270 0.581430 -0.497651
O7    O     O_R   0.564280 0.064270 0.418570 -0.499577
O8    O     O_R   0.435720 0.935730 0.581430 -0.495832
O9    O     O_3   0.017929 0.609912 0.055632 -0.591438
O10   O     O_3   0.114076 0.500511 0.943807 -0.597188
O11   O     O_3   0.984431 0.386438 0.054847 -0.590614
O12   O     O_R   0.935720 0.564270 0.418570 -0.492012
O13   O     O_3   0.887355 0.493317 0.942747 -0.574974
O14   O     O_3   0.469687 0.109583 0.053636 -0.583254
O15   O     O_3   0.610852 0.989341 0.947218 -0.572946
O16   O     O_3   0.526477 0.891345 0.053216 -0.588458
O17   O     O_3   0.386511 0.019081 0.940884 -0.566451
O18   O     O_3   0.694911 0.356793 0.449105 -0.535951
O19   O     O_3   0.244938 0.704666 0.330030 -0.546446
O20   O     O_3   0.205309 0.749076 0.667974 -0.526216
O21   O     O_3   0.847092 0.198519 0.537629 -0.533044
O22   O     O_3   0.207977 0.256643 0.330823 -0.530000
O23   O     O_R   0.935720 0.564270 0.581430 -0.500795
O24   O     O_3   0.857139 0.805937 0.465071 -0.528408
O25   O     O_3   0.698252 0.650996 0.536965 -0.535368
O26   O     O_3   0.238976 0.286916 0.675439 -0.529384
O27   O     O_3   0.216479 0.833405 0.378200 -0.533940
O28   O     O_3   0.700083 0.247672 0.326500 -0.530528
O29   O     O_3   0.738341 0.216105 0.669822 -0.528878
O30   O     O_3   0.333058 0.715607 0.619363 -0.525396
O31   O     O_3   0.750939 0.796516 0.332562 -0.528961
O32   O     O_3   0.335401 0.287716 0.393274 -0.539061
O33   O     O_3   0.212774 0.162119 0.614504 -0.532312
O34   O     O_R   0.064280 0.435730 0.418570 -0.502305
O35   O     O_3   0.712830 0.760233 0.672599 -0.534750
O36   O     O_R   0.935720 0.435730 0.418570 -0.503599
O37   O     O_R   0.064280 0.564270 0.581430 -0.503467
O38   O     O_R   0.064280 0.564270 0.418570 -0.507261
O39   O     O_R   0.935720 0.435730 0.581430 -0.495753
O40   O     O_R   0.564280 0.935730 0.581430 -0.505752

loop_
_geom_bond_atom_site_label_1
_geom_bond_atom_site_label_2
_ccdc_geom_bond_type
C1    C87   S    
C51   H92   S    
C145  C146  S    
C140  H148  S    
Cu1   O1    S    
C147  H165  S    
C5    C6    S    
C26   H33   S    
C3    H170  S    
C144  O16   S    
C62   O30   S    
C27   O26   S    
C32   H49   S    
C67   C138  A    
C112  N2    A    
C37   H59   S    
C124  O9    S    
C23   O25   S    
C54   H99   S    
C7    H180  S    
C93   C120  A    
C13   C103  A    
C82   H57   S    
C112  H90   S    
C132  H129  S    
C35   C71   A    
C21   C22   S    
C129  H122  S    
C38   H62   S    
C52   H96   S    
C48   H85   S    
C47   H83   S    
Cu4   O4    S    
C67   C85   A    
C51   C52   S    
C137  H143  S    
C35   C104  A    
C81   H46   S    
C22   H27   S    
C128  O10   S    
C16   H10   S    
C133  H131  S    
C146  H162  S    
C43   C44   S    
C73   C88   A    
C37   C38   S    
C17   H12   S    
C143  H155  S    
C30   H43   S    
C4    H174  S    
C135  H137  S    
C56   C106  A    
C131  H128  S    
C114  N2    A    
C20   H20   S    
C14   H6    S    
C147  O17   S    
C35   O22   S    
C141  H151  S    
C57   C104  A    
C28   C29   S    
C78   H13   S    
C125  H113  S    
C126  H118  S    
C144  C145  S    
C136  H139  S    
C139  C140  S    
C23   H29   S    
C39   H63   S    
C15   H8    S    
C115  H107  S    
C91   C94   S    
C104  C110  S    
C65   C82   A    
C30   C31   S    
C29   H41   S    
C134  H134  S    
C55   H103  S    
C17   O22   S    
C6    H178  S    
C65   C110  A    
C24   O21   S    
C83   C86   S    
C20   C21   S    
C124  H112  S    
C103  C107  S    
C143  H156  S    
C111  H79   S    
C147  C148  S    
C49   H87   S    
C128  C129  S    
C148  H167  S    
C72   C85   S    
C58   C76   A    
C7    C8    S    
C53   C54   S    
C115  N3    A    
C51   H93   S    
Cu2   N1    S    
Cu3   O3    S    
C2    C68   A    
C17   H14   S    
C38   C39   S    
C144  H158  S    
C72   O39   A    
C58   C107  A    
C36   H56   S    
C4    O18   S    
C131  H126  S    
C97   C121  A    
C84   H68   S    
C81   C92   A    
C3    H172  S    
C21   H23   S    
C75   H171  S    
C63   O31   S    
C14   O21   S    
C99   O15   S    
C41   H70   S    
C46   O24   S    
C76   C89   A    
Cu1   O23   S    
C5    H175  S    
C25   H30   S    
C128  H120  S    
C47   O32   S    
C12   H4    S    
C22   H25   S    
C42   H72   S    
C10   H188  S    
C7    O19   S    
Cu3   O8    S    
C63   C80   A    
C34   H53   S    
C117  N4    A    
C50   H91   S    
C96   O11   S    
C8    H184  S    
C25   C26   S    
C9    H185  S    
C63   C109  A    
C44   H77   S    
C10   H189  S    
C99   C117  A    
C31   C32   S    
Cu3   Cu4   S    
C17   C18   S    
C72   O36   A    
C75   C87   A    
C71   H138  S    
C73   H149  S    
C45   H78   S    
C11   H190  S    
C130  H124  S    
C28   H39   S    
C66   O35   S    
C129  C130  S    
C98   C122  A    
C54   C55   S    
C142  H152  S    
C105  O3    A    
C79   H24   S    
C39   H65   S    
C61   O23   A    
C18   H15   S    
C134  C135  S    
C95   O10   S    
C57   C75   A    
C130  H125  S    
C26   H34   S    
C98   C115  A    
C3    H169  S    
C118  H109  S    
C13   C69   A    
C116  O8    A    
C84   C91   A    
C46   C106  A    
C34   C36   S    
C53   H98   S    
C32   H50   S    
C2    O19   S    
C79   C89   A    
C10   C11   S    
C4    C5    S    
C61   O12   A    
C83   O38   A    
C30   O27   S    
C93   O9    S    
C20   O24   S    
C54   H100  S    
C14   C15   S    
C135  H136  S    
C97   C114  A    
C70   C85   A    
C46   C73   A    
C94   O40   A    
C106  C109  S    
C65   O33   S    
C127  O6    A    
C132  H130  S    
Cu4   O5    S    
C41   C42   S    
C129  H121  S    
C19   H18   S    
C50   H89   S    
C31   H47   S    
C135  C136  S    
C78   C90   A    
C94   O4    A    
C137  C139  S    
C9    H187  S    
C137  H142  S    
C45   H81   S    
C138  O18   S    
C95   C112  A    
C68   H105  S    
C119  H110  S    
C146  H163  S    
Cu3   O6    S    
C82   C92   A    
C18   C19   S    
C118  N3    A    
Cu3   N4    S    
C30   H44   S    
C90   C127  S    
C45   H80   S    
C60   C108  A    
C43   H74   S    
C141  O15   S    
C95   C121  A    
Cu1   O37   S    
C60   O29   S    
C58   O27   S    
C140  H147  S    
C141  H150  S    
C77   C90   A    
C56   C74   A    
C14   H5    S    
C24   C70   A    
C113  H101  S    
C1    O1    A    
C136  H140  S    
C117  H108  S    
C62   C107  A    
C147  H166  S    
C124  H111  S    
C34   H54   S    
C70   H127  S    
C37   H60   S    
C15   H7    S    
C59   O28   S    
C60   C78   A    
C50   C51   S    
C6    H179  S    
C44   H76   S    
C23   H28   S    
C93   C111  A    
C71   C87   A    
C113  N1    A    
C48   C49   S    
C76   H182  S    
Cu3   O40   S    
C13   O20   S    
C133  H133  S    
C40   H67   S    
C125  C126  S    
C96   C113  A    
C100  C118  A    
C38   H61   S    
C131  C132  S    
C52   H95   S    
C31   H45   S    
C44   C45   S    
C111  N1    A    
C11   H191  S    
C49   H86   S    
C28   H38   S    
C148  H168  S    
C16   H9    S    
C133  H132  S    
C33   H52   S    
Cu2   O36   S    
C67   H1    S    
C97   O13   S    
C80   C91   A    
C32   H48   S    
Cu1   Cu2   S    
C139  H144  S    
C2    C103  A    
C4    H173  S    
C33   H51   S    
C24   C102  A    
C27   H36   S    
C66   C109  A    
C100  O16   S    
C74   H160  S    
C136  H141  S    
C92   C105  S    
C1    O34   A    
C21   H22   S    
C142  C143  S    
Cu1   O39   S    
C74   C88   A    
C64   O32   S    
C41   H69   S    
C29   H42   S    
C125  H114  S    
C68   C86   A    
C126  H117  S    
C22   H26   S    
C59   C77   A    
C69   H116  S    
C50   O33   S    
Cu2   O38   S    
C127  O7    A    
C101  C123  A    
C39   H64   S    
C37   O29   S    
C134  O13   S    
C19   H19   S    
C139  H145  S    
C15   C16   S    
C43   O31   S    
C55   H104  S    
C6    H177  S    
C102  C138  A    
C145  H161  S    
C132  C133  S    
C102  C108  S    
Cu4   O7    S    
C40   O30   S    
C98   O14   S    
C47   H82   S    
C89   C116  S    
C3    C148  S    
C49   H88   S    
C43   H75   S    
C134  H135  S    
C16   H11   S    
C64   C81   A    
Cu2   O34   S    
C142  H153  S    
C105  O2    A    
C101  C119  A    
C47   C48   S    
C62   C79   A    
Cu2   O12   S    
C33   O28   S    
C143  H154  S    
C18   H16   S    
C144  H157  S    
C8    C9    S    
C140  H146  S    
C57   O26   S    
C36   H55   S    
C61   C88   S    
C77   H2    S    
C56   O25   S    
C145  H159  S    
C64   C110  A    
C20   H21   S    
C116  O5    A    
C119  N4    A    
C33   C34   S    
C29   H40   S    
C53   H97   S    
C114  H106  S    
C48   H84   S    
C40   C41   S    
C83   O37   A    
C5    H176  S    
Cu1   N2    S    
C128  H119  S    
C126  H115  S    
C12   H3    S    
C101  O17   S    
C42   H71   S    
C99   C123  A    
C42   H73   S    
C53   O35   S    
C40   H66   S    
C137  O14   S    
C96   C120  A    
C19   H17   S    
C52   H94   S    
C8    H183  S    
C11   C12   S    
C10   O20   S    
Cu4   O2    S    
C59   C108  A    
C55   H102  S    
C9    H186  S    
C7    H181  S    
C130  H123  S    
C141  C142  S    
C146  H164  S    
C80   H35   S    
C100  C122  A    
C23   C25   S    
C12   H192  S    
C66   C84   A    
Cu4   N3    S    
C131  O11   S    
C27   C28   S    
C120  C121  S    
C27   H37   S    
C122  C123  S    
C69   C86   A    
C25   H31   S    
C36   H58   S    
C124  C125  S    
C26   H32   S    
