data_mof_unit_22638.cif
_audit_creation_date              2012-12-10T18:55:19-0500
_audit_creation_method            fapswitch 2.2
_symmetry_space_group_name_H-M    P1
_symmetry_Int_Tables_number       1
_space_group_crystal_system       triclinic
_cell_length_a                    10.705332
_cell_length_b                    9.914543
_cell_length_c                    27.454088
_cell_angle_alpha                 89.271673
_cell_angle_beta                  93.105353
_cell_angle_gamma                 90.048361
_cell_volume                      2909.42112075

loop_
_atom_site_label
_atom_site_type_symbol
_atom_type_description
_atom_site_fract_x
_atom_site_fract_y
_atom_site_fract_z
_atom_type_partial_charge
C1    C     C_R   0.260109 0.499888 0.500017 0.865117
C2    C     C_R   0.413613 0.567489 0.874882 0.005704
C3    C     C_R   0.500572 0.510111 0.351894 -0.104492
C4    C     C_R   0.499261 0.501032 0.648340 -0.153480
C5    C     C_R   0.413097 0.639813 0.973646 0.106812
C6    C     C_R   0.643160 0.660091 0.028046 0.108843
C7    C     C_R   0.642223 0.658702 0.976345 0.007057
C8    C     C_R   0.413752 0.677033 0.023322 -0.002885
C9    C     C_R   0.527962 0.631057 0.950292 0.033945
C10   C     C_R   0.528002 0.667362 0.051161 0.035778
C11   C     C_R   0.302342 0.599028 0.947934 -0.145240
C12   C     C_R   0.739886 0.499953 0.499971 0.869671
C13   C     C_R   0.754217 0.639241 0.057324 -0.136119
C14   C     C_R   0.301989 0.567523 0.898987 -0.131904
C15   C     C_R   0.752087 0.629432 0.107750 -0.151841
C16   C     C_R   0.501042 0.501199 0.405659 0.888514
C17   C     C_R   0.498088 0.499293 0.594382 0.871508
C18   C     C_R   0.305002 0.718658 0.046922 -0.051115
C19   C     C_R   0.752604 0.668750 0.950191 -0.026473
C20   C     C_R   0.063853 0.376436 0.500102 -0.172999
C21   C     C_R   0.936186 0.622473 0.499505 -0.145341
C22   C     C_R   0.935968 0.376470 0.500102 -0.166345
C23   C     C_R   0.525891 0.654179 0.102195 -0.081993
C24   C     C_R   0.063957 0.622420 0.500184 -0.144849
C25   C     C_R   0.872430 0.499618 0.499803 -0.046711
C26   C     C_R   0.127557 0.499535 0.500154 -0.043506
C27   C     C_R   0.578508 0.070900 0.532019 0.008060
C28   C     C_R   0.414380 0.928784 0.471045 0.019076
C29   C     C_R   0.420974 0.072855 0.468153 0.016991
C30   C     C_R   0.585405 0.927035 0.529060 0.025111
C31   C     C_R   0.410243 0.603827 0.172901 0.559908
C32   C     C_R   0.635748 0.557476 0.826627 0.566116
C33   C     C_R   0.633222 0.609410 0.180468 0.549141
C34   C     C_R   0.528222 0.594464 0.900725 -0.064458
C35   C     C_R   0.412988 0.539444 0.825345 0.546090
C36   C     C_R   0.552453 0.433464 0.271030 0.106048
C37   C     C_R   0.494787 0.394017 0.729198 0.136527
C38   C     C_R   0.552049 0.410885 0.322145 -0.044928
C39   C     C_R   0.478502 0.384681 0.677556 -0.054892
C40   C     C_R   0.456976 0.631775 0.330626 -0.309864
C41   C     C_R   0.524245 0.625238 0.670668 -0.295357
C42   C     C_R   0.470194 0.661731 0.281805 0.018278
C43   C     C_R   0.528217 0.638687 0.720863 0.013116
C44   C     C_R   0.515616 0.561505 0.251414 0.270400
C45   C     C_R   0.410709 0.654822 0.124806 -0.036350
C46   C     C_R   0.516843 0.522344 0.750394 0.254974
C47   C     C_2   0.652145 0.142404 0.571234 0.515367
C48   C     C_2   0.311524 0.856069 0.444374 0.476376
C49   C     C_2   0.346057 0.146547 0.429188 0.587426
C50   C     C_2   0.688616 0.853079 0.555706 0.497075
C51   C     C_2   0.436956 0.800698 0.264523 0.433322
C52   C     C_2   0.543855 0.777448 0.740494 0.474358
C53   C     C_3   0.197965 0.774820 0.125249 -0.376731
C54   C     C_3   0.210478 0.928598 0.124489 -0.794153
C55   C     C_3   0.882466 0.547338 0.890093 -0.357656
C56   C     C_R   0.642533 0.581123 0.877462 -0.066786
C57   C     C_3   0.947596 0.461850 0.930884 -0.916416
C58   C     C_2   0.427784 0.259835 0.654215 0.444377
C59   C     C_2   0.618014 0.291282 0.343692 0.423893
C60   C     C_3   0.488572 0.269305 0.762072 -0.358096
C61   C     C_3   0.615084 0.197920 0.766815 -0.725338
C62   C     C_3   0.587448 0.319491 0.237568 -0.418373
C63   C     C_3   0.483958 0.213419 0.233498 -0.737918
C64   C     C_2   0.200058 0.787504 0.018689 0.367474
C65   C     C_2   0.855062 0.764324 0.965064 0.365120
C66   C     C_R   0.303184 0.707946 0.098582 0.107269
C67   C     C_R   0.757205 0.603326 0.904980 0.103571
C68   C     C_R   0.638317 0.632914 0.130364 -0.009680
H1    H     H_    0.418071 0.708855 0.352935 0.160748
H2    H     H_    0.112304 0.718285 0.500739 0.204002
H3    H     H_    0.684975 0.243531 0.566323 0.105629
H4    H     H_    0.327177 0.760656 0.427603 0.102762
H5    H     H_    0.310123 0.245757 0.434598 0.087828
H6    H     H_    0.673074 0.757766 0.573515 0.102500
H7    H     H_    0.380206 0.864180 0.286498 0.093907
H8    H     H_    0.571625 0.859021 0.716610 0.100329
H9    H     H_    0.302702 0.958633 0.141514 0.281164
H10   H     H_    0.201294 0.970677 0.086893 0.269314
H11   H     H_    0.135828 0.973571 0.145679 0.256327
H12   H     H_    0.538150 0.715024 0.648678 0.171664
H13   H     H_    0.105032 0.743700 0.109393 0.186628
H14   H     H_    0.197145 0.746967 0.164150 0.273907
H15   H     H_    0.977586 0.523742 0.962764 0.233488
H16   H     H_    0.883754 0.381068 0.942919 0.286148
H17   H     H_    0.032233 0.413722 0.917153 0.267139
H18   H     H_    0.870928 0.476995 0.859308 0.271493
H19   H     H_    0.944768 0.630659 0.879107 0.221024
H20   H     H_    0.356043 0.267773 0.624848 0.080816
H21   H     H_    0.717255 0.278889 0.338906 0.063453
H22   H     H_    0.647446 0.170385 0.730535 0.302701
H23   H     H_    0.213860 0.540944 0.880293 0.188318
H24   H     H_    0.686027 0.264739 0.785108 0.250696
H25   H     H_    0.607082 0.104483 0.789161 0.265860
H26   H     H_    0.462267 0.294218 0.799326 0.199484
H27   H     H_    0.414078 0.199054 0.748768 0.249552
H28   H     H_    0.469219 0.165447 0.269463 0.290591
H29   H     H_    0.395006 0.260496 0.219194 0.269630
H30   H     H_    0.510261 0.133699 0.207922 0.270554
H31   H     H_    0.603209 0.355345 0.200077 0.216815
H32   H     H_    0.676737 0.271780 0.251040 0.212624
H33   H     H_    0.104486 0.776221 0.029170 0.076658
H34   H     H_    0.839318 0.611238 0.128674 0.186933
H35   H     H_    0.945042 0.759796 0.948894 0.096748
H36   H     H_    0.215187 0.587049 0.965557 0.129947
H37   H     H_    0.843178 0.621858 0.041727 0.135940
H38   H     H_    0.112260 0.280484 0.500141 0.168612
H39   H     H_    0.887959 0.718376 0.498748 0.204494
H40   H     H_    0.887434 0.280518 0.500281 0.173511
N1    N     N_R   0.520178 0.589712 0.200221 -0.328644
N2    N     N_R   0.522620 0.535967 0.802358 -0.332682
N3    N     N_R   0.500000 0.857200 0.500000 -0.187955
N4    N     N_R   0.500000 0.142800 0.500000 -0.189485
O1    O     O_R   0.316770 0.614620 0.500000 -0.640610
O2    O     O_2   0.738640 0.566494 0.800571 -0.573783
O3    O     O_2   0.303480 0.518189 0.799809 -0.557406
O4    O     O_2   0.739751 0.601235 0.208981 -0.555689
O5    O     O_2   0.675188 0.088733 0.610979 -0.541718
O6    O     O_2   0.205478 0.901896 0.441744 -0.587695
O7    O     O_2   0.325689 0.096994 0.389028 -0.546226
O8    O     O_2   0.794869 0.898371 0.557410 -0.580723
O9    O     O_2   0.475873 0.848239 0.227021 -0.591735
O10   O     O_2   0.522651 0.804196 0.782515 -0.565365
O11   O     O_2   0.465994 0.147983 0.666531 -0.554395
O12   O     O_R   0.683230 0.385380 0.500000 -0.651296
O13   O     O_2   0.561550 0.202820 0.364482 -0.526453
O14   O     O_2   0.220320 0.860474 0.983812 -0.529714
O15   O     O_2   0.837682 0.854699 0.993751 -0.543084
O16   O     O_R   0.683230 0.614620 0.500000 -0.640482
O17   O     O_R   0.316770 0.385380 0.500000 -0.663940
O18   O     O_R   0.500030 0.614650 0.428760 -0.643508
O19   O     O_R   0.499970 0.385350 0.571240 -0.653186
O20   O     O_R   0.499970 0.614650 0.571240 -0.633227
O21   O     O_R   0.500030 0.385350 0.428760 -0.590420
O22   O     O_2   0.302799 0.562655 0.191800 -0.585029
Zn1   Zn    Zn3+2 0.500000 0.653120 0.500000 0.936294
Zn2   Zn    Zn3+2 0.500000 0.346880 0.500000 0.942095

loop_
_geom_bond_atom_site_label_1
_geom_bond_atom_site_label_2
_ccdc_geom_bond_type
C2    C35   A    
C34   C56   A    
C23   C45   A    
C17   O19   A    
C29   N4    A    
O18   Zn1   S    
N3    Zn1   S    
C41   H12   S    
C24   H2    S    
C29   C49   S    
C53   C54   S    
C58   O11   D    
C1    O1    A    
C50   O8    D    
C65   O15   D    
C28   C29   A    
C48   H4    S    
C5    C11   A    
C63   H30   S    
C1    O17   A    
C50   H6    S    
C11   C14   A    
C61   H25   S    
C43   C52   S    
C4    C41   A    
C54   H10   S    
C53   H13   S    
C59   H21   S    
C52   O10   D    
C3    C38   A    
C22   C25   A    
O21   Zn2   S    
C57   H15   S    
C35   O3    S    
C11   H36   S    
C16   O18   A    
C61   H24   S    
C42   C51   S    
C54   H9    S    
C44   N1    S    
C2    C34   A    
C40   C42   A    
C30   C50   S    
C27   C30   A    
C41   C43   A    
C42   C44   A    
N4    Zn2   S    
C31   O22   S    
C36   C62   S    
C16   O21   A    
C20   H38   S    
C28   N3    A    
C64   H33   S    
C40   H1    S    
O12   Zn2   S    
C13   H37   S    
O19   Zn2   S    
O16   Zn1   S    
C48   O6    D    
C39   C58   S    
C63   H28   S    
C8    C18   A    
C62   H31   S    
C60   C61   S    
C23   C68   A    
C5    C9    A    
C62   C63   S    
O17   Zn2   S    
C12   O12   A    
C4    C39   A    
C31   N1    A    
C57   H16   S    
C19   C67   A    
C53   C66   S    
C47   H3    S    
C21   H39   S    
C35   N2    A    
C32   N2    A    
C62   H32   S    
C4    C17   S    
C8    C10   A    
C20   C22   A    
C27   N4    A    
C64   O14   D    
C13   C15   A    
O1    Zn1   S    
C1    C26   S    
C51   O9    D    
C49   H5    S    
C36   C44   A    
C33   N1    A    
C65   H35   S    
C61   H22   S    
C54   H11   S    
C27   C47   S    
C7    C9    A    
C21   C25   A    
C28   C48   S    
C33   O4    S    
C24   C26   A    
C51   H7    S    
C52   H8    S    
C58   H20   S    
C3    C40   A    
C5    C8    A    
C55   C67   S    
C6    C7    A    
C12   O16   A    
C10   C23   A    
C18   C66   A    
C56   C67   A    
C30   N3    A    
C49   O7    D    
C7    C19   A    
C12   C25   S    
C55   H18   S    
C55   C57   S    
C63   H29   S    
C46   N2    S    
C59   O13   D    
C6    C13   A    
C18   C64   S    
C9    C34   A    
C20   C26   A    
O20   Zn1   S    
C22   H40   S    
C15   C68   A    
C36   C38   A    
C57   H17   S    
C19   C65   S    
C15   H34   S    
C55   H19   S    
C2    C14   A    
C43   C46   A    
C14   H23   S    
C37   C60   S    
C6    C10   A    
C38   C59   S    
C60   H27   S    
C47   O5    D    
C37   C39   A    
C31   C45   A    
C21   C24   A    
C45   C66   A    
C53   H14   S    
C32   O2    S    
C37   C46   A    
C32   C56   A    
C3    C16   S    
C33   C68   A    
C17   O20   A    
C60   H26   S    
