data_mof_unit_50790.cif
_audit_creation_date              2012-12-10T18:21:51-0500
_audit_creation_method            fapswitch 2.2
_symmetry_space_group_name_H-M    P1
_symmetry_Int_Tables_number       1
_space_group_crystal_system       triclinic
_cell_length_a                    19.31155
_cell_length_b                    10.610434
_cell_length_c                    9.403197
_cell_angle_alpha                 89.880245
_cell_angle_beta                  91.251919
_cell_angle_gamma                 89.543276
_cell_volume                      1926.22592467

loop_
_atom_site_label
_atom_site_type_symbol
_atom_type_description
_atom_site_fract_x
_atom_site_fract_y
_atom_site_fract_z
_atom_type_partial_charge
C1    C     C_R   0.500181 0.259350 0.500291 0.768605
C2    C     C_R   0.499599 0.740631 0.499729 0.774971
C3    C     C_3   0.499920 0.040142 0.635580 -0.138776
C4    C     C_3   0.499583 0.959781 0.364669 -0.135359
C5    C     C_3   0.556518 0.956293 0.569593 -0.174867
C6    C     C_3   0.442926 0.043539 0.430689 -0.178873
C7    C     C_3   0.499390 0.877551 0.498969 0.029812
C8    C     C_3   0.500104 0.122405 0.501209 0.032716
C9    C     C_3   0.442752 0.958999 0.564841 -0.169643
C10   C     C_3   0.556787 0.040856 0.435472 -0.173009
C11   C     C_3   0.552624 0.560855 0.052870 -0.024527
C12   C     C_3   0.447399 0.439175 0.947085 -0.033735
C13   C     C_3   0.497028 0.613779 0.949160 -0.049943
C14   C     C_3   0.503030 0.386227 0.050769 -0.067058
C15   C     C_3   0.555670 0.447086 0.952105 -0.035056
C16   C     C_3   0.444364 0.552971 0.047829 -0.041399
C17   C     C_R   0.367212 0.499196 0.498385 0.858627
C18   C     C_R   0.632458 0.500623 0.501572 0.870053
C19   C     C_R   0.255705 0.495180 0.624293 -0.372236
C20   C     C_R   0.741138 0.577586 0.399151 -0.353805
C21   C     C_R   0.183550 0.500287 0.627610 0.416887
C22   C     C_R   0.812569 0.594902 0.404831 0.396507
C23   C     C_R   0.144667 0.520066 0.500525 -0.194290
C24   C     C_R   0.852263 0.543130 0.518324 -0.195727
C25   C     C_R   0.179423 0.527706 0.370058 0.281745
C26   C     C_R   0.819238 0.485141 0.633262 0.330219
C27   C     C_R   0.251701 0.508657 0.366167 0.368826
C28   C     C_R   0.747469 0.460314 0.621527 0.314069
C29   C     C_R   0.290563 0.500522 0.495218 -0.247964
C30   C     C_R   0.708214 0.510885 0.506539 -0.236210
C31   C     C_R   0.928168 0.543249 0.512130 0.483706
C32   C     C_R   0.068210 0.530494 0.503674 0.459003
Cu1   Cu    Cu3+1 0.500020 0.499990 0.643150 0.936825
Cu2   Cu    Cu3+1 0.499980 0.500010 0.356850 0.930341
H1    H     H_    0.284307 0.486163 0.724275 0.189288
H2    H     H_    0.711286 0.618474 0.311425 0.185518
H3    H     H_    0.602435 0.402503 0.906959 0.149099
H4    H     H_    0.397769 0.598288 0.092875 0.158727
H5    H     H_    0.602270 0.915044 0.626223 0.133232
H6    H     H_    0.396353 0.082392 0.374598 0.130219
H7    H     H_    0.500240 0.075755 0.746544 0.129959
H8    H     H_    0.499345 0.924249 0.253678 0.131034
H9    H     H_    0.396149 0.922190 0.617560 0.127676
H10   H     H_    0.603486 0.077659 0.383087 0.121222
H11   H     H_    0.494464 0.709808 0.902214 0.119611
H12   H     H_    0.505574 0.290153 0.097609 0.121506
H13   H     H_    0.596817 0.612239 0.102287 0.110593
H14   H     H_    0.403184 0.387892 0.897644 0.111507
N1    N     N_R   0.036136 0.567979 0.623500 -0.193154
N2    N     N_R   0.959940 0.507353 0.391489 -0.219202
N3    N     N_R   0.967467 0.573580 0.627834 -0.225536
N4    N     N_R   0.028652 0.500710 0.387595 -0.203768
N5    N     N_3   0.500050 0.499970 0.858290 -0.151661
N6    N     N_3   0.499950 0.500030 0.141710 -0.156693
O1    O     O_R   0.500030 0.316850 0.620870 -0.589265
O2    O     O_R   0.499970 0.683150 0.379130 -0.587667
O3    O     O_R   0.500000 0.316860 0.379090 -0.595825
O4    O     O_R   0.500000 0.683140 0.620910 -0.589595
O5    O     O_R   0.400160 0.499980 0.620930 -0.592397
O6    O     O_R   0.599840 0.500020 0.379070 -0.593343
O7    O     O_R   0.400130 0.499990 0.379150 -0.543006
O8    O     O_R   0.599870 0.500010 0.620850 -0.539491
O9    O     O_3   0.151289 0.491917 0.757096 -0.563275
C33   C     C_3   0.147927 0.363797 0.797196 0.058117
H15   H     H_    0.199849 0.329439 0.834371 0.131596
H16   H     H_    0.128895 0.303304 0.707791 0.141541
C34   C     C_3   0.097607 0.350443 0.918399 -0.761683
H17   H     H_    0.044822 0.380299 0.882313 0.262255
H18   H     H_    0.096074 0.250643 0.953911 0.197093
H19   H     H_    0.114230 0.410042 0.009409 0.271279
O10   O     O_3   0.843294 0.662044 0.297456 -0.577629
C35   C     C_3   0.852343 0.787516 0.343840 0.072553
H20   H     H_    0.886969 0.791500 0.440041 0.139230
H21   H     H_    0.801570 0.832355 0.368204 0.135132
C36   C     C_3   0.885683 0.863478 0.226831 -0.801707
H22   H     H_    0.850123 0.869496 0.132736 0.245393
H23   H     H_    0.896544 0.960386 0.265182 0.202519
H24   H     H_    0.935096 0.818046 0.195801 0.259461
O11   O     O_3   0.142710 0.548893 0.244171 -0.605575
C37   C     C_3   0.139345 0.679800 0.217761 0.083643
H25   H     H_    0.191993 0.716910 0.196967 0.161592
H26   H     H_    0.116933 0.731046 0.309690 0.132966
C38   C     C_3   0.092789 0.703419 0.086645 -0.302634
H27   H     H_    0.114962 0.654606 0.993392 0.261911
H28   H     H_    0.040504 0.664291 0.105316 0.233086
C39   C     C_3   0.085783 0.843834 0.053509 -0.945908
H29   H     H_    0.062830 0.894491 0.144607 0.254135
H30   H     H_    0.051390 0.857424 0.958436 0.265573
H31   H     H_    0.137289 0.884348 0.031088 0.258797
O12   O     O_3   0.859221 0.438484 0.746395 -0.596747
C40   C     C_3   0.838082 0.489645 0.878105 0.122505
H32   H     H_    0.837307 0.410791 0.955925 0.134642
H33   H     H_    0.784996 0.531733 0.877514 0.156506
C41   C     C_3   0.890411 0.586985 0.933085 -0.341050
H34   H     H_    0.887401 0.592684 0.050591 0.235593
H35   H     H_    0.943955 0.556539 0.908195 0.248099
C42   C     C_3   0.875759 0.718168 0.871508 -0.821647
H36   H     H_    0.875599 0.716968 0.753707 0.258364
H37   H     H_    0.916361 0.784276 0.909564 0.244735
H38   H     H_    0.824563 0.753224 0.906589 0.235169
O13   O     O_3   0.285030 0.512110 0.237039 -0.603476
C43   C     C_3   0.270118 0.402507 0.156226 0.095992
H39   H     H_    0.276782 0.426962 0.042417 0.156226
H40   H     H_    0.215867 0.369484 0.165885 0.167026
C44   C     C_3   0.320154 0.294543 0.195626 -0.375610
H41   H     H_    0.374331 0.326696 0.186259 0.251428
H42   H     H_    0.312082 0.265203 0.307506 0.199765
C45   C     C_3   0.308999 0.181334 0.098139 -0.972541
H43   H     H_    0.255555 0.144950 0.108421 0.262828
H44   H     H_    0.346331 0.105144 0.127819 0.257877
H45   H     H_    0.317431 0.208271 0.985643 0.248680
O14   O     O_3   0.715425 0.387001 0.722399 -0.619311
C46   C     C_3   0.730403 0.258853 0.695354 0.069389
H46   H     H_    0.786744 0.239258 0.711648 0.183734
H47   H     H_    0.714673 0.232817 0.584422 0.117484
C47   C     C_3   0.690191 0.176712 0.798012 -0.333234
H48   H     H_    0.697917 0.211868 0.908484 0.218208
H49   H     H_    0.634014 0.182521 0.770002 0.216140
C48   C     C_3   0.714317 0.039488 0.791902 -0.958741
H50   H     H_    0.712148 0.004538 0.680690 0.249483
H51   H     H_    0.680408 0.980276 0.858045 0.253248
H52   H     H_    0.768391 0.030570 0.833710 0.260753

loop_
_geom_bond_atom_site_label_1
_geom_bond_atom_site_label_2
_ccdc_geom_bond_type
Cu1   O1    S    
C35   H21   S    
Cu2   O2    S    
Cu1   O4    S    
C27   C29   A    
C1    C8    S    
C17   C29   S    
C45   H43   S    
C11   H13   S    
C2    C7    S    
C12   H14   S    
C6    C9    S    
C42   H36   S    
C14   H12   S    
C20   C30   A    
C28   O14   S    
C44   H42   S    
O13   C43   S    
C15   N5    S    
C19   C21   A    
C24   C26   A    
C35   C36   S    
C39   H30   S    
C47   H48   S    
C43   C44   S    
C15   H3    S    
C17   O7    A    
C11   C15   S    
C32   N4    A    
C12   C16   S    
C45   H44   S    
Cu1   O8    S    
N1    N3    A    
Cu2   O3    S    
N2    N4    A    
C18   C30   S    
C12   N5    S    
C35   H20   S    
C46   C47   S    
Cu1   O5    S    
Cu2   O6    S    
C41   H34   S    
C4    C7    S    
O14   C46   S    
C42   H37   S    
C13   N5    S    
C48   H51   S    
Cu1   N5    S    
C44   C45   S    
C9    H9    S    
C10   H10   S    
C34   H17   S    
C33   C34   S    
C37   H26   S    
C3    C8    S    
C40   H32   S    
C5    C7    S    
C39   H29   S    
C18   O8    A    
C6    C8    S    
C41   C42   S    
C27   O13   S    
Cu2   O7    S    
O11   C37   S    
C34   H18   S    
C33   H16   S    
C41   H35   S    
C36   H22   S    
C3    C9    S    
C1    O3    A    
C40   H33   S    
C38   H27   S    
Cu1   Cu2   S    
C43   H40   S    
C36   H23   S    
C11   N6    S    
C17   O5    A    
C4    C6    S    
C14   N6    S    
C12   C14   S    
Cu2   N6    S    
C21   C23   A    
C22   C24   A    
C26   O12   S    
C20   C22   A    
C31   N2    A    
C4    C10   S    
C19   C29   A    
C22   O10   S    
C42   H38   S    
C37   C38   S    
C46   H46   S    
C48   H52   S    
C18   O6    A    
C7    C9    S    
C47   C48   S    
C3    H7    S    
C38   H28   S    
C25   O11   S    
C31   N3    A    
C37   H25   S    
C3    C5    S    
C39   H31   S    
C48   H50   S    
C2    O4    A    
C25   C27   A    
C44   H41   S    
C26   C28   A    
C45   H45   S    
C34   H19   S    
C23   C32   S    
C5    H5    S    
C1    O1    A    
C24   C31   S    
O10   C35   S    
C2    O2    A    
C33   H15   S    
C40   C41   S    
C13   H11   S    
C11   C13   S    
O12   C40   S    
C4    H8    S    
C28   C30   A    
C47   H49   S    
C6    H6    S    
C23   C25   A    
C43   H39   S    
C36   H24   S    
C16   N6    S    
C32   N1    A    
C21   O9    S    
O9    C33   S    
C20   H2    S    
C5    C10   S    
C38   C39   S    
C8    C10   S    
C13   C16   S    
C14   C15   S    
C19   H1    S    
C16   H4    S    
C46   H47   S    
