data_mof_unit_32161.cif
_audit_creation_date              2012-12-10T17:33:48-0500
_audit_creation_method            fapswitch 2.2
_symmetry_space_group_name_H-M    P1
_symmetry_Int_Tables_number       1
_space_group_crystal_system       triclinic
_cell_length_a                    11.692738
_cell_length_b                    12.337059
_cell_length_c                    13.151228
_cell_angle_alpha                 116.678266
_cell_angle_beta                  77.894305
_cell_angle_gamma                 101.074076
_cell_volume                      1647.01428104

loop_
_atom_site_label
_atom_site_type_symbol
_atom_type_description
_atom_site_fract_x
_atom_site_fract_y
_atom_site_fract_z
_atom_type_partial_charge
C1    C     C_R   0.510800 0.854838 0.286359 0.772863
C2    C     C_R   0.460876 0.227509 0.835196 -0.145434
C3    C     C_R   0.589345 0.814554 0.084362 -0.181394
C4    C     C_R   0.609767 0.735833 0.968606 -0.172050
C5    C     C_R   0.567098 0.612859 0.930888 -0.104481
C6    C     C_R   0.500878 0.566397 0.008812 0.096034
C7    C     C_R   0.464440 0.650693 0.122596 0.065312
C8    C     C_R   0.463886 0.439807 0.975679 0.036910
C9    C     C_R   0.372562 0.403231 0.047900 0.095002
C10   C     C_R   0.326345 0.489879 0.153657 -0.207975
C11   C     C_R   0.372462 0.611515 0.191280 -0.192739
C12   C     C_R   0.715708 0.999593 0.499846 0.812935
C13   C     C_R   0.517077 0.348018 0.875348 0.341669
C14   C     C_R   0.368546 0.193544 0.905737 -0.237526
C15   C     C_R   0.518429 0.772944 0.162862 -0.102467
C16   C     C_R   0.693821 0.346962 0.332388 0.305616
C17   C     C_R   0.342846 0.760132 0.645972 0.082168
C18   C     C_R   0.309392 0.664418 0.678449 -0.254583
C19   C     C_R   0.369525 0.561234 0.623793 -0.190738
C20   C     C_R   0.464673 0.552476 0.535362 0.021945
C21   C     C_R   0.495937 0.653340 0.505563 0.287312
C22   C     C_R   0.530090 0.448285 0.476074 -0.074276
C23   C     C_R   0.484129 0.144981 0.713459 0.786983
C24   C     C_R   0.627087 0.448095 0.389999 0.056746
C25   C     C_R   0.653547 0.547011 0.361195 -0.264590
C26   C     C_R   0.590760 0.647128 0.418439 -0.171426
C27   C     C_R   0.502842 0.343114 0.497944 0.009218
C28   C     C_R   0.659039 0.246033 0.356726 0.063514
C29   C     C_R   0.284288 0.000369 0.500116 0.813951
C30   C     C_1   0.837362 0.999145 0.499907 -0.177203
C31   C     C_1   0.939983 0.999457 0.499870 0.004991
C32   C     C_1   0.060003 0.000196 0.499831 0.002475
C33   C     C_1   0.162630 0.000632 0.499883 -0.181593
C34   C     C_R   0.327363 0.280266 0.013205 -0.185782
Cu1   Cu    Cu3+1 0.526510 0.098270 0.475420 0.948639
Cu2   Cu    Cu3+1 0.473490 0.901730 0.524580 0.927145
H1    H     H_    0.722577 0.548387 0.292562 0.165501
H2    H     H_    0.431081 0.335432 0.561508 0.138243
H3    H     H_    0.340008 0.490449 0.653099 0.138265
H4    H     H_    0.620567 0.718143 0.391109 0.205390
H5    H     H_    0.256398 0.252100 0.067075 0.152205
H6    H     H_    0.629845 0.908118 0.112549 0.161574
H7    H     H_    0.661198 0.769699 0.908032 0.152572
H8    H     H_    0.708104 0.167617 0.312537 0.147749
N1    N     N_R   0.566700 0.246290 0.438210 -0.217953
N2    N     N_R   0.434010 0.754320 0.561170 -0.208276
O1    O     O_R   0.533340 0.972510 0.318140 -0.579739
O2    O     O_R   0.488570 0.806530 0.359650 -0.603387
O3    O     O_R   0.685190 0.083000 0.479260 -0.571640
O4    O     O_R   0.640410 0.917020 0.520770 -0.590542
O5    O     O_R   0.511430 0.193470 0.640350 -0.562822
O6    O     O_R   0.466660 0.027490 0.681860 -0.582028
O7    O     O_R   0.359590 0.082980 0.479230 -0.571414
O8    O     O_R   0.314810 0.917000 0.520740 -0.585669
H9    H     H_    0.325466 0.100867 0.876112 0.164470
O9    O     O_3   0.792547 0.342567 0.252559 -0.739468
H10   H     H_    0.837024 0.424874 0.277637 0.321970
H11   H     H_    0.295912 0.840035 0.689047 0.127086
H12   H     H_    0.236745 0.670308 0.746376 0.150734
H13   H     H_    0.255059 0.463298 0.208370 0.151063
O10   O     O_3   0.626720 0.375459 0.822328 -0.746366
H14   H     H_    0.664837 0.299631 0.774936 0.329385
H15   H     H_    0.582194 0.556957 0.839495 0.192465
H16   H     H_    0.330907 0.674886 0.272528 0.173465

loop_
_geom_bond_atom_site_label_1
_geom_bond_atom_site_label_2
_ccdc_geom_bond_type
C14   C34   A    
C12   O4    A    
C21   C26   A    
C16   O9    S    
C1    O2    A    
C16   C28   A    
C6    C7    A    
C1    C15   S    
C4    H7    S    
Cu1   O7    S    
C29   O7    A    
C9    C10   A    
C23   O5    A    
Cu1   Cu2   S    
Cu2   O6    S    
C17   H11   S    
Cu1   O1    S    
C32   C33   T    
C27   N1    A    
C19   C20   A    
C7    C15   A    
C14   H9    S    
C25   C26   A    
C24   C25   A    
C3    C15   A    
C16   C24   A    
O9    H10   S    
Cu2   N2    S    
C30   C31   T    
C26   H4    S    
C23   O6    A    
C8    C13   A    
C34   H5    S    
C19   H3    S    
C5    C6    A    
Cu1   O3    S    
C20   C22   A    
C9    C34   A    
C7    C11   A    
Cu2   O2    S    
C22   C27   A    
Cu1   O5    S    
O10   H14   S    
C2    C14   A    
C22   C24   A    
C28   N1    A    
C12   O3    A    
Cu2   O8    S    
C29   O8    A    
C27   H2    S    
C3    C4    A    
Cu1   N1    S    
C29   C33   S    
C18   H12   S    
C3    H6    S    
C13   O10   S    
C17   N2    A    
C5    H15   S    
C8    C9    A    
C17   C18   A    
C21   N2    A    
C10   C11   A    
C2    C23   S    
C2    C13   A    
C10   H13   S    
C18   C19   A    
C6    C8    A    
C25   H1    S    
C20   C21   A    
C12   C30   S    
C28   H8    S    
C1    O1    A    
C31   C32   S    
Cu2   O4    S    
C4    C5    A    
C11   H16   S    
