data_mof_unit_10608.cif
_audit_creation_date              2012-10-26T21:24:46-0400
_audit_creation_method            fapswitch 2.2
_symmetry_space_group_name_H-M    P1
_symmetry_Int_Tables_number       1
_space_group_crystal_system       triclinic
_cell_length_a                    9.548468
_cell_length_b                    10.808738
_cell_length_c                    15.413981
_cell_angle_alpha                 89.999165
_cell_angle_beta                  74.386379
_cell_angle_gamma                 90.061521
_cell_volume                      1532.12426148

loop_
_atom_site_label
_atom_site_type_symbol
_atom_type_description
_atom_site_fract_x
_atom_site_fract_y
_atom_site_fract_z
_atom_type_partial_charge
C1    C     C_R   0.001234 0.262470 0.496634 0.626116
C2    C     C_R   0.224938 0.469479 0.040632 0.055953
C3    C     C_R   0.323333 0.509668 0.089629 0.000908
C4    C     C_R   0.918414 0.501195 0.672112 0.607455
C5    C     C_R   0.077542 0.449844 0.086207 -0.096604
C6    C     C_R   0.028799 0.463929 0.179328 -0.135280
C7    C     C_R   0.272216 0.518633 0.183817 -0.119901
C8    C     C_R   0.112639 0.063935 0.515232 -0.007751
C9    C     C_R   0.006017 0.129204 0.487639 0.053364
C10   C     C_R   0.911369 0.062738 0.447797 0.212897
C11   C     C_R   0.912156 0.933448 0.449777 -0.105939
C12   C     C_R   0.673228 0.520842 0.906338 0.047023
C13   C     C_R   0.006784 0.870401 0.490019 -0.020453
C14   C     C_R   0.114169 0.936999 0.515417 -0.040476
C15   C     C_3   0.163857 0.930686 0.599300 -0.211412
C16   C     C_R   0.000906 0.737534 0.498582 0.537917
C17   C     C_3   0.162862 0.071583 0.599148 0.119277
C18   C     C_R   0.603325 0.555518 0.431741 0.165439
C19   C     C_R   0.547232 0.434483 0.562173 0.027720
C20   C     C_R   0.398300 0.434702 0.562317 0.003765
C21   C     C_R   0.456120 0.555066 0.431529 0.164142
C22   C     C_3   0.461364 0.687569 0.404223 -0.267966
C23   C     C_R   0.760976 0.591588 0.948930 0.025742
C24   C     C_3   0.619605 0.688640 0.405666 -0.278122
C25   C     C_R   0.081775 0.499362 0.327628 0.544826
C26   C     C_R   0.873601 0.518441 0.769805 0.059856
C27   C     C_R   0.126810 0.495459 0.228741 0.002133
C28   C     C_R   0.901607 0.627300 0.901044 -0.100522
C29   C     C_R   0.954505 0.596167 0.810592 -0.110821
C30   C     C_R   0.739788 0.470799 0.820263 0.210919
C31   C     C_R   0.523034 0.505047 0.950956 0.014224
C32   C     C_R   0.470760 0.535848 0.043570 0.022891
C33   C     C_R   0.565612 0.597546 0.085822 -0.114180
C34   C     C_R   0.706762 0.627673 0.038377 -0.118042
C35   C     C_R   0.421653 0.470612 0.903654 -0.053826
C36   C     C_R   0.275919 0.450674 0.947319 0.223792
Cl1   Cl    Cl    0.789292 0.135025 0.395966 -0.588806
Cl2   Cl    Cl    0.029828 0.135321 0.693245 -0.484766
Cl3   Cl    Cl    0.163189 0.396358 0.881734 -0.577975
Cl4   Cl    Cl    0.678910 0.330280 0.782927 -0.531649
Cu1   Cu    Cu3+1 0.140670 0.499980 0.500000 0.980463
Cu2   Cu    Cu3+1 0.859330 0.500020 0.500000 1.024859
H1    H     H_    0.773813 0.680062 0.071947 0.118371
H2    H     H_    0.345409 0.538772 0.224288 0.124682
H3    H     H_    0.391669 0.747864 0.456714 0.160219
H4    H     H_    0.696494 0.702692 0.338070 0.131020
H5    H     H_    0.638625 0.748046 0.460170 0.157675
H6    H     H_    0.915477 0.446179 0.212885 0.152434
H7    H     H_    0.968014 0.683936 0.932417 0.137721
H8    H     H_    0.058483 0.632918 0.772468 0.144113
H9    H     H_    0.531161 0.631620 0.153966 0.101396
H10   H     H_    0.452432 0.464634 0.831112 0.184845
H11   H     H_    0.999038 0.422497 0.050632 0.187783
H12   H     H_    0.837208 0.882872 0.421483 0.148472
H13   H     H_    0.081479 0.887482 0.656393 0.175194
H14   H     H_    0.275038 0.891360 0.586518 0.115030
H15   H     H_    0.272844 0.113458 0.587000 0.147430
H16   H     H_    0.580457 0.382987 0.613358 0.181135
H17   H     H_    0.320033 0.383767 0.613757 0.166192
H18   H     H_    0.446682 0.699266 0.335562 0.124723
N1    N     N_R   0.648210 0.500930 0.499430 -0.233557
N2    N     N_R   0.352300 0.500890 0.499430 -0.243257
O1    O     O_R   0.118810 0.319640 0.500000 -0.499189
O2    O     O_R   0.881230 0.319680 0.499990 -0.430491
O3    O     O_R   0.055580 0.499970 0.629840 -0.492518
O4    O     O_R   0.818000 0.500010 0.629830 -0.487342
O5    O     O_R   0.118770 0.680320 0.500010 -0.514005
O6    O     O_R   0.881190 0.680360 0.500000 -0.519552
O7    O     O_R   0.182000 0.499990 0.370170 -0.509444
O8    O     O_R   0.944420 0.500030 0.370160 -0.496269

loop_
_geom_bond_atom_site_label_1
_geom_bond_atom_site_label_2
_ccdc_geom_bond_type
C19   H16   S    
C4    O4    A    
C18   N1    A    
C26   C30   A    
C16   O6    A    
C13   C14   A    
C25   C27   S    
C18   C21   A    
C9    C10   A    
C4    C26   S    
C6    C27   A    
Cu2   N1    S    
C29   H8    S    
C23   C34   A    
C24   H4    S    
C15   H14   S    
C1    C9    S    
C33   C34   A    
C30   Cl4   S    
C3    C32   A    
Cu1   O5    S    
C16   O5    A    
C23   C28   A    
C32   C33   A    
C20   H17   S    
Cu2   O6    S    
C11   C13   A    
C12   C23   A    
C21   N2    A    
C5    C6    A    
C11   H12   S    
C6    H6    S    
Cu1   N2    S    
C19   N1    A    
C10   Cl1   S    
C18   C24   S    
C1    O1    A    
C22   C24   S    
C5    H11   S    
C28   C29   A    
C2    C3    A    
C3    C7    A    
C17   Cl2   S    
C36   Cl3   S    
C12   C31   A    
C20   N2    A    
C4    O3    A    
C8    C17   S    
C31   C35   A    
C35   C36   A    
C2    C5    A    
C25   O7    A    
C10   C11   A    
Cu1   O1    S    
C1    O2    A    
Cu2   O2    S    
Cu2   O8    S    
C22   H3    S    
C7    C27   A    
C26   C29   A    
Cu1   O7    S    
Cu1   Cu2   S    
C13   C16   S    
C2    C36   A    
C35   H10   S    
C15   C17   S    
C14   C15   S    
Cu1   O3    S    
C25   O8    A    
C8    C14   A    
C12   C30   A    
C21   C22   S    
C24   H5    S    
C22   H18   S    
C34   H1    S    
C7    H2    S    
C31   C32   A    
Cu2   O4    S    
C33   H9    S    
C19   C20   A    
C17   H15   S    
C8    C9    A    
C28   H7    S    
C15   H13   S    
