data_mof_unit_58082.cif
_audit_creation_date              2013-03-05T15:51:38-0500
_audit_creation_method            fapswitch 2.2
_symmetry_space_group_name_H-M    P1
_symmetry_Int_Tables_number       1
_space_group_crystal_system       triclinic
_cell_length_a                    31.264894
_cell_length_b                    18.145602
_cell_length_c                    25.829447
_cell_angle_alpha                 91.515408
_cell_angle_beta                  143.735962
_cell_angle_gamma                 88.635458
_cell_volume                      8664.5841651

loop_
_atom_site_label
_atom_site_type_symbol
_atom_site_description
_atom_site_fract_x
_atom_site_fract_y
_atom_site_fract_z
_atom_type_partial_charge
Zn1   Zn    Zn3+2 0.000000 0.086750 0.293940 1.095374
Zn2   Zn    Zn3+2 1.000000 0.913250 0.706060 1.098311
Zn3   Zn    Zn3+2 0.000000 0.086750 0.706060 1.079871
Zn4   Zn    Zn3+2 0.000000 0.913250 0.293940 1.084608
Zn5   Zn    Zn3+2 0.500000 0.586750 0.293940 1.078371
Zn6   Zn    Zn3+2 0.500000 0.413250 0.706060 1.093632
Zn7   Zn    Zn3+2 0.500000 0.586750 0.706060 1.076609
Zn8   Zn    Zn3+2 0.500000 0.413250 0.293940 1.086263
Zn9   Zn    Zn3+2 0.913220 0.000000 0.119290 0.990847
Zn10  Zn    Zn3+2 0.086780 0.000000 0.880710 1.012641
Zn11  Zn    Zn3+2 0.413220 0.500000 0.119290 0.979611
Zn12  Zn    Zn3+2 0.586780 0.500000 0.880710 0.989454
Zn13  Zn    Zn3+2 0.086730 0.000000 0.292800 1.003914
Zn14  Zn    Zn3+2 0.913270 0.000000 0.707200 0.995518
Zn15  Zn    Zn3+2 0.586730 0.500000 0.292800 1.002953
Zn16  Zn    Zn3+2 0.413270 0.500000 0.707200 0.999922
O1    O     O_3   0.999990 0.000000 0.249990 -0.528922
O2    O     O_3   0.000010 1.000000 0.750010 -0.531613
O3    O     O_3   0.499990 0.500000 0.249990 -0.527270
O4    O     O_3   0.500010 0.500000 0.750010 -0.526304
O5    O     O_R   0.914560 0.853840 0.195310 -0.611704
O6    O     O_R   0.085440 0.146160 0.804690 -0.626825
O7    O     O_R   0.085440 0.853840 0.804690 -0.604514
O8    O     O_R   0.914560 0.146160 0.195310 -0.601816
O9    O     O_R   0.414560 0.353840 0.195310 -0.590388
O10   O     O_R   0.585440 0.646160 0.804690 -0.612342
O11   O     O_R   0.585440 0.353840 0.804690 -0.593004
O12   O     O_R   0.414560 0.646160 0.195310 -0.599541
O13   O     O_R   0.085440 0.146150 0.366190 -0.620351
O14   O     O_R   0.914560 0.853850 0.633810 -0.620320
O15   O     O_R   0.914560 0.146150 0.633810 -0.616745
O16   O     O_R   0.085440 0.853850 0.366190 -0.613101
O17   O     O_R   0.585440 0.646150 0.366190 -0.624221
O18   O     O_R   0.414560 0.353850 0.633810 -0.619477
O19   O     O_R   0.414560 0.646150 0.633810 -0.617017
O20   O     O_R   0.585440 0.353850 0.366190 -0.596961
O21   O     O_R   0.853820 0.085430 0.073070 -0.624898
O22   O     O_R   0.146180 0.914570 0.926930 -0.611034
O23   O     O_R   0.146180 0.085430 0.926930 -0.626044
O24   O     O_R   0.853820 0.914570 0.073070 -0.663077
O25   O     O_R   0.353820 0.585430 0.073070 -0.627863
O26   O     O_R   0.646180 0.414570 0.926930 -0.627732
O27   O     O_R   0.646180 0.585430 0.926930 -0.662777
O28   O     O_R   0.353820 0.414570 0.073070 -0.667043
O29   O     O_R   0.146150 0.914540 0.365390 -0.651543
O30   O     O_R   0.853850 0.085460 0.634610 -0.653882
O31   O     O_R   0.853850 0.914540 0.634610 -0.635287
O32   O     O_R   0.146150 0.085460 0.365390 -0.633393
O33   O     O_R   0.646150 0.414540 0.365390 -0.655709
O34   O     O_R   0.353850 0.585460 0.634610 -0.653433
O35   O     O_R   0.353850 0.414540 0.634610 -0.634489
O36   O     O_R   0.646150 0.585460 0.365390 -0.633330
O37   O     O_R   0.939240 0.000000 0.071950 -0.628421
O38   O     O_R   0.060760 0.000000 0.928050 -0.636779
O39   O     O_R   0.439240 0.500000 0.071950 -0.627324
O40   O     O_R   0.560760 0.500000 0.928050 -0.629841
O41   O     O_R   0.000020 0.939290 0.367320 -0.575970
O42   O     O_R   0.999980 0.060710 0.632680 -0.573867
O43   O     O_R   0.999980 0.939290 0.632680 -0.587190
O44   O     O_R   0.000020 0.060710 0.367320 -0.585432
O45   O     O_R   0.500020 0.439290 0.367320 -0.595999
O46   O     O_R   0.499980 0.560710 0.632680 -0.581207
O47   O     O_R   0.499980 0.439290 0.632680 -0.591436
O48   O     O_R   0.500020 0.560710 0.367320 -0.591674
O49   O     O_R   0.060680 0.000000 0.193390 -0.631579
O50   O     O_R   0.939320 0.000000 0.806610 -0.632899
O51   O     O_R   0.560680 0.500000 0.193390 -0.632303
O52   O     O_R   0.439320 0.500000 0.806610 -0.633043
C1    C     C_R   0.856651 0.863561 0.109977 0.824291
C2    C     C_R   0.139653 0.139207 0.888572 0.838179
C3    C     C_R   0.139567 0.859002 0.887241 0.794819
C4    C     C_R   0.860478 0.141124 0.112827 0.786224
C5    C     C_R   0.358890 0.361057 0.110126 0.803329
C6    C     C_R   0.643251 0.636630 0.890174 0.828274
C7    C     C_R   0.639449 0.358707 0.887341 0.790574
C8    C     C_R   0.360048 0.640642 0.112586 0.776247
C9    C     C_R   0.141380 0.139298 0.394317 0.814875
C10   C     C_R   0.858482 0.860729 0.605589 0.813579
C11   C     C_R   0.855981 0.136005 0.603241 0.817872
C12   C     C_R   0.144013 0.863919 0.396732 0.822876
C13   C     C_R   0.641247 0.639761 0.393726 0.808942
C14   C     C_R   0.358895 0.359984 0.606736 0.805859
C15   C     C_R   0.356085 0.636370 0.603774 0.819521
C16   C     C_R   0.643741 0.363336 0.395754 0.829044
C17   C     C_R   0.002005 0.993272 0.110627 0.818855
C18   C     C_R   0.998063 0.005346 0.889658 0.804679
C19   C     C_R   0.502117 0.494742 0.110643 0.815014
C20   C     C_R   0.497998 0.505479 0.889446 0.810559
C21   C     C_R   0.000295 0.999850 0.391804 0.990632
C22   C     C_R   0.999665 0.000027 0.608131 0.998513
C23   C     C_R   0.501675 0.500432 0.393247 0.946673
C24   C     C_R   0.498951 0.499843 0.607433 0.960588
C25   C     C_3   0.006301 0.929600 0.489926 0.195613
C26   C     C_3   0.993989 0.069666 0.510251 0.197110
C27   C     C_3   0.944609 0.961553 0.462931 0.162252
C28   C     C_3   0.055603 0.037595 0.537120 0.163656
C29   C     C_3   0.522520 0.435015 0.504972 0.198089
C30   C     C_3   0.479431 0.567051 0.497249 0.202555
C31   C     C_3   0.455364 0.450392 0.472556 0.172580
C32   C     C_3   0.546676 0.551344 0.529744 0.179167
C33   C     C_3   0.062185 0.970440 0.578993 0.052083
C34   C     C_3   0.937957 0.028781 0.421079 0.046974
C35   C     C_3   0.568180 0.486270 0.585101 0.085584
C36   C     C_3   0.433638 0.515498 0.417042 0.083639
C37   C     C_3   0.999490 0.002256 0.551269 -0.326788
C38   C     C_3   0.000659 0.997068 0.448798 -0.324915
C39   C     C_3   0.499725 0.501568 0.551500 -0.360351
C40   C     C_3   0.502069 0.500125 0.450498 -0.351741
C41   C     C_R   0.119584 0.293948 0.421243 0.189911
C42   C     C_R   0.880004 0.706155 0.578455 0.187123
C43   C     C_R   0.824252 0.222520 0.477971 0.165500
C44   C     C_R   0.176251 0.776894 0.522349 0.166464
C45   C     C_R   0.616593 0.796655 0.412688 0.176458
C46   C     C_R   0.384400 0.201729 0.592796 0.185982
C47   C     C_R   0.323472 0.723811 0.478888 0.160789
C48   C     C_R   0.678213 0.277827 0.522736 0.155794
C49   C     C_R   0.094399 0.366057 0.391006 -0.188377
C50   C     C_R   0.905537 0.634146 0.608946 -0.190284
C51   C     C_R   0.844725 0.281024 0.467408 -0.144750
C52   C     C_R   0.156190 0.718378 0.533474 -0.139659
C53   C     C_R   0.591509 0.868509 0.381138 -0.198309
C54   C     C_R   0.409509 0.130252 0.625905 -0.192443
C55   C     C_R   0.345757 0.782629 0.471021 -0.142035
C56   C     C_R   0.657284 0.219831 0.533232 -0.131326
C57   C     C_R   0.633593 0.919121 0.395673 0.329877
C58   C     C_R   0.366389 0.080212 0.610088 0.333452
C59   C     C_R   0.333238 0.855154 0.476632 0.293573
C60   C     C_R   0.670060 0.146855 0.528993 0.304635
C61   C     C_R   0.134603 0.416573 0.402140 0.333213
C62   C     C_R   0.865656 0.583385 0.598138 0.334048
C63   C     C_R   0.830245 0.353643 0.469839 0.297360
C64   C     C_R   0.170225 0.645711 0.530454 0.294804
C65   C     C_R   0.704477 0.898974 0.451376 -0.207285
C66   C     C_R   0.294926 0.100563 0.551967 -0.209413
C67   C     C_R   0.285729 0.867331 0.472293 -0.139679
C68   C     C_R   0.715952 0.133694 0.530964 -0.141684
C69   C     C_R   0.204729 0.396495 0.454907 -0.206434
C70   C     C_R   0.795524 0.603134 0.545507 -0.208459
C71   C     C_R   0.783419 0.365821 0.466573 -0.142467
C72   C     C_R   0.216508 0.633505 0.532880 -0.142365
C73   C     C_R   0.729108 0.825916 0.481376 0.002503
C74   C     C_R   0.270795 0.173509 0.521192 0.002337
C75   C     C_R   0.260500 0.807567 0.476420 0.012968
C76   C     C_R   0.739878 0.192670 0.524204 0.011369
C77   C     C_R   0.230085 0.323584 0.485326 0.001449
C78   C     C_R   0.770010 0.676038 0.515323 -0.000645
C79   C     C_R   0.759671 0.306385 0.473209 0.008376
C80   C     C_R   0.239964 0.692969 0.525836 0.010025
C81   C     C_R   0.181626 0.269346 0.454080 -0.033264
C82   C     C_R   0.818089 0.730532 0.546023 -0.032590
C83   C     C_R   0.792301 0.237020 0.495684 -0.001544
C84   C     C_R   0.207452 0.762336 0.503703 -0.004609
C85   C     C_R   0.680214 0.771551 0.449134 -0.025760
C86   C     C_R   0.320345 0.227459 0.554625 -0.032674
C87   C     C_R   0.292188 0.738078 0.497371 -0.005517
C88   C     C_R   0.708113 0.262192 0.502700 0.001112
C89   C     C_R   0.800749 0.805902 0.540004 -0.096086
C90   C     C_R   0.198939 0.193909 0.460485 -0.092634
C91   C     C_R   0.208406 0.815120 0.465668 -0.092697
C92   C     C_R   0.791506 0.184581 0.534162 -0.091737
C93   C     C_R   0.301998 0.303552 0.544316 -0.093518
C94   C     C_R   0.698322 0.695748 0.457338 -0.096375
C95   C     C_R   0.708161 0.314254 0.463551 -0.094114
C96   C     C_R   0.291593 0.685327 0.535629 -0.093141
H1    H     H_    0.045752 0.383782 0.363638 0.238573
H2    H     H_    0.954169 0.616658 0.636181 0.238701
H3    H     H_    0.871910 0.269706 0.457478 0.251550
H4    H     H_    0.129922 0.729668 0.544632 0.253406
H5    H     H_    0.541564 0.886238 0.350793 0.233884
H6    H     H_    0.459696 0.111854 0.657185 0.238844
H7    H     H_    0.373297 0.771741 0.461568 0.257413
H8    H     H_    0.630825 0.231536 0.543974 0.257854
H9    H     H_    0.739487 0.939493 0.468571 0.182190
H10   H     H_    0.259017 0.060413 0.533392 0.181793
H11   H     H_    0.271982 0.923346 0.470427 0.213349
H12   H     H_    0.729640 0.077435 0.533453 0.214452
H13   H     H_    0.238637 0.437103 0.470073 0.181708
H14   H     H_    0.761808 0.562368 0.530544 0.182276
H15   H     H_    0.769118 0.421857 0.463585 0.218013
H16   H     H_    0.230706 0.577473 0.535678 0.217920
C97   C     C_R   0.823389 0.765415 0.167649 0.215581
C98   C     C_R   0.187273 0.219285 0.840291 0.216319
C99   C     C_R   0.189699 0.761985 0.840530 0.171384
C100  C     C_R   0.811659 0.239079 0.161190 0.170928
C101  C     C_R   0.323902 0.263595 0.165635 0.182135
C102  C     C_R   0.679048 0.734208 0.835011 0.219221
C103  C     C_R   0.686330 0.253955 0.838422 0.186855
C104  C     C_R   0.302514 0.728004 0.153611 0.158486
C105  C     C_R   0.839347 0.702080 0.212042 0.178385
C106  C     C_R   0.176572 0.277874 0.795363 0.195495
C107  C     C_R   0.232630 0.742608 0.838465 0.212957
C108  C     C_R   0.769520 0.258901 0.164326 0.212059
C109  C     C_R   0.282450 0.267414 0.171212 0.198480
C110  C     C_R   0.664620 0.797325 0.791447 0.178127
C111  C     C_R   0.726944 0.226338 0.834632 0.193208
C112  C     C_R   0.256933 0.743619 0.152291 0.215388
C113  C     C_R   0.208784 0.248631 0.097243 0.073646
C114  C     C_R   0.680588 0.867515 0.827974 0.076928
C115  C     C_R   0.801643 0.215958 0.913012 0.137684
C116  C     C_R   0.185618 0.766508 0.074673 0.125532
C117  C     C_R   0.820852 0.632226 0.173721 0.081460
C118  C     C_R   0.193417 0.350000 0.828133 0.070402
C119  C     C_R   0.305531 0.723874 0.916430 0.133125
C120  C     C_R   0.696686 0.278170 0.086985 0.132102
C121  C     C_R   0.181217 0.216751 0.024707 -0.252095
C122  C     C_R   0.719865 0.873898 0.912170 -0.200075
C123  C     C_R   0.831125 0.214137 0.990835 -0.214960
C124  C     C_R   0.162794 0.781528 0.002767 -0.224322
C125  C     C_R   0.779691 0.626334 0.088499 -0.203479
C126  C     C_R   0.232315 0.361609 0.911564 -0.227365
C127  C     C_R   0.331984 0.714816 0.991860 -0.220809
C128  C     C_R   0.669499 0.287134 0.011073 -0.222491
C129  C     C_R   0.221198 0.220944 0.017364 0.027602
C130  C     C_R   0.740955 0.810931 0.959852 -0.001759
C131  C     C_R   0.788035 0.227602 0.992848 0.005452
C132  C     C_R   0.208441 0.769448 0.004218 0.020250
C133  C     C_R   0.758658 0.689445 0.040905 0.000129
C134  C     C_R   0.250421 0.302301 0.961211 0.003518
C135  C     C_R   0.288053 0.727847 0.992891 0.016137
C136  C     C_R   0.712356 0.272902 0.008651 0.012873
C137  C     C_R   0.792600 0.756614 0.087386 -0.075434
C138  C     C_R   0.212494 0.236334 0.915864 -0.058844
C139  C     C_R   0.221125 0.763501 0.921933 -0.075423
C140  C     C_R   0.779494 0.237262 0.079308 -0.074558
C141  C     C_R   0.285750 0.260699 0.081117 -0.041016
C142  C     C_R   0.707633 0.743629 0.913728 -0.076828
C143  C     C_R   0.720195 0.261480 0.921360 -0.077823
C144  C     C_R   0.274555 0.732047 0.074726 -0.076345
C145  C     C_R   0.194018 0.196695 0.942576 -0.044662
C146  C     C_R   0.792904 0.813260 0.051159 -0.044540
C147  C     C_R   0.812006 0.206078 0.065018 -0.041021
C148  C     C_R   0.187721 0.794023 0.935118 -0.041578
C149  C     C_R   0.706858 0.687180 0.949537 -0.042672
C150  C     C_R   0.299443 0.306713 0.051807 -0.078395
C151  C     C_R   0.310135 0.704310 0.063482 -0.041405
C152  C     C_R   0.688101 0.293863 0.935910 -0.042281
H17   H     H_    0.125791 0.197814 0.970146 0.157048
H18   H     H_    0.731989 0.928767 0.938723 0.213283
H19   H     H_    0.887611 0.199064 0.049710 0.166378
H20   H     H_    0.108654 0.803367 0.945255 0.163624
H21   H     H_    0.766918 0.571507 0.061601 0.215108
H22   H     H_    0.242184 0.418227 0.932544 0.221099
H23   H     H_    0.387107 0.695388 0.049680 0.167353
H24   H     H_    0.614312 0.306562 0.953585 0.167117
C153  C     C_R   0.894179 0.911052 0.943967 -0.149437
C154  C     C_R   0.109904 0.078676 0.060450 -0.136357
C155  C     C_R   0.400432 0.405817 0.949212 -0.153199
C156  C     C_R   0.601578 0.592330 0.052011 -0.150685
C157  C     C_R   0.829550 0.895790 0.855561 -0.182868
C158  C     C_R   0.176786 0.087623 0.149267 -0.161347
C159  C     C_R   0.338623 0.383728 0.862042 -0.182760
C160  C     C_R   0.665514 0.611090 0.139706 -0.186764
C161  C     C_R   0.811542 0.933350 0.793489 0.197009
C162  C     C_R   0.193415 0.049020 0.209614 0.184019
C163  C     C_R   0.318757 0.419424 0.797685 0.187956
C164  C     C_R   0.685395 0.574633 0.203708 0.184993
C165  C     C_R   0.861372 0.982669 0.820869 0.166340
C166  C     C_R   0.140634 0.004313 0.180740 0.157584
C167  C     C_R   0.364147 0.473757 0.822207 0.163054
C168  C     C_R   0.637846 0.523323 0.178771 0.161828
C169  C     C_R   0.933257 0.985251 0.910381 -0.019300
C170  C     C_R   0.068303 0.006470 0.091519 -0.013873
C171  C     C_R   0.434873 0.482328 0.911356 -0.022186
C172  C     C_R   0.566213 0.517204 0.089599 -0.020548
C173  C     C_R   0.945177 0.958609 0.971837 0.060162
C174  C     C_R   0.056656 0.033966 0.030597 0.053644
C175  C     C_R   0.447912 0.457499 0.974111 0.059965
C176  C     C_R   0.553074 0.542189 0.026734 0.059442
C177  C     C_R   0.993055 0.014765 0.941546 -0.112870
C178  C     C_R   0.007790 0.979824 0.059951 -0.116372
C179  C     C_R   0.492229 0.516003 0.940261 -0.111754
C180  C     C_R   0.508377 0.484160 0.060332 -0.111792
H25   H     H_    0.905090 0.883940 0.990670 0.164131
H26   H     H_    0.099673 0.107625 0.015112 0.163658
H27   H     H_    0.412426 0.380317 0.997393 0.164492
H28   H     H_    0.589474 0.618260 0.003897 0.162646
H29   H     H_    0.791657 0.858008 0.835379 0.197314
H30   H     H_    0.217287 0.121589 0.171039 0.198217
H31   H     H_    0.304137 0.341979 0.844230 0.200163
H32   H     H_    0.701742 0.650444 0.158077 0.193373
I1    I     I_    0.163655 0.932323 0.706723 0.005119
I2    I     I_    0.836298 0.066349 0.293140 -0.015499
I3    I     I_    0.674393 0.468441 0.719427 -0.002229
I4    I     I_    0.326813 0.532550 0.283237 -0.039061
I5    I     I_    0.299883 0.061159 0.341920 0.010722
I6    I     I_    0.707879 0.913618 0.660348 0.012038
I7    I     I_    0.788746 0.597677 0.336052 -0.014727
I8    I     I_    0.220228 0.389727 0.665166 -0.029252
I9    I     I_    0.818483 0.075968 0.740747 -0.165677
I10   I     I_    0.177154 0.910678 0.257414 -0.192048
I11   I     I_    0.314090 0.566092 0.738612 -0.157251
I12   I     I_    0.684827 0.431030 0.261507 -0.162795
N1    N     N_R   0.012317 0.850680 0.483801 0.280492
O53   O     O_R   0.012303 0.804377 0.521338 -0.230299
O54   O     O_R   0.020682 0.825792 0.444781 -0.304904
N2    N     N_R   0.988240 0.148541 0.516781 0.274199
O55   O     O_R   0.984244 0.194676 0.475326 -0.231952
O56   O     O_R   0.987040 0.173774 0.563092 -0.304684
N3    N     N_R   0.882231 0.920145 0.419741 0.267195
O57   O     O_R   0.841644 0.885389 0.346573 -0.232678
O58   O     O_R   0.861186 0.925839 0.447163 -0.377409
N4    N     N_R   0.118365 0.078006 0.580296 0.267789
O59   O     O_R   0.162761 0.107165 0.657151 -0.227565
O60   O     O_R   0.136926 0.074579 0.549869 -0.376902
N5    N     N_R   0.545563 0.361838 0.509994 0.263219
O61   O     O_R   0.506363 0.323440 0.439400 -0.241475
O62   O     O_R   0.603293 0.332559 0.585711 -0.310037
N6    N     N_R   0.456834 0.641227 0.491457 0.257756
O63   O     O_R   0.491855 0.677132 0.561753 -0.269771
O64   O     O_R   0.410887 0.676779 0.418492 -0.257929
N7    N     N_R   0.406213 0.394917 0.443559 0.276533
O65   O     O_R   0.420531 0.325411 0.449608 -0.206845
O66   O     O_R   0.350202 0.414577 0.416462 -0.343676
N8    N     N_R   0.597637 0.605853 0.561495 0.264237
O67   O     O_R   0.591692 0.674306 0.571081 -0.205468
O68   O     O_R   0.651416 0.585523 0.584406 -0.355038
N9    N     N_R   0.392996 0.007690 0.647343 0.234085
O69   O     O_R   0.457866 0.987364 0.696700 -0.325670
O70   O     O_R   0.354203 0.962874 0.636402 -0.387413
N10   N     N_R   0.606451 0.991830 0.359065 0.233903
O71   O     O_R   0.542718 0.012380 0.313198 -0.291982
O72   O     O_R   0.643325 0.036513 0.366714 -0.382351
N11   N     N_R   0.639254 0.086637 0.526353 0.251600
O73   O     O_R   0.606081 0.098216 0.537908 -0.242781
O74   O     O_R   0.639533 0.020476 0.506017 -0.354467
N12   N     N_R   0.366753 0.915884 0.484218 0.242881
O75   O     O_R   0.367349 0.980918 0.507217 -0.360441
O76   O     O_R   0.403715 0.905103 0.477844 -0.256284
N13   N     N_R   0.894069 0.510967 0.635302 0.232208
O77   O     O_R   0.957168 0.491081 0.678938 -0.324822
O78   O     O_R   0.859283 0.466057 0.630812 -0.391835
N14   N     N_R   0.106565 0.489119 0.365285 0.231716
O79   O     O_R   0.043937 0.509683 0.322600 -0.322192
O80   O     O_R   0.141178 0.533468 0.369089 -0.388857
N15   N     N_R   0.140407 0.584967 0.528895 0.251022
O81   O     O_R   0.102744 0.596542 0.534165 -0.242804
O82   O     O_R   0.147801 0.517749 0.518121 -0.356667
N16   N     N_R   0.860295 0.414429 0.471839 0.248863
O83   O     O_R   0.854336 0.481376 0.484798 -0.357339
O84   O     O_R   0.897003 0.403081 0.465172 -0.251173
I13   I     I_    0.089907 0.245383 0.463273 0.099777
I14   I     I_    0.909096 0.754639 0.535702 0.092145
I15   I     I_    0.824060 0.115062 0.442789 -0.133906
I16   I     I_    0.178082 0.884480 0.559020 -0.130269
I17   I     I_    0.584648 0.752470 0.453202 0.080912
I18   I     I_    0.411266 0.240367 0.545041 0.088267
I19   I     I_    0.319832 0.616441 0.440147 -0.131076
I20   I     I_    0.683252 0.386644 0.560608 -0.156027
I21   I     I_    0.655966 0.965934 0.764925 -0.031364
I22   I     I_    0.135813 0.275666 0.087243 -0.197660
I23   I     I_    0.113379 0.793719 0.065683 -0.203960
I24   I     I_    0.872540 0.194319 0.918953 -0.195283
I25   I     I_    0.165764 0.443821 0.757861 -0.050429
I26   I     I_    0.845326 0.533677 0.236589 -0.043632
I27   I     I_    0.627341 0.308857 0.081754 -0.200818
I28   I     I_    0.375663 0.692875 0.922881 -0.200000
N17   N     N_R   0.829238 0.837953 0.197033 0.231911
O85   O     O_R   0.881638 0.854048 0.279863 -0.275818
O86   O     O_R   0.780204 0.887798 0.140513 -0.387379
N18   N     N_R   0.179065 0.143772 0.814821 0.228771
O87   O     O_R   0.221577 0.092938 0.874007 -0.380906
O88   O     O_R   0.131756 0.125671 0.733434 -0.297786
N19   N     N_R   0.112880 0.761818 0.759393 0.254597
O89   O     O_R   0.073941 0.716226 0.747537 -0.366640
O90   O     O_R   0.082337 0.801801 0.694669 -0.288263
N20   N     N_R   0.888477 0.238436 0.241834 0.254458
O91   O     O_R   0.918951 0.197999 0.306259 -0.288102
O92   O     O_R   0.927531 0.283691 0.253609 -0.366824
N21   N     N_R   0.397840 0.237549 0.239279 0.259761
O93   O     O_R   0.428416 0.212166 0.226821 -0.313695
O94   O     O_R   0.427147 0.220377 0.311736 -0.243190
N22   N     N_R   0.674807 0.661390 0.807321 0.228232
O95   O     O_R   0.723097 0.611708 0.865234 -0.392594
O96   O     O_R   0.625877 0.645355 0.725074 -0.278021
N23   N     N_R   0.609456 0.254424 0.759441 0.253947
O97   O     O_R   0.571633 0.209927 0.750322 -0.381134
O98   O     O_R   0.577032 0.302590 0.699344 -0.279307
N24   N     N_R   0.378780 0.727693 0.236842 0.254522
O99   O     O_R   0.407146 0.685346 0.299008 -0.289819
O100  O     O_R   0.418540 0.777234 0.254022 -0.346207
N25   N     N_R   0.871386 0.708560 0.293648 0.258722
O101  O     O_R   0.934954 0.680403 0.364180 -0.236025
O102  O     O_R   0.834860 0.737968 0.296333 -0.285881
N26   N     N_R   0.151692 0.264478 0.719366 0.262224
O103  O     O_R   0.088994 0.289625 0.644009 -0.231966
O104  O     O_R   0.197661 0.242189 0.729083 -0.307854
N27   N     N_R   0.200250 0.733377 0.756526 0.250893
O105  O     O_R   0.147244 0.687242 0.697802 -0.242747
O106  O     O_R   0.228544 0.764362 0.744116 -0.321830
N28   N     N_R   0.802657 0.267749 0.246767 0.252380
O107  O     O_R   0.855942 0.313625 0.305473 -0.241778
O108  O     O_R   0.774993 0.236437 0.259883 -0.320676
N29   N     N_R   0.314327 0.293607 0.249655 0.271864
O109  O     O_R   0.301765 0.260839 0.280666 -0.277974
O110  O     O_R   0.357263 0.350082 0.291103 -0.321827
N30   N     N_R   0.639366 0.790141 0.714596 0.260092
O111  O     O_R   0.577201 0.817866 0.640906 -0.228708
O112  O     O_R   0.681694 0.761907 0.720346 -0.303088
N31   N     N_R   0.692128 0.197371 0.754481 0.247253
O113  O     O_R   0.713829 0.134947 0.754992 -0.306204
O114  O     O_R   0.633656 0.226945 0.679430 -0.219299
N32   N     N_R   0.285595 0.745545 0.231830 0.260959
O115  O     O_R   0.333314 0.795068 0.291601 -0.245276
O116  O     O_R   0.256486 0.705887 0.239033 -0.297999

loop_
_geom_bond_atom_site_label_1
_geom_bond_atom_site_label_2
_geom_bond_distance
_ccdc_geom_bond_type
C157  C161  1.391358 A    
N17   O85   1.297701 A    
C4    C147  1.478097 S    
C114  C122  1.392044 A    
C86   C93   1.428943 A    
C168  C172  1.418837 A    
C42   C50   1.398479 A    
C171  C175  1.400306 A    
O26   C7    1.313681 A    
C142  C149  1.411626 A    
C165  C169  1.420812 A    
C119  I28   2.123444 S    
N30   O112  1.300265 A    
C167  C171  1.415105 A    
O30   C11   1.277252 A    
N22   O95   1.301664 A    
C117  C125  1.392480 A    
Zn12  O26   1.913820 S    
C29   C31   1.528700 S    
C78   C82   1.404751 A    
C138  C145  1.419781 A    
C54   H6    1.082234 S    
C21   C38   1.465157 S    
N12   O75   1.300761 A    
C76   C92   1.419304 A    
C41   I13   2.128366 S    
C27   C34   1.547608 S    
C122  C130  1.409267 A    
C116  C124  1.383212 A    
C107  C119  1.401233 A    
C74   C90   1.397572 A    
O11   C7    1.265137 A    
O34   C15   1.274512 A    
C133  C137  1.408106 A    
C47   C55   1.393213 A    
C97   C137  1.421850 A    
N11   O73   1.301680 A    
C154  H26   1.081696 S    
C126  H22   1.077203 S    
Zn1   O44   1.964972 S    
C133  C149  1.424313 A    
C11   C92   1.490797 S    
C44   C52   1.393508 A    
Zn2   O43   1.964972 S    
C12   C91   1.491793 S    
N28   O108  1.300699 A    
C128  C136  1.408479 A    
N8    O67   1.298321 A    
C163  I8    2.115163 S    
Zn5   O48   1.964972 S    
C17   C178  1.472538 S    
C173  C178  1.401825 A    
Zn7   O46   1.940724 S    
O16   C12   1.299216 A    
C175  C180  1.401755 A    
C56   H8    1.079361 S    
Zn16  O4    1.934285 S    
C120  C128  1.384263 A    
Zn1   O13   1.942137 S    
C108  C120  1.400596 A    
C122  H18   1.080725 S    
C26   C28   1.530769 S    
C5    C150  1.479799 S    
Zn4   O16   1.926244 S    
C46   I18   2.112616 S    
C73   C89   1.400943 A    
N2    O55   1.299865 A    
N25   O101  1.300787 A    
C155  H27   1.083103 S    
N27   O105  1.301262 A    
C62   C70   1.402067 A    
C51   H3    1.082039 S    
C129  C145  1.404631 A    
C139  C148  1.431575 A    
C52   H4    1.081710 S    
C35   C39   1.549173 S    
N31   O114  1.296679 A    
C66   H10   1.083157 S    
C153  C173  1.409569 A    
C22   C37   1.465940 S    
C59   C67   1.408877 A    
C42   C82   1.417184 A    
N26   O104  1.299300 A    
N23   O97   1.300789 A    
N29   O109  1.301185 A    
Zn10  O22   1.913820 S    
C125  C133  1.410703 A    
O25   C8    1.310783 A    
Zn13  O29   1.941914 S    
C62   N13   1.439923 S    
C77   C93   1.405268 A    
Zn6   O4    1.916119 S    
Zn10  O2    1.996895 S    
C72   H16   1.080127 S    
C43   I15   2.127414 S    
O29   C12   1.277892 A    
Zn15  O33   1.941914 S    
C48   C88   1.407812 A    
C71   H15   1.080109 S    
N15   O81   1.301703 A    
C61   C69   1.402400 A    
C26   C34   1.545689 S    
O5    C1    1.318072 A    
O37   C17   1.302842 A    
C98   C106  1.418123 A    
O48   C23   1.275802 A    
N24   O99   1.300649 A    
C65   H9    1.083078 S    
C46   C86   1.412944 A    
C156  C160  1.390122 A    
C15   C96   1.492351 S    
C68   H12   1.080612 S    
C54   C58   1.399778 A    
C82   C89   1.424257 A    
C13   C94   1.478498 S    
C41   C81   1.416659 A    
Zn16  O35   1.933357 S    
C165  I9    2.132890 S    
C47   I19   2.129296 S    
C132  C144  1.406396 A    
Zn7   O10   1.950819 S    
C141  C150  1.423612 A    
O33   C16   1.273255 A    
C57   N10   1.439999 S    
C44   I16   2.128771 S    
C25   C38   1.553933 S    
O40   C20   1.302042 A    
N31   O113  1.301267 A    
C43   C51   1.392983 A    
C24   C39   1.465457 S    
C75   C87   1.405818 A    
C157  H29   1.081310 S    
N5    O62   1.296838 A    
Zn5   O17   1.942137 S    
C137  C146  1.413470 A    
C51   C63   1.399413 A    
C49   C61   1.400315 A    
C81   C90   1.423533 A    
C169  C177  1.424123 A    
C155  C175  1.411242 A    
C171  C179  1.419705 A    
C84   C91   1.407743 A    
C101  C141  1.410335 A    
C25   C27   1.530345 S    
C55   H7    1.080925 S    
N13   O78   1.301634 A    
C119  C127  1.385271 A    
C166  C170  1.422288 A    
C28   N4    1.458848 S    
C98   N18   1.439801 S    
N18   O87   1.301551 A    
N6    O64   1.298461 A    
C111  C115  1.401097 A    
N4    O60   1.299769 A    
C32   C40   1.535007 S    
Zn8   O3    1.964815 S    
C80   C96   1.421812 A    
C59   N12   1.436395 S    
C135  C151  1.407387 A    
Zn11  O28   1.934211 S    
N14   O79   1.301696 A    
C140  C147  1.433976 A    
C125  H21   1.080213 S    
O38   C18   1.302523 A    
C161  I6    2.115519 S    
C106  C118  1.400726 A    
C97   N17   1.441108 S    
N11   O74   1.300308 A    
N10   O72   1.301649 A    
O32   C9    1.291912 A    
C76   C88   1.405017 A    
C79   C83   1.408713 A    
C53   C57   1.399397 A    
N1    O53   1.299911 A    
C19   C180  1.469343 S    
C103  C143  1.436203 A    
C20   C179  1.469203 S    
C55   C59   1.401031 A    
Zn15  O51   1.970800 S    
C100  C108  1.421152 A    
C25   N1    1.460937 S    
C7    C152  1.479059 S    
C74   C86   1.405067 A    
C102  N22   1.442369 S    
C58   C66   1.401138 A    
C16   C95   1.491902 S    
Zn7   O4    1.964813 S    
N16   O84   1.301847 A    
N7    O66   1.300279 A    
C117  I26   2.122442 S    
O8    C4    1.262638 A    
C113  I22   2.124938 S    
C100  N20   1.428187 S    
C153  C157  1.387968 A    
C101  N21   1.445694 S    
C115  I24   2.122303 S    
C102  C110  1.416484 A    
C80   C84   1.408694 A    
C18   C177  1.474785 S    
N27   O106  1.300714 A    
C174  C177  1.407496 A    
O50   C18   1.276036 A    
C58   N9    1.440033 S    
C32   N8    1.454117 S    
N10   O71   1.301626 A    
C155  C159  1.391837 A    
C127  C135  1.409355 A    
C29   N5    1.453228 S    
C33   I1    2.136666 S    
Zn2   O14   1.942136 S    
C111  N31   1.443176 S    
C2    C145  1.451569 S    
C79   C95   1.421011 A    
C104  N24   1.428609 S    
C73   C85   1.406736 A    
C110  C114  1.403106 A    
C70   C78   1.412648 A    
C164  C168  1.407788 A    
N22   O96   1.298354 A    
C131  C143  1.403017 A    
O39   C19   1.303978 A    
O36   C13   1.290588 A    
C159  H31   1.081026 S    
C129  C141  1.397281 A    
C161  C165  1.408674 A    
O13   C9    1.244001 A    
Zn1   O8    1.954973 S    
N17   O86   1.301640 A    
Zn2   O7    1.954970 S    
Zn3   O6    1.950819 S    
N12   O76   1.301980 A    
O18   C14   1.250037 A    
O31   C10   1.290684 A    
C154  C174  1.409060 A    
C61   N14   1.439864 S    
O6    C2    1.290471 A    
N21   O94   1.300457 A    
C158  C162  1.387127 A    
C26   C37   1.553371 S    
C113  C121  1.396488 A    
C168  I12   2.130550 S    
C41   C49   1.398334 A    
Zn14  O30   1.941911 S    
Zn15  O3    1.934283 S    
C143  C152  1.435840 A    
C78   C94   1.404085 A    
Zn11  O3    1.996895 S    
O41   C21   1.250015 A    
C158  H30   1.081695 S    
C69   C77   1.413046 A    
Zn16  O34   1.941911 S    
N32   O115  1.301158 A    
C60   C68   1.408850 A    
C48   I20   2.131836 S    
N8    O68   1.300299 A    
O15   C11   1.299248 A    
Zn8   O20   1.926244 S    
C26   N2    1.460484 S    
N9    O70   1.301667 A    
C34   I2    2.136703 S    
N20   O91   1.299931 A    
C144  C151  1.435878 A    
N4    O59   1.297446 A    
C97   C105  1.415745 A    
C88   C95   1.402856 A    
C49   H1    1.082310 S    
N19   O89   1.301410 A    
C44   C84   1.411376 A    
C123  H19   1.083691 S    
C9    C90   1.475459 S    
C56   C60   1.400975 A    
C47   C87   1.409237 A    
C166  I10   2.133484 S    
N2    O56   1.297889 A    
C31   C36   1.547194 S    
C121  C129  1.411350 A    
C172  C180  1.422690 A    
C28   C33   1.547855 S    
Zn8   O9    1.950822 S    
C124  H20   1.083168 S    
Zn7   O19   1.926243 S    
C98   C138  1.423162 A    
C30   N6    1.458791 S    
O7    C3    1.263809 A    
C112  N32   1.433147 S    
N30   O111  1.300736 A    
C115  C123  1.380405 A    
C45   C85   1.417791 A    
O19   C15   1.302567 A    
C104  C144  1.433094 A    
C116  I23   2.122755 S    
Zn9   O24   1.934211 S    
C30   C39   1.548064 S    
Zn6   O18   1.942136 S    
C43   C83   1.412295 A    
Zn10  O23   1.934208 S    
N3    O57   1.299013 A    
C169  C173  1.403698 A    
C50   C62   1.400283 A    
C127  H23   1.083142 S    
C170  C178  1.418827 A    
C159  C163  1.393374 A    
C123  C131  1.404989 A    
Zn15  O36   1.933357 S    
Zn9   O1    1.996895 S    
C6    C149  1.497502 S    
C121  H17   1.082420 S    
O42   C22   1.252259 A    
Zn4   O1    1.964815 S    
C45   I17   2.122137 S    
C30   C32   1.531112 S    
Zn9   O37   1.939348 S    
C25   C33   1.544042 S    
O12   C8    1.266715 A    
C36   C40   1.550776 S    
Zn11  O39   1.939348 S    
C64   N15   1.439358 S    
N15   O82   1.300348 A    
C162  I5    2.111488 S    
C48   C56   1.393982 A    
Zn1   O1    1.916118 S    
C23   C40   1.468988 S    
C99   N19   1.429549 S    
C75   C91   1.417961 A    
N28   O107  1.301248 A    
Zn5   O3    1.916118 S    
Zn13  O1    1.934283 S    
C64   C72   1.409292 A    
C31   C39   1.531141 S    
C65   C73   1.412212 A    
C60   N11   1.437560 S    
C85   C94   1.429081 A    
C63   N16   1.438749 S    
C160  H32   1.082561 S    
C68   C76   1.412040 A    
C36   I4    2.142046 S    
C46   C54   1.399058 A    
C32   C35   1.546641 S    
O28   C5    1.296641 A    
C135  C139  1.403560 A    
Zn3   O42   1.940724 S    
C164  I7    2.116057 S    
N1    O54   1.297526 A    
N5    O61   1.296952 A    
O21   C4    1.315134 A    
N25   O102  1.300133 A    
C103  N23   1.425326 S    
C77   C81   1.404480 A    
Zn6   O47   1.964972 S    
C53   H5    1.082550 S    
N7    O65   1.298555 A    
C107  N27   1.437497 S    
Zn2   O2    1.916119 S    
N13   O77   1.301675 A    
Zn14  O2    1.934285 S    
C31   N7    1.453781 S    
C112  C116  1.398106 A    
C109  N29   1.428158 S    
N26   O103  1.300348 A    
C72   C80   1.413642 A    
N18   O88   1.298959 A    
Zn13  O49   1.970800 S    
O44   C21   1.283465 A    
C106  N26   1.427883 S    
N29   O110  1.299321 A    
C71   C79   1.413143 A    
C131  C147  1.400266 A    
N14   O80   1.301620 A    
C156  H28   1.083083 S    
Zn12  O27   1.934208 S    
C108  N28   1.437256 S    
C66   C74   1.412131 A    
C162  C166  1.408756 A    
Zn3   O2    1.964813 S    
C153  H25   1.083241 S    
C105  N25   1.431050 S    
C27   C37   1.534151 S    
O10   C6    1.319748 A    
C29   C40   1.544517 S    
O46   C24   1.255347 A    
Zn4   O41   1.940723 S    
C3    C148  1.475241 S    
C34   C38   1.546466 S    
Zn16  O52   1.970802 S    
O9    C5    1.310145 A    
Zn8   O45   1.940723 S    
C160  C164  1.392143 A    
O27   C6    1.294302 A    
C124  C132  1.409077 A    
C120  I27   2.122009 S    
N19   O90   1.299961 A    
Zn12  O4    1.996895 S    
C118  C126  1.388986 A    
C130  C142  1.406511 A    
C35   I3    2.144399 S    
C42   I14   2.128405 S    
C134  C138  1.401621 A    
N32   O116  1.300766 A    
N23   O98   1.301183 A    
C33   C37   1.546834 S    
C163  C167  1.403963 A    
O24   C1    1.296164 A    
C63   C71   1.409149 A    
C134  C150  1.429543 A    
C105  C117  1.402267 A    
C50   H2    1.082319 S    
O43   C22   1.281876 A    
C67   H11   1.080994 S    
O47   C24   1.279057 A    
Zn3   O15   1.926243 S    
Zn5   O12   1.954973 S    
C10   C89   1.477514 S    
Zn6   O11   1.954970 S    
C102  C142  1.421457 A    
C176  C179  1.403006 A    
C167  I11   2.129763 S    
C172  C176  1.401911 A    
Zn9   O21   1.913820 S    
Zn14  O50   1.970802 S    
C45   C53   1.398578 A    
C29   C35   1.543824 S    
N3    O58   1.299858 A    
O35   C14   1.288884 A    
Zn12  O40   1.939345 S    
C99   C139  1.433119 A    
C118  I25   2.122028 S    
O52   C20   1.273186 A    
C70   H14   1.082960 S    
C136  C140  1.405409 A    
C114  I21   2.121488 S    
C110  N30   1.429853 S    
N6    O63   1.298295 A    
N21   O93   1.302609 A    
C154  C158  1.386524 A    
C57   C65   1.400906 A    
C100  C140  1.433026 A    
C28   C38   1.532296 S    
O22   C3    1.312953 A    
C103  C111  1.428520 A    
C52   C64   1.399823 A    
C27   N3    1.459302 S    
C136  C152  1.405813 A    
C101  C109  1.414743 A    
C99   C107  1.421308 A    
C170  C174  1.402320 A    
Zn13  O32   1.933357 S    
O49   C17   1.273955 A    
Zn14  O31   1.933357 S    
C156  C176  1.411169 A    
C14   C93   1.478785 S    
C87   C96   1.404843 A    
O51   C19   1.271425 A    
C126  C134  1.412946 A    
C83   C92   1.408822 A    
C128  H24   1.083241 S    
C1    C146  1.497954 S    
Zn4   O5    1.950822 S    
O17   C13   1.247870 A    
O20   C16   1.303317 A    
C109  C113  1.406381 A    
C67   C75   1.411393 A    
C132  C148  1.402826 A    
O23   C2    1.300423 A    
Zn11  O25   1.913820 S    
C8    C151  1.475957 S    
N9    O69   1.301686 A    
Zn10  O38   1.939345 S    
N20   O92   1.301332 A    
O14   C10   1.246748 A    
C69   H13   1.082844 S    
C104  C112  1.419593 A    
N16   O83   1.300288 A    
N24   O100  1.301109 A    
C30   C36   1.547585 S    
O45   C23   1.260799 A    
C130  C146  1.422249 A    
