data_mof_unit_67777.cif
_audit_creation_date              2012-12-10T16:52:03-0500
_audit_creation_method            fapswitch 2.2
_symmetry_space_group_name_H-M    P1
_symmetry_Int_Tables_number       1
_space_group_crystal_system       triclinic
_cell_length_a                    7.973854
_cell_length_b                    8.724388
_cell_length_c                    14.91247
_cell_angle_alpha                 91.289543
_cell_angle_beta                  84.18788
_cell_angle_gamma                 94.440057
_cell_volume                      1028.87282043

loop_
_atom_site_label
_atom_site_type_symbol
_atom_type_description
_atom_site_fract_x
_atom_site_fract_y
_atom_site_fract_z
_atom_type_partial_charge
C1    C     C_R   0.545023 0.793312 0.495395 0.836993
C2    C     C_R   0.540857 0.641998 0.820049 0.404254
C3    C     C_R   0.508003 0.477080 0.230810 -0.173977
C4    C     C_R   0.499734 0.506921 0.769327 -0.173113
C5    C     C_R   0.588178 0.600763 0.183582 -0.354900
C6    C     C_R   0.467215 0.364619 0.810605 -0.291911
C7    C     C_R   0.608873 0.598659 0.090865 0.114013
C8    C     C_R   0.477110 0.352239 0.902375 0.086222
C9    C     C_R   0.547468 0.468639 0.043505 -0.040255
C10   C     C_R   0.544040 0.478863 0.950230 -0.053115
C11   C     C_R   0.475550 0.334852 0.090513 -0.074609
C12   C     C_R   0.455039 0.206757 0.503925 0.859993
C13   C     C_R   0.589317 0.621813 0.906669 -0.029404
C14   C     C_R   0.676677 0.731399 0.045982 -0.365096
C15   C     C_R   0.417181 0.216066 0.946354 -0.347136
C16   C     C_3   0.496871 0.133418 0.280189 0.155384
C17   C     C_3   0.621409 0.049566 0.216023 -0.453892
C18   C     C_3   0.748437 0.973207 0.266703 -0.906832
C19   C     C_3   0.512382 0.850898 0.724016 0.098301
C20   C     C_3   0.700907 0.902364 0.706239 -0.344523
C21   C     C_3   0.734603 0.076757 0.711071 -0.785281
C22   C     C_3   0.853393 0.968538 0.928978 0.039235
C23   C     C_R   0.665841 0.746818 0.953885 0.469181
C24   C     C_3   0.825381 0.134626 0.957685 -0.323101
C25   C     C_3   0.989568 0.234054 0.962343 -0.993144
C26   C     C_3   0.291778 0.946871 0.038814 0.066817
C27   C     C_3   0.217407 0.818836 0.102678 -0.324821
C28   C     C_3   0.157749 0.674919 0.051290 -0.967907
C29   C     C_3   0.005411 0.485168 0.325659 0.275622
C30   C     C_3   0.923396 0.385423 0.253742 -0.488192
C31   C     C_3   0.040770 0.276310 0.205084 -0.726270
C32   C     C_3   0.047876 0.681695 0.652793 0.224104
C33   C     C_3   0.995519 0.560419 0.725449 -0.395118
C34   C     C_R   0.409617 0.205905 0.041288 0.477442
C35   C     C_3   0.055093 0.609428 0.816150 -0.967474
C36   C     C_2   0.568777 0.956264 0.495209 0.042944
C37   C     C_2   0.431620 0.044051 0.503922 0.034783
C38   C     C_R   0.500356 0.505055 0.672801 0.819870
C39   C     C_R   0.499574 0.491039 0.327502 0.861834
C40   C     C_R   0.464855 0.337501 0.186369 0.428393
Cl1   Cl    Cl    0.787885 0.023805 0.484239 -0.540747
Cl2   Cl    Cl    0.213129 0.977375 0.510863 -0.542683
H1    H     H_    0.630565 0.701109 0.220090 0.176469
H2    H     H_    0.836290 0.912022 0.218721 0.244891
H3    H     H_    0.682204 0.890663 0.316063 0.270191
H4    H     H_    0.436234 0.952236 0.723308 0.162419
H5    H     H_    0.468037 0.779274 0.669079 0.097401
H6    H     H_    0.773575 0.849576 0.754763 0.237240
H7    H     H_    0.749225 0.860346 0.638977 0.256078
H8    H     H_    0.872790 0.108490 0.702281 0.266882
H9    H     H_    0.681217 0.120133 0.776959 0.259734
H10   H     H_    0.673597 0.132502 0.658126 0.271014
H11   H     H_    0.936642 0.970763 0.864656 0.156999
H12   H     H_    0.426281 0.264707 0.771431 0.150446
H13   H     H_    0.921793 0.914860 0.979517 0.123369
H14   H     H_    0.753111 0.188000 0.909247 0.244841
H15   H     H_    0.750803 0.135069 0.023989 0.209276
H16   H     H_    0.067265 0.185296 0.009906 0.287004
H17   H     H_    0.960705 0.350831 0.987378 0.273386
H18   H     H_    0.061565 0.242726 0.894641 0.278228
H19   H     H_    0.408369 0.910297 0.000909 0.208373
H20   H     H_    0.198008 0.965665 0.991250 0.139343
H21   H     H_    0.314017 0.789034 0.146608 0.229360
H22   H     H_    0.108458 0.859818 0.146504 0.229984
H23   H     H_    0.723515 0.828944 0.084152 0.164420
H24   H     H_    0.047445 0.696696 0.015162 0.262579
H25   H     H_    0.119248 0.580817 0.099368 0.262245
H26   H     H_    0.260077 0.637717 0.001741 0.291283
H27   H     H_    0.127234 0.536471 0.293561 0.138970
H28   H     H_    0.931273 0.586613 0.343460 0.120670
H29   H     H_    0.815717 0.314240 0.285650 0.265865
H30   H     H_    0.878948 0.460306 0.203291 0.202429
H31   H     H_    0.145121 0.342709 0.165655 0.261745
H32   H     H_    0.971917 0.202606 0.157637 0.239129
H33   H     H_    0.085936 0.200245 0.254488 0.339740
H34   H     H_    0.369002 0.121908 0.905569 0.166632
H35   H     H_    0.010529 0.794687 0.678678 0.128638
H36   H     H_    0.184456 0.704583 0.637412 0.191837
H37   H     H_    0.856099 0.543223 0.734841 0.235240
H38   H     H_    0.045210 0.448498 0.703950 0.244032
H39   H     H_    0.194009 0.615467 0.812446 0.315766
H40   H     H_    0.002674 0.524696 0.867700 0.273671
H41   H     H_    0.010986 0.722932 0.837254 0.247687
H42   H     H_    0.418902 0.045122 0.321531 0.187103
H43   H     H_    0.563620 0.208027 0.327404 0.130072
H44   H     H_    0.549612 0.961700 0.177667 0.254664
H45   H     H_    0.691644 0.132442 0.168893 0.214554
H46   H     H_    0.824863 0.059666 0.303246 0.325363
N1    N     N_2   0.950330 0.457950 0.475660 0.197331
N2    N     N_2   0.049670 0.542050 0.524340 0.157093
O1    O     O_R   0.389250 0.738570 0.505970 -0.610631
O2    O     O_3   0.470570 0.781467 0.808485 -0.630520
O3    O     O_3   0.695835 0.890407 0.913566 -0.621865
O4    O     O_3   0.327251 0.081515 0.089902 -0.616093
O5    O     O_3   0.031674 0.396121 0.401194 -0.489898
O6    O     O_3   0.964538 0.645416 0.575744 -0.533134
O7    O     O_R   0.610750 0.261430 0.494030 -0.588451
O8    O     O_R   0.678390 0.711620 0.490370 -0.550589
O9    O     O_R   0.321610 0.288380 0.509630 -0.537565
O10   O     O_R   0.355420 0.513510 0.639950 -0.663464
O11   O     O_R   0.644580 0.486490 0.360050 -0.676564
O12   O     O_R   0.644560 0.486560 0.624350 -0.606185
O13   O     O_R   0.355440 0.513440 0.375650 -0.587392
O14   O     O_3   0.384552 0.213892 0.234835 -0.614401
Zn1   Zn    Zn3+2 0.306940 0.517990 0.510420 1.051401
Zn2   Zn    Zn3+2 0.693060 0.482010 0.489580 1.051784

loop_
_geom_bond_atom_site_label_1
_geom_bond_atom_site_label_2
_ccdc_geom_bond_type
C26   O4    S    
O1    Zn1   S    
C2    C4    A    
C19   C20   S    
C30   H29   S    
C35   H39   S    
C19   H4    S    
O10   Zn1   S    
C20   H7    S    
C36   C37   D    
C28   H26   S    
C26   H19   S    
C30   C31   S    
C19   H5    S    
C31   H31   S    
C16   H42   S    
C13   C23   A    
C37   Cl2   S    
C2    C13   A    
C12   O9    A    
C19   O2    S    
C32   H35   S    
C16   O14   S    
C7    C14   A    
C24   H15   S    
N1    Zn2   S    
C25   H18   S    
C9    C10   A    
C15   C34   A    
C15   H34   S    
C5    H1    S    
C3    C39   S    
C1    O1    A    
C36   Cl1   S    
C6    H12   S    
C21   H8    S    
C35   H40   S    
C39   O11   A    
C22   H11   S    
C29   H27   S    
O9    Zn1   S    
C17   H44   S    
C28   H25   S    
C24   C25   S    
C4    C6    A    
C5    C7    A    
C35   H41   S    
C33   H37   S    
C31   H32   S    
C6    C8    A    
N2    O6    S    
C18   H46   S    
C23   O3    S    
C14   C23   A    
N1    O5    S    
C28   H24   S    
C29   C30   S    
C18   H2    S    
C40   O14   S    
C31   H33   S    
C17   C18   S    
C26   C27   S    
O13   Zn1   S    
C2    O2    S    
C9    C11   A    
C12   O7    A    
C20   H6    S    
C27   H21   S    
O7    Zn2   S    
C38   O10   A    
C32   O6    S    
C4    C38   S    
C3    C40   A    
C8    C15   A    
C16   H43   S    
C22   O3    S    
C22   C24   S    
C25   H16   S    
C18   H3    S    
C21   H9    S    
C29   O5    S    
C29   H28   S    
O11   Zn2   S    
C7    C9    A    
C17   H45   S    
C11   C34   A    
C34   O4    S    
N2    Zn1   S    
C3    C5    A    
C10   C13   A    
C1    O8    A    
C30   H30   S    
C33   H38   S    
C39   O13   A    
C22   H13   S    
C24   H14   S    
O8    Zn2   S    
C32   C33   S    
C26   H20   S    
C38   O12   A    
C16   C17   S    
C33   C35   S    
C14   H23   S    
O12   Zn2   S    
C11   C40   A    
C27   H22   S    
C32   H36   S    
C20   C21   S    
C8    C10   A    
C12   C37   S    
C27   C28   S    
C25   H17   S    
N1    N2    D    
C21   H10   S    
C1    C36   S    
