data_mof_unit_46876.cif
_audit_creation_date              2012-12-11T14:21:13-0500
_audit_creation_method            fapswitch 2.2
_symmetry_space_group_name_H-M    P1
_symmetry_Int_Tables_number       1
_space_group_crystal_system       triclinic
_cell_length_a                    21.985273
_cell_length_b                    7.195049
_cell_length_c                    14.941197
_cell_angle_alpha                 89.871801
_cell_angle_beta                  106.973049
_cell_angle_gamma                 89.96116
_cell_volume                      2260.5193156

loop_
_atom_site_label
_atom_site_type_symbol
_atom_type_description
_atom_site_fract_x
_atom_site_fract_y
_atom_site_fract_z
_atom_type_partial_charge
O1    O     O_R   0.584770 0.505770 0.002090 -0.540295
O2    O     O_R   0.415230 0.005770 0.997910 -0.540467
O3    O     O_R   0.467060 0.173340 0.861950 -0.538383
O4    O     O_R   0.532940 0.673340 0.138050 -0.538501
C1    C     C_R   0.455207 0.344525 0.826015 0.676878
C2    C     C_R   0.544812 0.843999 0.174029 0.676906
O5    O     O_R   0.587510 0.175890 0.993210 -0.541604
O6    O     O_R   0.412490 0.675890 0.006790 -0.541547
O7    O     O_R   0.536540 0.008150 0.130100 -0.537548
O8    O     O_R   0.463460 0.508150 0.869900 -0.537405
C3    C     C_R   0.612747 0.345333 0.996528 0.744074
C4    C     C_R   0.387246 0.845404 0.003457 0.744488
O9    O     O_3   0.483140 0.340040 0.044760 -0.377913
O10   O     O_3   0.516860 0.840040 0.955240 -0.377787
V1    V     V_3+5 0.503130 0.064190 0.991700 1.417824
V2    V     V_3+5 0.496870 0.564190 0.008300 1.418065
C5    C     C_2   0.219174 0.723246 0.020750 0.162972
C6    C     C_2   0.780927 0.223373 0.979445 0.162342
C7    C     C_2   0.180836 0.876983 0.996014 -0.371509
C8    C     C_2   0.819144 0.377080 0.003931 -0.372496
H1    H     H_    0.198571 0.997796 0.967935 0.126066
H2    H     H_    0.801307 0.497769 0.031814 0.126616
C9    C     C_2   0.282744 0.716059 0.002789 -0.130049
C10   C     C_2   0.717365 0.216029 0.997435 -0.130491
C11   C     C_2   0.321815 0.862376 0.011278 -0.353098
C12   C     C_2   0.678154 0.362298 0.988633 -0.352712
H3    H     H_    0.299477 0.582124 0.986554 0.150585
H4    H     H_    0.700762 0.082070 0.013983 0.150195
H5    H     H_    0.306631 0.998281 0.027908 0.137151
H6    H     H_    0.693220 0.498249 0.971734 0.137110
C13   C     C_R   0.926596 0.889155 0.724274 -0.025578
C14   C     C_R   0.073414 0.386042 0.275592 -0.023967
C15   C     C_R   0.573211 0.850018 0.275327 -0.023156
C16   C     C_R   0.426696 0.353130 0.724825 -0.021770
C17   C     C_R   0.936266 0.921282 0.568360 -0.165673
C18   C     C_R   0.062867 0.384145 0.431690 -0.165469
C19   C     C_R   0.964276 0.915366 0.664701 -0.173266
C20   C     C_R   0.035096 0.388460 0.335258 -0.174464
C21   C     C_R   0.860706 0.870064 0.687714 -0.216558
C22   C     C_R   0.139604 0.380144 0.312081 -0.216459
C23   C     C_R   0.830670 0.879358 0.590055 0.085332
C24   C     C_R   0.169281 0.377725 0.409891 0.085727
C25   C     C_R   0.870060 0.904514 0.530690 0.140383
C26   C     C_R   0.129330 0.379035 0.469375 0.140511
C27   C     C_R   0.763194 0.866475 0.549595 0.059044
C28   C     C_R   0.236889 0.374298 0.450426 0.059104
C29   C     C_R   0.736448 0.877530 0.450119 0.059152
C30   C     C_R   0.263251 0.370335 0.550074 0.059326
C31   C     C_R   0.778032 0.901588 0.394499 -0.188569
C32   C     C_R   0.221156 0.371249 0.605810 -0.188312
C33   C     C_R   0.843284 0.914658 0.434173 -0.204233
C34   C     C_R   0.155754 0.375717 0.566070 -0.204386
C35   C     C_R   0.721576 0.843731 0.605236 -0.189085
C36   C     C_R   0.278987 0.375307 0.394721 -0.190417
C37   C     C_R   0.656333 0.830314 0.565592 -0.202459
C38   C     C_R   0.344384 0.370516 0.434405 -0.202131
C39   C     C_R   0.629601 0.838642 0.469019 0.139801
C40   C     C_R   0.370807 0.364908 0.531080 0.140050
C41   C     C_R   0.669004 0.863411 0.409642 0.083269
C42   C     C_R   0.330855 0.365421 0.590574 0.083472
C43   C     C_R   0.563438 0.820463 0.431302 -0.165473
C44   C     C_R   0.437261 0.358482 0.568744 -0.165353
C45   C     C_R   0.535499 0.824408 0.334907 -0.173672
C46   C     C_R   0.465022 0.351923 0.665158 -0.174863
C47   C     C_R   0.639040 0.870628 0.311930 -0.210540
C48   C     C_R   0.360518 0.360233 0.688361 -0.210064
H7    H     H_    0.873166 0.933739 0.388556 0.123248
H8    H     H_    0.125459 0.376600 0.611796 0.122989
H9    H     H_    0.665182 0.887984 0.261759 0.093443
H10   H     H_    0.334004 0.360228 0.738614 0.092472
H11   H     H_    0.484530 0.806820 0.306702 0.107452
H12   H     H_    0.516333 0.346121 0.693274 0.106970
H13   H     H_    0.626447 0.812084 0.611269 0.124454
H14   H     H_    0.374661 0.370986 0.388648 0.123999
H15   H     H_    0.966357 0.941390 0.523161 0.117650
H16   H     H_    0.032321 0.385542 0.477011 0.117579
H17   H     H_    0.015280 0.932113 0.692882 0.106085
H18   H     H_    0.983780 0.393666 0.307127 0.105592
H19   H     H_    0.834603 0.851993 0.737858 0.095875
H20   H     H_    0.166103 0.378550 0.261851 0.094882
H21   H     H_    0.761911 0.911595 0.319418 0.122024
H22   H     H_    0.236960 0.368928 0.681051 0.121910
H23   H     H_    0.737668 0.835338 0.680296 0.127328
H24   H     H_    0.263173 0.380153 0.319577 0.129125
H25   H     H_    0.533334 0.800771 0.476514 0.118072
H26   H     H_    0.467807 0.357909 0.523418 0.118045
O11   O     O_R   0.036450 0.233070 0.130130 -0.536031
O12   O     O_R   0.963550 0.733070 0.869870 -0.536179
O13   O     O_R   0.912470 0.560570 0.006790 -0.539518
O14   O     O_R   0.087530 0.060570 0.993210 -0.539458
C49   C     C_R   0.886392 0.390713 0.000767 0.728620
C50   C     C_R   0.113603 0.890626 0.999220 0.729093
O15   O     O_R   0.032920 0.562940 0.138050 -0.540738
O16   O     O_R   0.967080 0.062940 0.861950 -0.540924
O17   O     O_R   0.084790 0.730500 0.002090 -0.544523
O18   O     O_R   0.915210 0.230500 0.997910 -0.544545
C51   C     C_R   0.044871 0.394234 0.174414 0.685753
C52   C     C_R   0.955079 0.894776 0.825547 0.685514
O19   O     O_3   0.016820 0.396170 0.955260 -0.380072
O20   O     O_3   0.983180 0.896170 0.044740 -0.380020
V3    V     V_3+5 0.996880 0.672090 0.008300 1.397954
V4    V     V_3+5 0.003120 0.172090 0.991700 1.398073
C53   C     C_3   0.197763 0.551409 0.064157 -0.279428
C54   C     C_3   0.249969 0.409410 0.108038 -0.827474
H27   H     H_    0.265665 0.336315 0.053277 0.218669
H28   H     H_    0.291120 0.478135 0.158404 0.237625
H29   H     H_    0.230800 0.302509 0.146198 0.215182
H30   H     H_    0.178190 0.597237 0.121241 0.176903
H31   H     H_    0.160054 0.477988 0.009863 0.196566
C55   C     C_3   0.802480 0.051614 0.936374 -0.278123
C56   C     C_3   0.750400 0.909738 0.892728 -0.825503
H32   H     H_    0.734594 0.836834 0.947560 0.217991
H33   H     H_    0.709301 0.978473 0.841948 0.238920
H34   H     H_    0.769766 0.802611 0.855107 0.213237
H35   H     H_    0.822038 0.097495 0.879203 0.178322
H36   H     H_    0.840221 0.978025 0.990840 0.196198

loop_
_geom_bond_atom_site_label_1
_geom_bond_atom_site_label_2
_ccdc_geom_bond_type
C40   C44   A    
O18   V4    S    
C56   H32   S    
O1    C3    A    
C46   H12   S    
O2    C4    A    
C16   C48   A    
C2    O7    A    
C54   H28   S    
O12   V3    S    
C15   C47   A    
C29   C31   A    
C9    C11   D    
O5    C3    A    
C44   H26   S    
C13   C52   S    
C17   H15   S    
C5    C9    S    
C6    C10   S    
C7    H1    S    
C10   C12   D    
C39   C41   A    
O16   C52   A    
C40   C42   A    
C14   C51   S    
C24   C28   A    
C27   C29   A    
C31   H21   S    
C43   C45   A    
C55   C56   S    
O14   V4    S    
C44   C46   A    
C7    C50   S    
C18   H16   S    
C49   O18   A    
C13   C21   A    
C31   C33   A    
C32   C34   A    
C22   H20   S    
C53   H30   S    
C9    H3    S    
O13   C49   A    
C17   C25   A    
C34   H8    S    
O6    C4    A    
C26   C34   A    
C30   C32   A    
C42   C48   A    
O6    V2    S    
C23   C25   A    
C24   C26   A    
C36   H24   S    
C54   H27   S    
C30   C42   A    
C28   C30   A    
C35   C37   A    
C11   H5    S    
C8    C49   S    
C36   C38   A    
C38   H14   S    
C10   H4    S    
O4    C2    A    
O15   V3    S    
C20   H18   S    
C3    C12   S    
C19   H17   S    
C27   C35   A    
C50   O17   A    
C13   C19   A    
C21   H19   S    
O4    V2    S    
O11   V4    S    
O15   C51   A    
O14   C50   A    
C15   C45   A    
C1    C16   S    
C28   C36   A    
C16   C46   A    
C56   H33   S    
O1    V2    S    
C33   H7    S    
O2    V1    S    
O16   V4    S    
C43   H25   S    
C45   H11   S    
C12   H6    S    
C14   C20   A    
C37   C39   A    
C18   C26   A    
C55   H36   S    
O3    V1    S    
C32   H22   S    
C17   C19   A    
O13   V3    S    
C6    C55   S    
C8    H2    S    
C22   C24   A    
O3    C1    A    
C39   C43   A    
C2    C15   S    
C53   H31   S    
C4    C11   S    
C35   H23   S    
C18   C20   A    
C5    C53   S    
C1    O8    A    
O8    V2    S    
C41   C47   A    
C25   C33   A    
C48   H10   S    
C47   H9    S    
O5    V1    S    
O20   V3    S    
C5    C7    D    
C38   C40   A    
C56   H34   S    
C6    C8    D    
C14   C22   A    
O7    V1    S    
C29   C41   A    
C37   H13   S    
O19   V4    S    
C21   C23   A    
O9    V2    S    
C53   C54   S    
C23   C27   A    
O10   V1    S    
C55   H35   S    
C54   H29   S    
O12   C52   A    
O17   V3    S    
O11   C51   A    
