data_mof_unit_63167.cif
_audit_creation_date              2012-12-10T19:55:13-0500
_audit_creation_method            fapswitch 2.2
_symmetry_space_group_name_H-M    P1
_symmetry_Int_Tables_number       1
_space_group_crystal_system       triclinic
_cell_length_a                    14.285866
_cell_length_b                    14.918893
_cell_length_c                    16.651936
_cell_angle_alpha                 92.256734
_cell_angle_beta                  84.586858
_cell_angle_gamma                 89.64104
_cell_volume                      3530.27025711

loop_
_atom_site_label
_atom_site_type_symbol
_atom_type_description
_atom_site_fract_x
_atom_site_fract_y
_atom_site_fract_z
_atom_type_partial_charge
C1    C     C_R   0.499720 0.672307 0.500680 0.894902
C2    C     C_R   0.435914 0.180936 0.468894 -0.147882
C3    C     C_R   0.578193 0.908190 0.484878 -0.141452
C4    C     C_R   0.435816 0.089217 0.476309 -0.146604
C5    C     C_R   0.500504 0.953311 0.525426 0.049942
C6    C     C_R   0.498373 0.049587 0.524416 0.044678
C7    C     C_R   0.892738 0.574287 0.528085 0.328297
C8    C     C_R   0.111062 0.471256 0.432578 0.333005
C9    C     C_R   0.792902 0.569431 0.536572 0.126809
C10   C     C_R   0.209538 0.461183 0.436740 0.132204
C11   C     C_R   0.800866 0.429384 0.464196 0.191957
C12   C     C_R   0.500229 0.327963 0.500843 0.887385
C13   C     C_R   0.196165 0.537963 0.564410 0.186922
C14   C     C_R   0.897965 0.421758 0.474552 0.096638
C15   C     C_R   0.097323 0.526174 0.571134 0.097566
C16   C     C_R   0.486679 0.493528 0.652812 0.919097
C17   C     C_R   0.513604 0.500659 0.346608 0.908233
C18   C     C_R   0.946489 0.497158 0.502530 0.034028
C19   C     C_R   0.052828 0.497372 0.502641 0.033848
C20   C     C_R   0.479169 0.460667 0.734448 -0.120029
C21   C     C_R   0.523447 0.498560 0.259002 -0.118776
C22   C     C_R   0.557502 0.418074 0.761266 -0.221332
C23   C     C_R   0.422000 0.906344 0.557931 0.188098
C24   C     C_R   0.449693 0.528822 0.217427 -0.203225
C25   C     C_R   0.552071 0.382676 0.837099 0.173758
C26   C     C_R   0.455981 0.520707 0.133819 0.186167
C27   C     C_R   0.468997 0.394219 0.888945 0.041462
C28   C     C_R   0.535198 0.478092 0.091602 0.028281
C29   C     C_R   0.386528 0.423970 0.857852 0.192657
C30   C     C_R   0.612414 0.454315 0.132965 0.191418
C31   C     C_R   0.392269 0.458168 0.780902 -0.194372
C32   C     C_R   0.606090 0.464850 0.216461 -0.207534
C33   C     C_2   0.474662 0.400322 0.976254 -0.130190
C34   C     C_R   0.562200 0.101392 0.564971 0.195459
C35   C     C_2   0.536863 0.457171 0.005395 -0.141349
C36   C     C_R   0.421348 0.813928 0.547644 -0.189271
C37   C     C_R   0.563392 0.193215 0.555773 -0.195732
C38   C     C_R   0.499061 0.768742 0.507120 -0.074566
C39   C     C_R   0.500407 0.232557 0.507811 -0.066473
C40   C     C_R   0.578003 0.815760 0.476556 -0.158136
H1    H     H_    0.623018 0.410979 0.723042 0.194341
H2    H     H_    0.387199 0.211258 0.431722 0.186911
H3    H     H_    0.638011 0.944823 0.458575 0.171792
H4    H     H_    0.387669 0.048793 0.444032 0.171870
H5    H     H_    0.895817 0.703840 0.544787 0.365320
H6    H     H_    0.118281 0.456861 0.315685 0.369189
H7    H     H_    0.387530 0.559445 0.249855 0.188741
H8    H     H_    0.664779 0.443996 0.248052 0.202715
H9    H     H_    0.329160 0.483197 0.758013 0.202895
H10   H     H_    0.589335 0.489876 0.965300 0.192634
H11   H     H_    0.420524 0.370364 0.016666 0.194963
H12   H     H_    0.360935 0.777588 0.572492 0.197204
H13   H     H_    0.612020 0.233991 0.587166 0.176836
H14   H     H_    0.638520 0.781193 0.445189 0.171312
I1    I     I_    0.719030 0.662666 0.620352 -0.212354
I2    I     I_    0.670637 0.310611 0.868599 -0.205343
I3    I     I_    0.303959 0.970339 0.623997 -0.223680
I4    I     I_    0.655653 0.045878 0.642020 -0.221522
I5    I     I_    0.282027 0.368813 0.351307 -0.269200
I6    I     I_    0.745026 0.335279 0.382236 -0.212939
I7    I     I_    0.251039 0.627345 0.650575 -0.215818
I8    I     I_    0.966989 0.293381 0.457676 -0.159573
I9    I     I_    0.018383 0.540986 0.687096 -0.140167
I10   I     I_    0.251895 0.418920 0.922911 -0.190206
I11   I     I_    0.739796 0.400161 0.074854 -0.187970
I12   I     I_    0.347731 0.582240 0.076170 -0.243364
N1    N     N_R   0.747530 0.500020 0.500000 -0.162581
N2    N     N_R   0.252470 0.499980 0.500000 -0.156548
O1    O     O_R   0.420520 0.630930 0.499990 -0.604468
O2    O     O_3   0.069864 0.453213 0.361993 -0.703606
O3    O     O_R   0.579480 0.369070 0.500010 -0.604548
O4    O     O_R   0.579480 0.630940 0.499990 -0.597010
O5    O     O_R   0.420520 0.369060 0.500010 -0.595066
O6    O     O_R   0.411130 0.500010 0.615800 -0.601023
O7    O     O_R   0.588870 0.499990 0.384200 -0.604371
O8    O     O_R   0.570080 0.500020 0.615800 -0.599664
O9    O     O_R   0.429920 0.499980 0.384200 -0.595474
O10   O     O_3   0.939261 0.652203 0.546583 -0.706030
Zn1   Zn    Zn3+2 0.393860 0.499990 0.500000 1.012538
Zn2   Zn    Zn3+2 0.606140 0.500010 0.500000 1.007373

loop_
_geom_bond_atom_site_label_1
_geom_bond_atom_site_label_2
_ccdc_geom_bond_type
C30   C32   A    
C27   C29   A    
C34   C37   A    
C14   C18   A    
C25   I2    S    
C27   C33   S    
C15   C19   A    
C3    H3    S    
C16   O6    A    
C24   C26   A    
C5    C6    S    
C11   C14   A    
C22   H1    S    
C14   I8    S    
C7    C9    A    
C18   C19   S    
C2    C39   A    
C28   C35   S    
C22   C25   A    
H5    O10   S    
C9    I1    S    
O7    Zn2   S    
C36   H12   S    
C37   H13   S    
N2    Zn1   S    
C29   I10   S    
C12   O5    A    
C32   H8    S    
C31   H9    S    
O3    Zn2   S    
C11   N1    A    
O9    Zn1   S    
C37   C39   A    
C21   C32   A    
C1    O4    A    
C8    C19   A    
C4    C6    A    
C4    H4    S    
C1    O1    A    
C6    C34   A    
C26   I12   S    
C2    C4    A    
C9    N1    A    
C5    C23   A    
C16   C20   S    
C7    C18   A    
C35   H10   S    
C17   O9    A    
O5    Zn1   S    
C1    C38   S    
C7    O10   S    
C8    C10   A    
C12   O3    A    
C20   C22   A    
C3    C40   A    
C40   H14   S    
O6    Zn1   S    
C13   C15   A    
O1    Zn1   S    
C25   C27   A    
C11   I6    S    
C34   I4    S    
C23   I3    S    
C16   O8    A    
C24   H7    S    
C8    O2    S    
N1    Zn2   S    
O8    Zn2   S    
C3    C5    A    
C10   N2    A    
C33   H11   S    
C26   C28   A    
C12   C39   S    
C28   C30   A    
C10   I5    S    
C29   C31   A    
C38   C40   A    
C2    H2    S    
C36   C38   A    
C33   C35   D    
C17   C21   S    
H6    O2    S    
C30   I11   S    
C13   I7    S    
O4    Zn2   S    
C23   C36   A    
C21   C24   A    
C17   O7    A    
C15   I9    S    
C13   N2    A    
C20   C31   A    
