data_mof_unit_48934.cif
_audit_creation_date              2012-12-11T15:47:00-0500
_audit_creation_method            fapswitch 2.2
_symmetry_space_group_name_H-M    P1
_symmetry_Int_Tables_number       1
_space_group_crystal_system       triclinic
_cell_length_a                    20.155027
_cell_length_b                    7.251971
_cell_length_c                    13.591101
_cell_angle_alpha                 90.000968
_cell_angle_beta                  102.818495
_cell_angle_gamma                 89.998892
_cell_volume                      1937.01661599

loop_
_atom_site_label
_atom_site_type_symbol
_atom_type_description
_atom_site_fract_x
_atom_site_fract_y
_atom_site_fract_z
_atom_type_partial_charge
O1    O     O_R   0.449560 0.506810 0.599700 -0.534250
O2    O     O_R   0.550440 0.006810 0.400300 -0.534252
O3    O     O_R   0.587960 0.180060 0.595760 -0.545658
O4    O     O_R   0.412040 0.680060 0.404240 -0.545658
C1    C     C_R   0.615298 0.345348 0.616933 0.693132
C2    C     C_R   0.384702 0.845349 0.383067 0.693138
O5    O     O_R   0.452380 0.177430 0.611700 -0.538430
O6    O     O_R   0.547620 0.677430 0.388300 -0.538433
O7    O     O_R   0.413900 0.001890 0.416350 -0.536051
O8    O     O_R   0.586100 0.501890 0.583650 -0.536051
C3    C     C_R   0.436022 0.345364 0.637326 0.686372
C4    C     C_R   0.563978 0.845359 0.362674 0.686371
O9    O     O_3   0.487530 0.337490 0.435890 -0.379062
O10   O     O_3   0.512470 0.837490 0.564110 -0.379061
V1    V     V_3+5 0.502310 0.064660 0.511890 1.399535
V2    V     V_3+5 0.497690 0.564660 0.488110 1.399533
C5    C     C_R   0.610491 0.803840 0.111488 -0.160942
C6    C     C_R   0.389515 0.304138 0.888530 -0.160933
H1    H     H_    0.517016 0.800853 0.162214 0.104942
H2    H     H_    0.482992 0.301202 0.837812 0.104935
H3    H     H_    0.693788 0.800325 0.985710 0.123552
H4    H     H_    0.306219 0.300713 0.014307 0.123543
H5    H     H_    0.584704 0.785376 0.033195 0.113926
H6    H     H_    0.415306 0.285838 0.966834 0.113925
C7    C     C_R   0.603621 0.849190 0.284779 -0.030699
C8    C     C_R   0.396377 0.349216 0.715217 -0.030679
C9    C     C_R   0.931715 0.865169 0.316039 -0.216732
C10   C     C_R   0.068280 0.365016 0.683959 -0.216737
C11   C     C_R   0.897839 0.833812 0.392765 -0.119124
C12   C     C_R   0.102156 0.333579 0.607241 -0.119118
C13   C     C_R   0.827458 0.802312 0.371328 0.174767
C14   C     C_R   0.172540 0.302114 0.628685 0.174767
C15   C     C_R   0.788438 0.825767 0.270170 0.059066
C16   C     C_R   0.211561 0.325700 0.729835 0.059054
C17   C     C_R   0.824843 0.839308 0.191395 0.033807
C18   C     C_R   0.175157 0.339333 0.808607 0.033809
C19   C     C_R   0.715472 0.831689 0.242753 0.079050
C20   C     C_R   0.284528 0.331686 0.757249 0.079049
C21   C     C_R   0.681764 0.814105 0.139483 0.141024
C22   C     C_R   0.318240 0.314283 0.860528 0.141025
C23   C     C_R   0.719162 0.810982 0.064674 -0.204449
C24   C     C_R   0.280844 0.311237 0.935339 -0.204446
C25   C     C_R   0.789299 0.830280 0.089817 -0.181068
C26   C     C_R   0.210704 0.330451 0.910188 -0.181051
C27   C     C_R   0.674512 0.864698 0.312944 -0.230226
C28   C     C_R   0.325482 0.364606 0.687041 -0.230205
C29   C     C_R   0.571810 0.815548 0.184309 -0.167347
C30   C     C_R   0.428195 0.315781 0.815706 -0.167373
C31   C     C_R   0.896476 0.859213 0.215620 -0.067386
C32   C     C_R   0.103522 0.359186 0.784379 -0.067381
H7    H     H_    0.696299 0.904219 0.389706 0.126273
H8    H     H_    0.303691 0.403993 0.610261 0.126250
H9    H     H_    0.986493 0.882606 0.334866 0.113613
H10   H     H_    0.013500 0.382411 0.665131 0.113612
H11   H     H_    0.927568 0.823081 0.469485 0.127586
H12   H     H_    0.072425 0.322754 0.530527 0.127582
H13   H     H_    0.815560 0.835585 0.028485 0.117286
H14   H     H_    0.184443 0.335824 0.971520 0.117267
C33   C     C_R   0.209731 0.018282 0.238862 -0.154328
C34   C     C_R   0.790268 0.518281 0.761138 -0.154343
H15   H     H_    0.179625 0.143414 0.230309 0.127445
H16   H     H_    0.820373 0.643412 0.769692 0.127447
C35   C     C_R   0.274863 0.020032 0.302813 0.165314
C36   C     C_R   0.725136 0.520030 0.697187 0.165306
C37   C     C_R   0.315140 0.856084 0.315134 -0.055827
C38   C     C_R   0.684860 0.356083 0.684866 -0.055834
C39   C     C_R   0.287562 0.697163 0.261538 -0.204950
C40   C     C_R   0.712440 0.197164 0.738461 -0.204953
H17   H     H_    0.316793 0.571051 0.267321 0.133867
H18   H     H_    0.683209 0.071053 0.732678 0.133871
C41   C     C_R   0.222463 0.698121 0.198458 -0.154865
C42   C     C_R   0.777538 0.198123 0.801542 -0.154859
H19   H     H_    0.203636 0.573036 0.158263 0.127221
H20   H     H_    0.796366 0.073039 0.841737 0.127229
C43   C     C_R   0.182851 0.858989 0.186146 -0.075419
C44   C     C_R   0.817149 0.358990 0.813855 -0.075422
O11   O     O_R   0.913920 0.203370 0.916260 -0.538863
O12   O     O_R   0.086080 0.703370 0.083740 -0.538864
O13   O     O_R   0.047620 0.535540 0.888290 -0.539003
O14   O     O_R   0.952380 0.035540 0.111710 -0.539001
C45   C     C_R   0.063994 0.368351 0.862602 0.689410
C46   C     C_R   0.936005 0.868356 0.137397 0.689407
O15   O     O_R   0.912040 0.532780 0.904220 -0.547657
O16   O     O_R   0.087960 0.032780 0.095780 -0.547652
O17   O     O_R   0.949550 0.708160 0.099720 -0.535162
O18   O     O_R   0.050450 0.208160 0.900280 -0.535158
C47   C     C_R   0.885667 0.364684 0.882853 0.683926
C48   C     C_R   0.114333 0.864683 0.117147 0.683931
O19   O     O_3   0.012480 0.375300 0.064060 -0.378808
O20   O     O_3   0.987520 0.875300 0.935940 -0.378808
V3    V     V_3+5 0.997690 0.648180 0.988110 1.410627
V4    V     V_3+5 0.002310 0.148180 0.011890 1.410640
C49   C     C_3   0.298685 0.199125 0.355690 -0.760456
H21   H     H_    0.258665 0.307144 0.340399 0.183348
H22   H     H_    0.312513 0.178038 0.438578 0.211547
H23   H     H_    0.342925 0.253208 0.328543 0.217462
C50   C     C_3   0.701314 0.699121 0.644308 -0.760437
H24   H     H_    0.741334 0.807137 0.659598 0.183357
H25   H     H_    0.687486 0.678029 0.561421 0.211553
H26   H     H_    0.657074 0.753211 0.671456 0.217457
C51   C     C_3   0.800446 0.714782 0.455255 -0.827793
H27   H     H_    0.838621 0.618266 0.499297 0.214772
H28   H     H_    0.790261 0.822952 0.507682 0.208219
H29   H     H_    0.754698 0.629401 0.425845 0.217447
C52   C     C_3   0.199553 0.214494 0.544780 -0.827768
H30   H     H_    0.161383 0.117928 0.500769 0.214760
H31   H     H_    0.209724 0.322607 0.492315 0.208221
H32   H     H_    0.245309 0.129147 0.574210 0.217451

loop_
_geom_bond_atom_site_label_1
_geom_bond_atom_site_label_2
_ccdc_geom_bond_type
O15   C47   A    
C35   C37   A    
O11   V4    S    
O4    V2    S    
C51   H27   S    
C7    C27   A    
C9    C11   A    
C38   C40   A    
O1    C3    A    
C42   C44   A    
O2    C4    A    
C2    O7    A    
C50   H24   S    
O17   V3    S    
C18   C32   A    
C21   C23   A    
O5    C3    A    
C52   H31   S    
C5    H5    S    
C6    H6    S    
C13   C51   S    
H1    C29   S    
C27   H7    S    
C28   H8    S    
C34   H16   S    
C5    C21   A    
C6    C22   A    
C10   C32   A    
C2    C37   S    
C26   H14   S    
C37   C39   A    
C17   C31   A    
C13   C15   A    
C12   C14   A    
C17   C25   A    
C7    C29   A    
O13   V3    S    
C45   O18   A    
C8    C30   A    
O6    V2    S    
C22   C24   A    
C51   H28   S    
C23   C25   A    
C24   C26   A    
C50   H25   S    
C19   C21   A    
C52   H32   S    
C41   C43   A    
C33   H15   S    
C5    C29   A    
C42   H20   S    
C41   H19   S    
C10   H10   S    
C11   H11   S    
C3    C8    S    
C12   H12   S    
C34   C44   A    
C15   C19   A    
C40   C42   A    
C39   H17   S    
C14   C16   A    
C31   C46   S    
O14   V4    S    
O6    C4    A    
C25   H13   S    
O1    V2    S    
O19   V4    S    
O2    V1    S    
C44   C47   S    
O11   C47   A    
H2    C30   S    
H3    C23   S    
O4    C2    A    
C36   C50   S    
C49   H23   S    
C14   C52   S    
C18   C26   A    
C19   C27   A    
C33   C43   A    
C50   H26   S    
O3    V1    S    
O13   C45   A    
C52   H30   S    
O12   C48   A    
C16   C20   A    
O16   C48   A    
C1    C38   S    
O3    C1    A    
C6    C30   A    
C9    H9    S    
O12   V3    S    
C51   H29   S    
C46   O17   A    
O15   V3    S    
C49   H21   S    
C35   C49   S    
C33   C35   A    
C4    C7    S    
C34   C36   A    
C10   C12   A    
O7    V1    S    
C1    O8    A    
C11   C13   A    
O8    V2    S    
C20   C22   A    
O20   V3    S    
H4    C24   S    
O5    V1    S    
C15   C17   A    
O14   C46   A    
C39   C41   A    
C20   C28   A    
C8    C28   A    
C43   C48   S    
C16   C18   A    
C49   H22   S    
O9    V2    S    
C40   H18   S    
O10   V1    S    
O18   V4    S    
O16   V4    S    
C9    C31   A    
C32   C45   S    
C36   C38   A    
