data_mof_unit_14541.cif
_audit_creation_date              2012-12-10T19:06:26-0500
_audit_creation_method            fapswitch 2.2
_symmetry_space_group_name_H-M    P1
_symmetry_Int_Tables_number       1
_space_group_crystal_system       triclinic
_cell_length_a                    23.434181
_cell_length_b                    10.818942
_cell_length_c                    9.551685
_cell_angle_alpha                 89.58209
_cell_angle_beta                  88.935614
_cell_angle_gamma                 89.990331
_cell_volume                      2421.18552135

loop_
_atom_site_label
_atom_site_type_symbol
_atom_type_description
_atom_site_fract_x
_atom_site_fract_y
_atom_site_fract_z
_atom_type_partial_charge
C1    C     C_R   0.499854 0.262412 0.500332 0.818778
C2    C     C_R   0.966836 0.461087 0.758303 -0.160617
C3    C     C_R   0.026403 0.458061 0.758875 -0.172376
C4    C     C_R   0.058324 0.499258 0.641570 -0.009975
C5    C     C_R   0.029809 0.545562 0.523726 -0.016179
C6    C     C_R   0.061357 0.588648 0.406254 -0.015066
C7    C     C_R   0.032541 0.634001 0.288932 -0.171913
C8    C     C_R   0.973052 0.634690 0.287313 -0.162003
C9    C     C_R   0.118172 0.493397 0.637729 0.522399
C10   C     C_R   0.121103 0.583541 0.408509 0.548093
C11   C     C_R   0.235438 0.431748 0.427568 -0.005860
C12   C     C_R   0.391032 0.498302 0.501268 0.838141
C13   C     C_R   0.295541 0.422074 0.422410 0.073355
C14   C     C_R   0.328507 0.501720 0.505065 -0.080852
C15   C     C_R   0.301570 0.586819 0.594197 -0.250511
C16   C     C_R   0.242462 0.595921 0.599579 -0.104454
C17   C     C_R   0.209150 0.519843 0.516399 0.288843
C18   C     C_R   0.765888 0.417610 0.489880 -0.199384
C19   C     C_R   0.706535 0.402605 0.487277 -0.030748
C20   C     C_R   0.671167 0.507726 0.500131 -0.076925
C21   C     C_R   0.695569 0.624107 0.522233 -0.277309
C22   C     C_R   0.754721 0.637856 0.527973 0.197066
C23   C     C_R   0.500049 0.737616 0.499621 0.790061
C24   C     C_R   0.790161 0.534209 0.510248 0.290502
C25   C     C_R   0.496610 0.062561 0.625424 0.096027
C26   C     C_R   0.502716 0.129186 0.500415 -0.065162
C27   C     C_R   0.514664 0.065497 0.375589 -0.181508
C28   C     C_R   0.514600 0.936918 0.375178 -0.226329
C29   C     C_R   0.503008 0.870907 0.499480 -0.090614
C30   C     C_R   0.496725 0.935230 0.624833 0.099237
C31   C     C_3   0.449619 0.927548 0.732118 -0.440498
C32   C     C_3   0.449871 0.067641 0.733663 -0.455699
C33   C     C_R   0.514054 0.604256 0.070793 0.217853
C34   C     C_R   0.608885 0.498928 0.499348 0.803924
C35   C     C_R   0.480341 0.401244 0.076121 -0.067936
C36   C     C_R   0.480645 0.401031 0.927385 -0.085456
C37   C     C_R   0.511737 0.605691 0.924023 0.235597
C38   C     C_3   0.563317 0.684198 0.906262 -0.520410
C39   C     C_3   0.568608 0.678253 0.064979 -0.266037
C40   C     C_R   0.881364 0.587654 0.402557 0.561473
C41   C     C_R   0.878097 0.504630 0.635024 0.568902
C42   C     C_R   0.937956 0.504636 0.640092 -0.020987
C43   C     C_R   0.969593 0.547627 0.522719 -0.020758
C44   C     C_R   0.941157 0.591033 0.403471 -0.006872
Cu1   Cu    Cu3+1 0.500000 0.499980 0.640670 0.940740
Cu2   Cu    Cu3+1 0.500000 0.500020 0.359330 0.966814
H1    H     H_    0.943536 0.427858 0.850060 0.187234
H2    H     H_    0.668443 0.704436 0.535462 0.143842
H3    H     H_    0.522338 0.114471 0.277730 0.156494
H4    H     H_    0.521603 0.889943 0.277154 0.151404
H5    H     H_    0.409757 0.887718 0.689916 0.200982
H6    H     H_    0.463728 0.885735 0.832234 0.190388
H7    H     H_    0.410008 0.109729 0.693569 0.212444
H8    H     H_    0.464835 0.105343 0.834391 0.184545
H9    H     H_    0.465170 0.320407 0.132479 0.166091
H10   H     H_    0.047305 0.422545 0.851039 0.181023
H11   H     H_    0.465629 0.320418 0.873520 0.146595
H12   H     H_    0.598001 0.637871 0.845316 0.226679
H13   H     H_    0.552810 0.778217 0.867118 0.181016
H14   H     H_    0.563104 0.770845 0.112348 0.135639
H15   H     H_    0.055822 0.667555 0.197296 0.188827
H16   H     H_    0.952189 0.668845 0.194471 0.192034
H17   H     H_    0.326524 0.647933 0.658410 0.158731
H18   H     H_    0.222342 0.663361 0.667647 0.156547
H19   H     H_    0.793591 0.337746 0.480370 0.158873
N1    N     N_R   0.851131 0.544780 0.517018 -0.451827
N2    N     N_R   0.148138 0.533450 0.521489 -0.459000
N3    N     N_R   0.500360 0.500930 0.147930 -0.190879
N4    N     N_R   0.500360 0.500890 0.852020 -0.185220
O1    O     O_R   0.500000 0.319640 0.618810 -0.591954
O2    O     O_2   0.847050 0.463973 0.746499 -0.529265
O3    O     O_2   0.146190 0.446306 0.748134 -0.567660
O4    O     O_2   0.152029 0.627575 0.298487 -0.546710
O5    O     O_R   0.500010 0.319680 0.381230 -0.587131
O6    O     O_R   0.417880 0.499940 0.618820 -0.576353
O7    O     O_R   0.417880 0.499980 0.381240 -0.546316
O8    O     O_R   0.499990 0.680320 0.618770 -0.580677
O9    O     O_R   0.500000 0.680360 0.381190 -0.586212
O10   O     O_R   0.582120 0.500020 0.618760 -0.588043
O11   O     O_R   0.582120 0.500060 0.381180 -0.564303
O12   O     O_2   0.853726 0.625507 0.287515 -0.571130
C45   C     C_R   0.683417 0.275529 0.483104 0.099430
C46   C     C_R   0.653880 0.226601 0.600206 -0.138654
C47   C     C_R   0.637985 0.102059 0.603564 -0.128298
C48   C     C_R   0.650413 0.026172 0.489231 -0.067446
C49   C     C_R   0.679308 0.074421 0.371834 -0.117358
C50   C     C_R   0.696405 0.198288 0.369311 -0.140339
H20   H     H_    0.644847 0.283731 0.690600 0.139990
H21   H     H_    0.616237 0.064218 0.695154 0.128802
H22   H     H_    0.637820 0.929941 0.491811 0.121594
H23   H     H_    0.689299 0.015298 0.283798 0.130686
H24   H     H_    0.720502 0.233444 0.279882 0.125418
I1    I     I_    0.788344 0.815941 0.565465 -0.357735
C51   C     C_R   0.623165 0.613588 0.105949 0.225332
C52   C     C_R   0.666507 0.684139 0.165744 -0.179552
C53   C     C_R   0.720585 0.633610 0.184827 -0.090671
C54   C     C_R   0.731711 0.511155 0.147827 -0.057299
C55   C     C_R   0.688737 0.439378 0.090086 -0.176281
C56   C     C_R   0.634816 0.490210 0.068190 -0.094744
H25   H     H_    0.659097 0.779847 0.193234 0.114914
H26   H     H_    0.753756 0.690313 0.227893 0.200267
H27   H     H_    0.773634 0.472005 0.163257 0.170707
H28   H     H_    0.697518 0.345085 0.059425 0.135031
H29   H     H_    0.603007 0.434442 0.017860 0.126237
C57   C     C_R   0.199637 0.349877 0.342073 0.122858
C58   C     C_R   0.199060 0.363919 0.195776 -0.044148
C59   C     C_R   0.163508 0.289831 0.115673 -0.124414
C60   C     C_R   0.128293 0.201620 0.181007 -0.111620
C61   C     C_R   0.128606 0.187278 0.326555 -0.121477
C62   C     C_R   0.164107 0.261152 0.407037 -0.141170
H30   H     H_    0.225726 0.432898 0.144222 0.164878
H31   H     H_    0.163098 0.301093 0.003024 0.177946
H32   H     H_    0.100711 0.144515 0.118878 0.139901
H33   H     H_    0.101237 0.119105 0.377047 0.144502
H34   H     H_    0.163831 0.249568 0.519764 0.154537
I2    I     I_    0.335668 0.278050 0.303373 -0.403903

loop_
_geom_bond_atom_site_label_1
_geom_bond_atom_site_label_2
_ccdc_geom_bond_type
C57   C62   A    
C37   N4    A    
C41   C42   A    
C52   C53   A    
C9    O3    S    
C31   H6    S    
Cu2   O7    S    
C54   C55   A    
C7    C8    A    
C48   C49   A    
C18   H19   S    
C26   C27   A    
C33   C39   S    
C18   C24   A    
C1    O5    A    
C23   C29   S    
C28   C29   A    
C49   H23   S    
C30   C31   S    
C10   O4    S    
C58   C59   A    
C45   C50   A    
C35   N3    A    
C60   C61   A    
C18   C19   A    
C59   H31   S    
C7    H15   S    
C34   O11   A    
C38   H12   S    
C28   H4    S    
C31   C32   S    
C16   C17   A    
C11   C57   S    
C59   C60   A    
C19   C45   S    
C54   H27   S    
C24   N1    S    
C41   O2    S    
C21   H2    S    
C20   C34   S    
C25   C32   S    
C56   H29   S    
C5    C43   A    
C40   N1    A    
C21   C22   A    
C32   H8    S    
C58   H30   S    
C38   C39   S    
C17   N2    S    
C15   C16   A    
Cu1   N4    S    
C53   H26   S    
C47   C48   A    
C36   H11   S    
Cu2   O9    S    
C52   H25   S    
C25   C26   A    
C10   N2    A    
C35   H9    S    
C33   C37   A    
C35   C36   A    
C60   H32   S    
C43   C44   A    
C9    N2    A    
C39   C51   S    
Cu2   N3    S    
C37   C38   S    
C34   O10   A    
C3    H10   S    
C46   C47   A    
C53   C54   A    
Cu1   O10   S    
C23   O8    A    
C41   N1    A    
C61   H33   S    
C12   C14   S    
C45   C46   A    
C12   O7    A    
C1    C26   S    
C22   I1    S    
C22   C24   A    
Cu1   Cu2   S    
C47   H21   S    
C3    C4    A    
C32   H7    S    
Cu2   O5    S    
C50   H24   S    
C36   N4    A    
C25   C30   A    
C11   C17   A    
Cu1   O1    S    
C49   C50   A    
C40   O12   S    
C8    C44   A    
C31   H5    S    
C4    C5    A    
C6    C10   A    
C48   H22   S    
C6    C7    A    
C2    H1    S    
C57   C58   A    
C1    O1    A    
Cu1   O6    S    
C19   C20   A    
C2    C3    A    
C61   C62   A    
Cu2   O11   S    
C11   C13   A    
C5    C6    A    
C51   C56   A    
C2    C42   A    
C39   H14   S    
C46   H20   S    
C23   O9    A    
C51   C52   A    
C13   I2    S    
C29   C30   A    
C38   H13   S    
C27   H3    S    
C40   C44   A    
C20   C21   A    
C55   C56   A    
C42   C43   A    
C12   O6    A    
C27   C28   A    
C15   H17   S    
C14   C15   A    
Cu1   O8    S    
C16   H18   S    
C4    C9    A    
C13   C14   A    
C62   H34   S    
C55   H28   S    
C33   N3    A    
C8    H16   S    
