data_mof_unit_56129.cif
_audit_creation_date              2013-03-05T15:51:17-0500
_audit_creation_method            fapswitch 2.2
_symmetry_space_group_name_H-M    P1
_symmetry_Int_Tables_number       1
_space_group_crystal_system       triclinic
_cell_length_a                    8.250857
_cell_length_b                    17.338673
_cell_length_c                    17.3442
_cell_angle_alpha                 97.870982
_cell_angle_beta                  96.19717
_cell_angle_gamma                 97.470269
_cell_volume                      2416.94712721

loop_
_atom_site_label
_atom_site_type_symbol
_atom_site_description
_atom_site_fract_x
_atom_site_fract_y
_atom_site_fract_z
_atom_type_partial_charge
P1    P     P_3+3 0.996700 0.679700 0.572930 0.507119
O1    O     O_2   0.169780 0.691990 0.551040 -0.303725
O2    O     O_3   0.896620 0.594010 0.545570 -0.425311
O3    O     O_3   0.384860 0.644020 0.410190 -0.365776
O4    O     O_2   0.362707 0.782542 0.493118 -0.313047
O5    O     O_3   0.030875 0.699431 0.675642 -0.544685
O6    O     O_3   0.327563 0.776787 0.339709 -0.493688
H1    H     H_    0.437970 0.703587 0.262336 0.069712
C1    C     C_3   0.331604 0.790311 0.204068 -0.914418
H2    H     H_    0.212995 0.751072 0.184606 0.296243
H3    H     H_    0.308521 0.852167 0.216925 0.251378
P2    P     P_3+3 0.328720 0.438370 0.322170 0.515101
P3    P     P_3+3 0.920040 0.598066 0.266650 0.499046
O7    O     O_2   0.160250 0.462050 0.312130 -0.312993
O8    O     O_3   0.957280 0.604490 0.369120 -0.385722
O9    O     O_2   0.050501 0.553762 0.229675 -0.352763
O10   O     O_3   0.280641 0.336140 0.296147 -0.541679
O11   O     O_3   0.964933 0.692742 0.243286 -0.521059
C2    C     C_3   0.886833 0.743708 0.291784 0.496629
H4    H     H_    0.944468 0.749997 0.353725 0.106500
H5    H     H_    0.752916 0.721740 0.286887 -0.044768
C3    C     C_3   0.907166 0.824613 0.266463 -0.987761
H6    H     H_    0.039773 0.849236 0.272915 0.283917
H7    H     H_    0.853054 0.820326 0.204283 0.260062
C4    C     C_3   0.645824 0.288397 0.284132 0.862193
H8    H     H_    0.558164 0.318887 0.315624 0.031215
C5    C     C_3   0.596456 0.199009 0.274512 -1.056076
H9    H     H_    0.567044 0.181372 0.331019 0.231050
H10   H     H_    0.485213 0.179540 0.230688 0.264209
H11   H     H_    0.698322 0.168499 0.254471 0.259675
Ba1   Ba    Ba6+2 0.160000 0.538340 0.465920 1.635174
C6    C     C_3   0.065768 0.631928 0.706183 0.456068
H12   H     H_    0.157035 0.603793 0.674366 0.107588
H13   H     H_    0.951632 0.589256 0.701515 0.099646
C7    C     C_3   0.135793 0.655441 0.792566 -0.976734
H14   H     H_    0.253967 0.695639 0.798743 0.301968
H15   H     H_    0.155927 0.602771 0.819604 0.216965
H16   H     H_    0.050198 0.686267 0.825895 0.254597
C8    C     C_3   0.231482 0.301975 0.359864 0.434150
H17   H     H_    0.135121 0.332021 0.385267 0.113122
H18   H     H_    0.338111 0.305381 0.405533 0.108138
C9    C     C_3   0.162602 0.215812 0.330747 -0.977183
H19   H     H_    0.042110 0.211148 0.293820 0.279979
H20   H     H_    0.146108 0.183465 0.380672 0.223054
H21   H     H_    0.248584 0.187314 0.295370 0.266304
P4    P     P_3+3 0.813590 0.320290 0.427010 0.465026
O12   O     O_2   0.640500 0.307960 0.448930 -0.406257
O13   O     O_3   0.913680 0.405980 0.454370 -0.365090
O14   O     O_3   0.425430 0.355970 0.589750 -0.361071
O15   O     O_3   0.806215 0.309871 0.324131 -0.585782
P5    P     P_3+3 0.881303 0.393355 0.732092 0.468272
O16   O     O_3   0.389690 0.539950 0.593560 -0.364176
O17   O     O_3   0.853010 0.395500 0.630820 -0.389168
O18   O     O_2   0.758174 0.441974 0.770109 -0.372548
O19   O     O_3   0.818735 0.297203 0.748215 -0.500398
Ba2   Ba    Ba6+2 0.650170 0.461650 0.534010 1.583816
P6    P     P_3+3 0.434049 0.745961 0.420151 0.508695
C10   C     C_3   0.420203 0.766333 0.276545 0.404390
H22   H     H_    0.541485 0.804735 0.290517 0.036171
H23   H     H_    0.409258 0.785544 0.155652 0.213564
O20   O     O_3   0.420600 0.460050 0.406370 -0.414842
C11   C     C_3   0.628674 0.706200 0.707166 0.870493
H24   H     H_    0.692386 0.674301 0.662259 -0.001733
C12   C     C_3   0.740100 0.727002 0.785341 -1.008586
H25   H     H_    0.766871 0.672203 0.807258 0.228962
H26   H     H_    0.856860 0.763570 0.778540 0.272250
H27   H     H_    0.677585 0.760752 0.829440 0.258407
P7    P     P_3+3 0.472712 0.560605 0.691958 0.437585
O21   O     O_2   0.650040 0.537900 0.687840 -0.389466
O22   O     O_3   0.481240 0.662354 0.720250 -0.612994
H28   H     H_    0.843578 0.865125 0.303759 0.212231
C13   C     C_3   0.865332 0.244971 0.688098 0.521088
H29   H     H_    0.786522 0.244855 0.631966 0.147946
H30   H     H_    0.996546 0.261118 0.680311 -0.042979
C14   C     C_3   0.842675 0.162201 0.708877 -0.930494
H31   H     H_    0.711766 0.143780 0.715944 0.289984
H32   H     H_    0.878202 0.120380 0.661458 0.223658
H33   H     H_    0.921595 0.160459 0.764510 0.251536
P8    P     P_3+3 0.388835 0.254432 0.586114 0.461150
C15   C     C_3   0.339302 0.254018 0.729572 0.367674
H34   H     H_    0.231412 0.206645 0.718787 0.054846
O23   O     O_2   0.505592 0.218299 0.532077 -0.390369
O24   O     O_3   0.455251 0.234255 0.679435 -0.485320
H35   H     H_    0.298571 0.311444 0.721704 0.073256
H36   H     H_    0.324579 0.274860 0.854336 0.208315
C16   C     C_3   0.416707 0.260999 0.814296 -0.821014
H37   H     H_    0.523454 0.308993 0.826891 0.281970
H38   H     H_    0.459165 0.204744 0.825055 0.257132
C17   C     C_2   0.741660 0.725272 0.489779 -0.296036
C18   C     C_3   0.662354 0.771879 0.432853 0.020611
C19   C     C_2   0.718077 0.859093 0.455067 -0.170521
C20   C     C_2   0.863497 0.886225 0.500753 0.141233
C21   C     C_2   0.956260 0.827537 0.535922 -0.188111
C22   C     C_1   0.889697 0.752279 0.528117 0.263476
C23   C     C_R   0.109303 0.139722 0.534769 -0.291585
C24   C     C_R   0.172701 0.219706 0.546236 0.197079
C25   C     C_R   0.922714 0.248868 0.475749 0.302023
C26   C     C_R   0.858688 0.168254 0.464275 -0.282095
C27   C     C_R   0.949687 0.113081 0.494909 0.135553
C28   C     C_2   0.932248 0.972056 0.518672 -0.143408
C29   C     C_2   0.879444 0.027829 0.478426 -0.163170
C30   C     C_R   0.076592 0.274222 0.520101 -0.492334
H39   H     H_    0.780177 0.011434 0.430456 0.125799
H40   H     H_    0.075083 0.847683 0.571146 0.166661
H41   H     H_    0.187870 0.098950 0.553987 0.150532
H42   H     H_    0.031482 0.988913 0.566737 0.138670
H43   H     H_    0.642637 0.898048 0.429567 0.122327
H44   H     H_    0.738871 0.148188 0.430781 0.147279
H45   H     H_    0.678210 0.667973 0.495982 0.151300
H46   H     H_    0.126885 0.336018 0.529055 0.164863
H47   H     H_    0.536019 0.539363 0.857379 0.144151
H48   H     H_    0.728984 0.562606 0.106071 0.144060
C31   C     C_R   0.606933 0.523540 0.279720 -0.454700
C32   C     C_R   0.446992 0.485726 0.253238 0.290292
C33   C     C_R   0.386939 0.475934 0.173192 -0.151515
C34   C     C_R   0.487512 0.503962 0.119625 0.069117
C35   C     C_R   0.649661 0.541301 0.146841 -0.234877
C36   C     C_R   0.709287 0.550526 0.227107 0.252703
C37   C     C_R   0.415249 0.507111 0.834153 -0.243053
C38   C     C_R   0.358538 0.501847 0.754257 0.318744
C39   C     C_R   0.095515 0.432671 0.774332 0.218850
C40   C     C_R   0.151553 0.437674 0.854673 -0.270084
C41   C     C_R   0.313060 0.474347 0.884664 0.068632
C42   C     C_1   0.372142 0.483490 0.967698 0.006711
C43   C     C_1   0.424741 0.492677 0.036861 0.023453
C44   C     C_R   0.201844 0.462061 0.724320 -0.498781
H49   H     H_    0.069294 0.414856 0.893520 0.161759
H50   H     H_    0.263862 0.445007 0.152557 0.164892
H51   H     H_    0.653962 0.529776 0.341311 0.170283
H52   H     H_    0.158237 0.459227 0.662726 0.158411
N1    N     N_R   0.591879 0.778891 0.679566 0.218881
O25   O     O_R   0.710311 0.829387 0.664111 -0.434750
O26   O     O_R   0.441544 0.794679 0.671649 -0.330755
N2    N     N_R   0.641193 0.313159 0.206621 0.215927
O27   O     O_R   0.773442 0.348338 0.184279 -0.363935
O28   O     O_R   0.502088 0.303889 0.160838 -0.414112

loop_
_geom_bond_atom_site_label_1
_geom_bond_atom_site_label_2
_geom_bond_distance
_ccdc_geom_bond_type
O5    C6    1.399240 S    
C21   C22   1.331118 D    
C24   C30   1.400860 A    
C5    H10   1.110265 S    
Ba1   O20   2.896047 S    
C2    H4    1.111897 S    
Ba1   O16   2.748966 S    
C15   H35   1.112327 S    
C32   C33   1.402452 A    
C41   C42   1.450041 S    
C8    H18   1.108212 S    
H36   C16   1.110677 S    
C40   H49   1.083070 S    
C31   H51   1.082299 S    
P3    O11   1.747163 S    
C7    H15   1.105184 S    
P1    O1    1.512941 D    
C15   O24   1.404308 S    
H48   C35   1.083252 S    
C15   H34   1.110824 S    
C38   C44   1.393567 A    
C44   H52   1.082202 S    
C33   C34   1.404700 A    
C17   H45   1.085752 S    
P1    Ba1   3.379376 S    
C26   H44   1.080303 S    
C34   C35   1.409455 A    
C11   O22   1.405557 S    
H47   C37   1.083810 S    
C1    C10   1.520266 S    
O10   C8    1.396548 S    
C17   C22   1.320597 D    
C4    O15   1.405032 S    
C20   C21   1.505006 S    
C15   C16   1.520015 S    
C23   H41   1.080785 S    
H1    C10   1.114284 S    
C23   C24   1.396361 A    
P7    O21   1.570159 D    
P2    O10   1.749957 S    
C11   C12   1.524607 S    
Ba1   Ba2   4.507392 S    
C1    H2    1.107780 S    
O7    Ba1   2.810712 S    
O6    C10   1.407029 S    
P5    O19   1.749044 S    
O19   C13   1.404858 S    
O16   P7    1.739690 S    
C25   C26   1.407655 A    
C29   H39   1.082329 S    
C5    H11   1.111496 S    
C9    H20   1.105206 S    
C13   C14   1.520142 S    
C21   H40   1.086097 S    
P3    C36   1.840793 S    
C8    C9    1.523328 S    
P2    C32   1.835276 S    
P4    O13   1.586782 S    
P6    C18   1.860654 S    
C16   H38   1.110639 S    
P1    O5    1.752048 S    
C12   H27   1.111114 S    
C19   H43   1.082096 S    
C2    C3    1.520613 S    
C13   H30   1.109870 S    
C19   C20   1.354494 D    
C16   H37   1.110863 S    
P1    C22   1.837338 S    
N2    O28   1.301530 A    
C4    H8    1.098439 S    
C33   H50   1.083619 S    
O14   P8    1.738362 S    
O1    Ba1   2.850370 S    
P1    O2    1.586752 S    
C9    H21   1.107257 S    
C6    H13   1.107603 S    
O3    P6    1.741664 S    
C14   H31   1.110532 S    
C6    C7    1.526211 S    
C11   H24   1.111260 S    
C1    H3    1.110421 S    
O2    Ba2   2.830958 S    
C7    H16   1.104654 S    
O2    Ba1   2.896707 S    
C4    N2    1.464375 S    
C14   H32   1.110013 S    
C39   C40   1.407258 A    
C27   C29   1.492746 S    
P4    C25   1.863086 S    
P2    O7    1.498927 D    
Ba2   O21   2.810928 S    
C34   C43   1.450291 S    
P3    O8    1.756262 S    
P2    Ba1   3.369231 S    
P5    C39   1.842723 S    
C3    H7    1.110586 S    
C30   H46   1.081314 S    
C9    H19   1.110194 S    
N1    O25   1.300632 A    
C17   C18   1.507507 S    
C3    H28   1.109840 S    
C8    H17   1.103681 S    
C20   C28   1.499625 S    
C31   C32   1.394274 A    
O17   Ba2   2.712136 S    
O13   Ba2   2.897523 S    
P4    O12   1.513251 D    
C2    H5    1.111128 S    
Ba2   O20   2.748405 S    
C11   N1    1.463976 S    
C25   C30   1.395833 A    
C13   H29   1.110456 S    
N1    O26   1.301605 A    
P8    O23   1.545956 D    
C37   C38   1.400630 A    
O8    Ba1   2.711432 S    
N2    O27   1.302246 A    
C37   C41   1.404418 A    
C4    C5    1.531719 S    
O14   Ba2   2.778362 S    
P4    O15   1.762290 S    
C28   H42   1.083721 S    
O4    P6    1.545473 D    
Ba1   O13   2.830331 S    
C1    H23   1.110581 S    
C12   H25   1.109702 S    
P5    O18   1.546798 D    
C10   H22   1.110694 S    
P8    C24   1.833434 S    
C35   C36   1.405850 A    
C6    H12   1.105009 S    
P8    O24   1.748116 S    
P2    O20   1.544421 S    
C18   C19   1.505960 S    
C28   C29   1.356832 D    
C23   C27   1.408367 A    
C14   H33   1.110604 S    
O3    Ba1   2.778886 S    
C31   C36   1.394778 A    
C39   C44   1.396734 A    
P7    O22   1.755368 S    
C26   C27   1.414568 A    
P3    O9    1.545698 D    
P4    Ba2   3.379838 S    
C5    H9    1.107736 S    
O11   C2    1.401868 S    
C3    H6    1.109465 S    
C42   C43   1.212432 T    
C7    H14   1.108255 S    
P5    O17   1.752915 S    
C40   C41   1.410698 A    
O6    P6    1.750972 S    
P7    C38   1.834277 S    
O16   Ba2   2.895305 S    
C12   H26   1.109138 S    
O12   Ba2   2.850832 S    
