data_mof_unit_23581.cif
_audit_creation_date              2012-12-11T14:49:46-0500
_audit_creation_method            fapswitch 2.2
_symmetry_space_group_name_H-M    P1
_symmetry_Int_Tables_number       1
_space_group_crystal_system       triclinic
_cell_length_a                    17.185256
_cell_length_b                    7.282675
_cell_length_c                    16.492626
_cell_angle_alpha                 89.792058
_cell_angle_beta                  100.085345
_cell_angle_gamma                 89.210376
_cell_volume                      2032.00239827

loop_
_atom_site_label
_atom_site_type_symbol
_atom_type_description
_atom_site_fract_x
_atom_site_fract_y
_atom_site_fract_z
_atom_type_partial_charge
O1    O     O_R   0.579510 0.506290 0.439030 -0.551886
O2    O     O_R   0.420490 0.006290 0.560970 -0.548331
O3    O     O_R   0.412540 0.170090 0.405290 -0.533542
O4    O     O_R   0.587460 0.670090 0.594710 -0.530940
C1    C     C_R   0.392302 0.346595 0.377281 0.714859
C2    C     C_R   0.609785 0.844925 0.621758 0.700584
O5    O     O_R   0.578390 0.176230 0.429330 -0.523501
O6    O     O_R   0.421610 0.676230 0.570670 -0.522293
O7    O     O_R   0.587530 0.011250 0.585190 -0.548213
O8    O     O_R   0.412470 0.511250 0.414810 -0.543698
C3    C     C_R   0.603401 0.342968 0.413206 0.708291
C4    C     C_R   0.396584 0.844402 0.586614 0.710627
O9    O     O_3   0.502800 0.340940 0.551110 -0.385694
O10   O     O_3   0.497200 0.840940 0.448890 -0.388321
V1    V     V_3+5 0.499480 0.064020 0.490520 1.389141
V2    V     V_3+5 0.500520 0.564020 0.509480 1.388986
C5    C     C_R   0.170326 0.920809 0.866834 -0.076270
C6    C     C_R   0.829679 0.428166 0.133626 -0.085430
C7    C     C_R   0.334980 0.845653 0.639494 -0.041743
C8    C     C_R   0.663358 0.339506 0.358126 -0.037377
C9    C     C_R   0.221700 0.697672 0.680690 -0.186936
C10   C     C_R   0.762499 0.164574 0.300538 -0.195186
C11   C     C_R   0.277132 0.709568 0.628515 -0.165717
C12   C     C_R   0.711519 0.181988 0.357146 -0.153691
C13   C     C_R   0.337652 0.968202 0.705432 -0.204437
C14   C     C_R   0.668195 0.481578 0.301434 -0.209914
C15   C     C_R   0.283682 0.953851 0.761196 0.127943
C16   C     C_R   0.719753 0.466094 0.243152 0.136944
C17   C     C_R   0.224725 0.817001 0.747575 0.124619
C18   C     C_R   0.767020 0.304247 0.243179 0.135971
C19   C     C_R   0.169674 0.799655 0.801007 -0.257019
C20   C     C_R   0.819406 0.284311 0.186983 -0.241888
C21   C     C_R   0.229586 0.053589 0.881494 -0.167038
C22   C     C_R   0.781439 0.586376 0.131981 -0.157940
C23   C     C_R   0.287200 0.069735 0.830814 0.125597
C24   C     C_R   0.725746 0.606443 0.184637 0.110944
H1    H     H_    0.124630 0.695885 0.789491 0.126659
H2    H     H_    0.854467 0.159554 0.187177 0.127448
H3    H     H_    0.230810 0.146016 0.933103 0.118386
H4    H     H_    0.787043 0.695796 0.088724 0.137809
H5    H     H_    0.177575 0.591460 0.669936 0.120554
H6    H     H_    0.798458 0.040831 0.301564 0.111943
H7    H     H_    0.275501 0.610166 0.579701 0.113914
H8    H     H_    0.709290 0.070005 0.400065 0.119318
H9    H     H_    0.383534 0.069587 0.713806 0.120852
H10   H     H_    0.630087 0.600467 0.302209 0.120854
C25   C     C_3   0.767296 0.743792 0.825801 -0.418733
C26   C     C_3   0.239163 0.250566 0.172732 -0.487721
H11   H     H_    0.803403 0.619315 0.828142 0.147292
H12   H     H_    0.205592 0.132196 0.170784 0.165133
H13   H     H_    0.756247 0.758342 0.890006 0.203528
H14   H     H_    0.249659 0.257676 0.108140 0.161933
C27   C     C_3   0.687165 0.718675 0.766325 0.320518
C28   C     C_3   0.317718 0.217847 0.234587 0.331356
H15   H     H_    0.683743 0.593074 0.734408 0.100313
H16   H     H_    0.313940 0.083119 0.265136 0.064174
H17   H     H_    0.756174 0.756064 0.613061 0.129051
H18   H     H_    0.246919 0.187843 0.360996 0.123418
C29   C     C_3   0.842657 0.882987 0.717094 0.317639
C30   C     C_3   0.167709 0.393562 0.286368 0.293761
C31   C     C_3   0.752075 0.080451 0.802099 -0.012588
C32   C     C_3   0.249167 0.575980 0.187384 -0.029872
C33   C     C_3   0.816212 0.913315 0.805767 -0.039588
C34   C     C_3   0.187518 0.419547 0.192375 -0.043904
H19   H     H_    0.737815 0.079765 0.865477 0.132898
H20   H     H_    0.276030 0.542409 0.132303 0.142327
C35   C     C_3   0.679048 0.865428 0.695835 -0.130549
C36   C     C_3   0.323393 0.367101 0.303857 -0.088070
C37   C     C_3   0.758530 0.873932 0.655781 -0.468162
C38   C     C_3   0.248197 0.335064 0.342944 -0.455176
C39   C     C_3   0.673028 0.048649 0.739988 -0.000923
C40   C     C_3   0.319375 0.566127 0.262559 -0.034774
H21   H     H_    0.668392 0.139008 0.688461 0.203727
H22   H     H_    0.306458 0.667785 0.308663 0.150375
H23   H     H_    0.753111 0.993522 0.613129 0.147526
H24   H     H_    0.257263 0.405395 0.403327 0.166169
O11   O     O_R   0.087500 0.266000 0.085220 -0.543721
O12   O     O_R   0.912500 0.766000 0.914780 -0.538369
O13   O     O_R   0.921600 0.589950 0.070670 -0.542842
O14   O     O_R   0.078400 0.089950 0.929330 -0.534487
C41   C     C_R   0.894065 0.424209 0.083765 0.702349
C42   C     C_R   0.106097 0.922434 0.916607 0.675072
O15   O     O_R   0.087460 0.596020 0.094710 -0.531007
O16   O     O_R   0.912540 0.096020 0.905290 -0.543838
O17   O     O_R   0.079520 0.760970 0.939020 -0.536419
O18   O     O_R   0.920480 0.260970 0.060980 -0.528360
C43   C     C_R   0.114101 0.427627 0.120159 0.689467
C44   C     C_R   0.886608 0.927889 0.879655 0.679988
O19   O     O_3   0.997180 0.425140 0.948910 -0.377091
O20   O     O_3   0.002820 0.925140 0.051090 -0.381116
V3    V     V_3+5 0.000520 0.702080 0.009480 1.352888
V4    V     V_3+5 0.999480 0.202080 0.990520 1.364408
C45   C     C_3   0.893731 0.708893 0.695744 -0.314968
C46   C     C_3   0.949005 0.606876 0.764198 -0.683661
H25   H     H_    0.988845 0.701295 0.802492 0.231703
H26   H     H_    0.916539 0.526036 0.803070 0.230930
H27   H     H_    0.986555 0.508678 0.736332 0.181960
H28   H     H_    0.863761 0.612174 0.650254 0.136128
H29   H     H_    0.931107 0.748324 0.650556 0.177608
C47   C     C_3   0.103973 0.239826 0.287055 -0.353936
C48   C     C_3   0.016687 0.298298 0.276717 -0.758581
H30   H     H_    0.000959 0.394763 0.224233 0.206581
H31   H     H_    0.979800 0.174300 0.264563 0.207841
H32   H     H_    0.002127 0.361390 0.333333 0.236954
H33   H     H_    0.104170 0.153891 0.234323 0.185575
H34   H     H_    0.117340 0.150998 0.342811 0.175600
C49   C     C_3   0.776100 0.279499 0.789171 -0.355198
C50   C     C_3   0.767528 0.355469 0.699128 -0.838826
H35   H     H_    0.796082 0.286105 0.653488 0.216821
H36   H     H_    0.707452 0.381353 0.664302 0.200132
H37   H     H_    0.789685 0.489910 0.707604 0.232885
H38   H     H_    0.736402 0.363263 0.820085 0.229339
H39   H     H_    0.834884 0.308398 0.824352 0.184181
C51   C     C_3   0.221186 0.771162 0.160772 -0.343283
C52   C     C_3   0.154846 0.849303 0.199772 -0.760277
H40   H     H_    0.108802 0.757404 0.208166 0.233674
H41   H     H_    0.179758 0.915562 0.258820 0.180527
H42   H     H_    0.119652 0.941784 0.154207 0.239977
H43   H     H_    0.272282 0.862504 0.173464 0.218820
H44   H     H_    0.203063 0.778160 0.092503 0.190690
C53   C     C_3   0.596051 0.098930 0.774847 -0.364981
C54   C     C_3   0.546074 0.256586 0.731255 -0.609331
H45   H     H_    0.582641 0.364863 0.710359 0.261624
H46   H     H_    0.504619 0.201532 0.678622 0.218109
H47   H     H_    0.508938 0.317145 0.773254 0.258346
H48   H     H_    0.610412 0.135508 0.840893 0.259160
H49   H     H_    0.554254 0.986289 0.767768 0.250162
C55   C     C_3   0.398594 0.620397 0.233434 -0.371729
C56   C     C_3   0.447388 0.765452 0.282849 -0.584107
H50   H     H_    0.410454 0.863831 0.310932 0.242383
H51   H     H_    0.492458 0.694799 0.328396 0.222848
H52   H     H_    0.482440 0.839534 0.243366 0.262255
H53   H     H_    0.439526 0.503231 0.237092 0.262076
H54   H     H_    0.388321 0.668195 0.168469 0.248936
C57   C     C_3   0.896738 0.048562 0.697454 -0.386571
C58   C     C_3   0.987428 0.037371 0.722888 -0.773778
H55   H     H_    0.002954 0.998547 0.788026 0.228652
H56   H     H_    0.017438 0.945386 0.684419 0.223639
H57   H     H_    0.012761 0.175167 0.716327 0.210484
H58   H     H_    0.884503 0.080965 0.630478 0.171494
H59   H     H_    0.887665 0.167366 0.733415 0.233466
C59   C     C_3   0.137672 0.564898 0.331655 -0.276937
C60   C     C_3   0.126206 0.534835 0.421847 -0.801378
H60   H     H_    0.073787 0.614260 0.433960 0.214695
H61   H     H_    0.118113 0.388799 0.436977 0.239670
H62   H     H_    0.177717 0.586527 0.465254 0.204944
H63   H     H_    0.180880 0.675871 0.335167 0.174342
H64   H     H_    0.078861 0.612302 0.299999 0.174321
C61   C     C_3   0.351626 0.209640 0.853920 -0.364180
C62   C     C_3   0.332870 0.386913 0.804494 -0.715211
H65   H     H_    0.326857 0.360942 0.737449 0.224964
H66   H     H_    0.276902 0.448376 0.817509 0.228556
H67   H     H_    0.381124 0.486422 0.822565 0.259513
H68   H     H_    0.357893 0.243863 0.920185 0.194432
H69   H     H_    0.409991 0.152250 0.846037 0.191723
C63   C     C_3   0.674110 0.778374 0.175781 -0.401591
C64   C     C_3   0.591643 0.738428 0.128240 -0.614446
H70   H     H_    0.595714 0.686167 0.065922 0.255362
H71   H     H_    0.561749 0.634493 0.160894 0.232795
H72   H     H_    0.555343 0.866687 0.121423 0.256857
H73   H     H_    0.670458 0.837874 0.236844 0.184173
H74   H     H_    0.700233 0.886979 0.141738 0.198666
S1    S     S_3+6 0.609418 0.676885 0.826412 -0.108380
O21   O     O_2   0.529935 0.672925 0.771103 -0.390700
O22   O     O_2   0.624348 0.494091 0.868969 -0.356334
O23   O     O_3   0.609067 0.832527 0.901456 -0.533467
H75   H     H_    0.556995 0.819878 0.918689 0.363886
S2    S     S_3+6 0.399020 0.186782 0.178342 -0.095142
O24   O     O_2   0.476533 0.181554 0.237026 -0.358338
O25   O     O_2   0.389418 0.008205 0.132779 -0.381999
O26   O     O_3   0.401564 0.352503 0.107436 -0.516496
H76   H     H_    0.364116 0.314368 0.058070 0.330130

loop_
_geom_bond_atom_site_label_1
_geom_bond_atom_site_label_2
_ccdc_geom_bond_type
C60   H62   S    
O15   C43   A    
O26   H76   S    
O11   V4    S    
O4    V2    S    
C64   H70   S    
C33   C44   S    
C15   C17   A    
C49   H38   S    
C23   C61   S    
S1    O21   D    
O1    C3    A    
O2    C4    A    
C55   C56   S    
C2    O7    A    
C51   C52   S    
O17   V3    S    
C57   C58   S    
C25   H11   S    
O5    C3    A    
C47   H33   S    
C48   H30   S    
C40   C55   S    
C22   H4    S    
C63   C64   S    
S1    O22   D    
C53   H49   S    
C26   H14   S    
C1    C36   S    
C25   C33   S    
C29   C45   S    
C26   C34   S    
C28   C36   S    
C52   H40   S    
C6    C41   S    
C11   H7    S    
C50   H35   S    
C5    C42   S    
O1    V2    S    
C29   C57   S    
C31   C33   S    
C49   H39   S    
C32   C34   S    
C30   C59   S    
S2    O26   S    
C8    C12   A    
C52   H41   S    
C62   H67   S    
C49   C50   S    
C20   H2    S    
O19   V3    S    
C45   H29   S    
C34   C43   S    
O13   V3    S    
C51   H43   S    
C36   C40   S    
C25   C27   S    
C56   H52   S    
C31   C39   S    
C26   H12   S    
C63   H74   S    
C64   H71   S    
C5    C21   A    
C58   H57   S    
C27   C35   S    
C1    O8    A    
C27   H15   S    
C57   H58   S    
C28   H16   S    
C3    C8    S    
C32   H20   S    
C59   H64   S    
C26   C28   S    
S1    O23   S    
O14   C42   A    
O13   C41   A    
H18   C38   S    
C25   H13   S    
O5    V1    S    
C46   H27   S    
C15   C23   A    
C9    C17   A    
C30   C47   S    
C19   H1    S    
C35   C37   S    
O14   V4    S    
C7    C11   A    
C61   H68   S    
C62   H66   S    
C55   H54   S    
O20   V4    S    
C30   C38   S    
O6    C4    A    
C52   H42   S    
C41   O18   A    
C32   C40   S    
C45   C46   S    
C21   H3    S    
O19   V4    S    
C46   H26   S    
O2    V1    S    
C6    C22   A    
C16   C24   A    
C53   C54   S    
C29   C37   S    
C9    H5    S    
C40   H22   S    
S2    O24   D    
C63   H73   S    
C48   H32   S    
C9    C11   A    
C38   H24   S    
O23   H75   S    
C12   H8    S    
C10   C12   A    
O4    C2    A    
C6    C20   A    
C54   H46   S    
C13   H9    S    
O3    V1    S    
C24   C63   S    
C58   H56   S    
C39   H21   S    
C56   H50   S    
C48   H31   S    
O12   C44   A    
C60   H61   S    
C2    C35   S    
C10   C18   A    
C59   C60   S    
C29   C33   S    
C59   H63   S    
C39   C53   S    
C27   S1    S    
O16   C44   A    
C28   S2    S    
C58   H55   S    
O3    C1    A    
C32   C51   S    
O12   V3    S    
C64   H72   S    
C42   O17   A    
O15   V3    S    
C14   C16   A    
C62   H65   S    
C50   H37   S    
C30   C34   S    
C54   H47   S    
C16   C18   A    
C61   H69   S    
C53   H48   S    
C17   C19   A    
O8    V2    S    
C61   C62   S    
C18   C20   A    
O20   V3    S    
C10   H6    S    
C8    C14   A    
C5    C19   A    
C4    C7    S    
S2    O25   D    
C47   C48   S    
C21   C23   A    
C22   C24   A    
C50   H36   S    
C37   H23   S    
C35   C39   S    
O7    V1    S    
C46   H25   S    
C31   C49   S    
C14   H10   S    
C7    C13   A    
C47   H34   S    
C31   H19   S    
C57   H59   S    
O11   C43   A    
O6    V2    S    
O9    V2    S    
C36   C38   S    
O10   V1    S    
O18   V4    S    
O16   V4    S    
H17   C37   S    
C54   H45   S    
C55   H53   S    
C45   H28   S    
C51   H44   S    
C60   H60   S    
C56   H51   S    
C13   C15   A    
