data_mof_unit_35291.cif
_audit_creation_date              2012-12-10T19:11:05-0500
_audit_creation_method            fapswitch 2.2
_symmetry_space_group_name_H-M    P1
_symmetry_Int_Tables_number       1
_space_group_crystal_system       triclinic
_cell_length_a                    10.845725
_cell_length_b                    9.092949
_cell_length_c                    7.792184
_cell_angle_alpha                 90.383387
_cell_angle_beta                  89.992728
_cell_angle_gamma                 89.782471
_cell_volume                      768.439507709

loop_
_atom_site_label
_atom_site_type_symbol
_atom_type_description
_atom_site_fract_x
_atom_site_fract_y
_atom_site_fract_z
_atom_type_partial_charge
C1    C     C_R   0.499084 0.220070 0.499675 0.899531
C2    C     C_R   0.260406 0.515405 0.498245 0.849939
C3    C     C_R   0.740436 0.507420 0.498047 0.866085
C4    C     C_R   0.499649 0.779946 0.500329 0.855261
C5    C     C_1   0.498853 0.065357 0.499559 -0.096927
C6    C     C_3   0.070921 0.601396 0.654902 -0.094721
C7    C     C_3   0.074876 0.359349 0.499082 -0.080177
C8    C     C_3   0.927580 0.610724 0.643078 -0.097218
C9    C     C_3   0.931992 0.356808 0.518897 -0.073606
C10   C     C_1   0.499093 0.934608 0.500454 -0.099846
C11   C     C_3   0.071975 0.609419 0.321279 0.282303
C12   C     C_3   0.926573 0.575717 0.304487 0.318910
C13   C     C_3   0.123066 0.522919 0.489015 -0.076286
C14   C     C_3   0.878087 0.515232 0.487879 -0.088122
Cu1   Cu    Cu3+1 0.500000 0.500010 0.669080 1.046415
Cu2   Cu    Cu3+1 0.500000 0.500010 0.330920 1.018030
H1    H     H_    0.091598 0.527187 0.764270 0.134209
H2    H     H_    0.111747 0.312323 0.620580 0.153247
H3    H     H_    0.893438 0.556919 0.760758 0.140724
H4    H     H_    0.913148 0.328880 0.655471 0.144755
N1    N     N_1   0.500000 0.499970 0.076820 -0.050868
N2    N     N_1   0.500000 0.499970 0.923180 -0.034541
O1    O     O_R   0.500000 0.288400 0.642760 -0.570527
O2    O     O_R   0.500000 0.288400 0.357240 -0.556445
O3    O     O_R   0.317700 0.499990 0.642790 -0.578049
O4    O     O_R   0.317700 0.499990 0.357210 -0.579678
O5    O     O_R   0.682300 0.499990 0.642790 -0.581585
O6    O     O_R   0.682300 0.499990 0.357210 -0.595983
O7    O     O_R   0.500000 0.711620 0.642810 -0.553750
O8    O     O_R   0.500000 0.711620 0.357190 -0.595645
I1    I     I_    0.168135 0.796205 0.752079 -0.361984
I2    I     I_    0.158650 0.198117 0.326443 -0.348111
I3    I     I_    0.839469 0.820764 0.694601 -0.340080
I4    I     I_    0.834982 0.170554 0.405395 -0.338369
C15   C     C_3   0.099043 0.777705 0.341633 -0.714412
H5    H     H_    0.040356 0.831768 0.438771 0.286470
H6    H     H_    0.197357 0.796010 0.375169 0.231570
H7    H     H_    0.083592 0.839133 0.220637 0.258943
C16   C     C_3   0.139816 0.573283 0.147944 -0.729156
H8    H     H_    0.087625 0.621256 0.040609 0.225635
H9    H     H_    0.230912 0.627725 0.135645 0.262469
H10   H     H_    0.152359 0.454795 0.122562 0.251920
C17   C     C_3   0.854280 0.714912 0.240605 -0.748072
H11   H     H_    0.847869 0.803053 0.337389 0.254306
H12   H     H_    0.899214 0.760991 0.124948 0.248728
H13   H     H_    0.759193 0.691229 0.197469 0.257678
C18   C     C_3   0.902492 0.457954 0.158714 -0.730542
H14   H     H_    0.916950 0.504266 0.030197 0.197504
H15   H     H_    0.963699 0.361757 0.168392 0.263557
H16   H     H_    0.807878 0.415328 0.150870 0.266512

loop_
_geom_bond_atom_site_label_1
_geom_bond_atom_site_label_2
_ccdc_geom_bond_type
C2    O4    A    
Cu2   O6    S    
C4    O7    A    
C6    C8    S    
C9    C14   S    
Cu1   O7    S    
Cu2   N1    S    
C2    O3    A    
C17   H12   S    
C9    H4    S    
Cu1   O5    S    
C15   H5    S    
C18   H16   S    
C11   C12   S    
C7    H2    S    
C3    O5    A    
C6    I1    S    
C5    C10   T    
Cu2   O2    S    
N1    N2    T    
C6    C13   S    
C11   C16   S    
C11   C13   S    
C3    C14   S    
C12   C18   S    
C1    C5    S    
Cu1   O1    S    
C3    O6    A    
C15   H6    S    
C12   C14   S    
C1    O1    A    
C12   C17   S    
C8    I3    S    
C17   H11   S    
Cu2   O4    S    
C9    I4    S    
C17   H13   S    
Cu1   O3    S    
C8    H3    S    
C4    C10   S    
Cu1   Cu2   S    
C6    H1    S    
C7    C13   S    
C15   H7    S    
C16   H9    S    
C1    O2    A    
C18   H15   S    
C16   H8    S    
C7    C9    S    
C2    C13   S    
C16   H10   S    
C8    C14   S    
C7    I2    S    
Cu2   O8    S    
C11   C15   S    
Cu1   N2    S    
C4    O8    A    
C18   H14   S    
