data_mof_unit_35689.cif
_audit_creation_date              2012-12-10T20:25:44-0500
_audit_creation_method            fapswitch 2.2
_symmetry_space_group_name_H-M    P1
_symmetry_Int_Tables_number       1
_space_group_crystal_system       triclinic
_cell_length_a                    8.585464
_cell_length_b                    10.693192
_cell_length_c                    9.894888
_cell_angle_alpha                 89.158519
_cell_angle_beta                  98.286181
_cell_angle_gamma                 90.635685
_cell_volume                      898.793008833

loop_
_atom_site_label
_atom_site_type_symbol
_atom_type_description
_atom_site_fract_x
_atom_site_fract_y
_atom_site_fract_z
_atom_type_partial_charge
C1    C     C_R   0.505761 0.259804 0.501241 0.865360
C2    C     C_R   0.370998 0.458916 0.913806 0.205011
C3    C     C_3   0.295759 0.332858 0.901172 -0.507546
C4    C     C_R   0.201443 0.498713 0.464462 0.957859
C5    C     C_3   0.297781 0.331251 0.055104 -0.481747
C6    C     C_R   0.506749 0.739892 0.499907 0.893626
C7    C     C_R   0.798627 0.499627 0.535654 0.981722
C8    C     C_2   0.036519 0.495080 0.445553 -0.337113
C9    C     C_2   0.963687 0.499915 0.554971 -0.393944
C10   C     C_R   0.554570 0.061371 0.626688 0.138132
C11   C     C_R   0.533985 0.128375 0.503773 -0.102780
C12   C     C_R   0.548945 0.937224 0.380654 -0.181833
C13   C     C_R   0.548049 0.066585 0.381641 -0.226817
C14   C     C_R   0.536184 0.871024 0.501871 -0.108945
C15   C     C_R   0.555654 0.933574 0.625553 0.131633
C16   C     C_3   0.465751 0.921432 0.743468 -0.451527
C17   C     C_3   0.463829 0.062801 0.744516 -0.504615
C18   C     C_R   0.371981 0.457483 0.055935 0.165883
C19   C     C_R   0.613767 0.562102 0.083863 0.395185
C20   C     C_R   0.615383 0.559274 0.940571 -0.193460
Cl1   Cl    Cl    0.756076 0.655309 0.180856 -0.647699
H1    H     H_    0.975554 0.488211 0.341731 0.216782
H2    H     H_    0.346938 0.878807 0.715264 0.210876
H3    H     H_    0.537583 0.879622 0.835172 0.216730
H4    H     H_    0.343592 0.101351 0.716101 0.206634
H5    H     H_    0.534955 0.101748 0.837420 0.206308
H6    H     H_    0.709037 0.605917 0.896541 0.183871
H7    H     H_    0.175249 0.335443 0.842474 0.203570
H8    H     H_    0.375094 0.263602 0.867189 0.213192
H9    H     H_    0.178217 0.333826 0.085573 0.210707
H10   H     H_    0.377537 0.259628 0.109160 0.208033
H11   H     H_    0.024870 0.505535 0.658985 0.177447
H12   H     H_    0.546028 0.116689 0.285502 0.171054
H13   H     H_    0.546772 0.890292 0.284105 0.201973
N1    N     N_R   0.498950 0.499140 0.142680 -0.142753
N2    N     N_R   0.498950 0.499180 0.857030 -0.131784
O1    O     O_R   0.500020 0.316790 0.614690 -0.618173
O2    O     O_R   0.500000 0.316760 0.385350 -0.632977
O3    O     O_R   0.271760 0.500010 0.587850 -0.614675
O4    O     O_R   0.271740 0.499970 0.358500 -0.614991
O5    O     O_R   0.500000 0.683240 0.614650 -0.625442
O6    O     O_R   0.499980 0.683210 0.385310 -0.583818
O7    O     O_R   0.728260 0.500030 0.641500 -0.636144
O8    O     O_R   0.728240 0.499990 0.412150 -0.563125
Zn1   Zn    Zn3+2 0.500010 0.500020 0.653130 0.945272
Zn2   Zn    Zn3+2 0.499990 0.499980 0.346870 0.995046

loop_
_geom_bond_atom_site_label_1
_geom_bond_atom_site_label_2
_ccdc_geom_bond_type
C8    H1    S    
C13   H12   S    
C20   H6    S    
C7    O7    A    
C2    C18   A    
C11   C13   A    
C18   N1    A    
C19   C20   A    
C1    C11   S    
C4    O3    A    
C1    O1    A    
O3    Zn1   S    
C17   H4    S    
C2    C3    S    
N2    Zn1   S    
C16   H3    S    
C19   N1    A    
C7    O8    A    
O4    Zn2   S    
O7    Zn1   S    
C1    O2    A    
C17   H5    S    
C3    H7    S    
C19   Cl1   S    
C12   C14   A    
C16   H2    S    
C10   C15   A    
C6    O6    A    
O2    Zn2   S    
C6    C14   S    
C10   C11   A    
C10   C17   S    
O1    Zn1   S    
C15   C16   S    
C20   N2    A    
C12   C13   A    
C7    C9    S    
C5    H9    S    
O6    Zn2   S    
C2    N2    A    
C4    C8    S    
C3    H8    S    
O5    Zn1   S    
C14   C15   A    
C8    C9    D    
C5    C18   S    
C9    H11   S    
C5    H10   S    
N1    Zn2   S    
C12   H13   S    
C4    O4    A    
O8    Zn2   S    
C16   C17   S    
C3    C5    S    
C6    O5    A    
