data_mof_unit_34630.cif
_audit_creation_date              2012-12-10T18:46:20-0500
_audit_creation_method            fapswitch 2.2
_symmetry_space_group_name_H-M    P1
_symmetry_Int_Tables_number       1
_space_group_crystal_system       triclinic
_cell_length_a                    9.834937
_cell_length_b                    10.701305
_cell_length_c                    13.186335
_cell_angle_alpha                 90.193865
_cell_angle_beta                  71.079568
_cell_angle_gamma                 90.13526
_cell_volume                      1312.82495065

loop_
_atom_site_label
_atom_site_type_symbol
_atom_type_description
_atom_site_fract_x
_atom_site_fract_y
_atom_site_fract_z
_atom_type_partial_charge
C1    C     C_R   0.500170 0.740118 0.499883 0.873844
C2    C     C_R   0.374641 0.481477 0.819689 -0.135443
C3    C     C_R   0.631369 0.936174 0.467531 -0.205557
C4    C     C_R   0.421723 0.492428 0.703419 0.865289
C5    C     C_R   0.631312 0.064225 0.467543 -0.214822
C6    C     C_R   0.500088 0.127496 0.498840 -0.001167
C7    C     C_R   0.368966 0.063862 0.529647 -0.208166
C8    C     C_R   0.369042 0.935839 0.530031 -0.203728
C9    C     C_R   0.500270 0.872542 0.499284 -0.003235
C10   C     C_R   0.951626 0.410415 0.445610 -0.219757
C11   C     C_R   0.095088 0.410318 0.446029 -0.042919
C12   C     C_R   0.439041 0.456905 0.981666 0.149850
C13   C     C_R   0.048300 0.588327 0.556246 -0.208885
C14   C     C_R   0.902875 0.590023 0.555838 0.621247
C15   C     C_R   0.500008 0.259884 0.499584 0.835156
C16   C     C_R   0.578561 0.487239 0.296611 0.936460
C17   C     C_R   0.795953 0.386723 0.010493 0.527915
C18   C     C_R   0.623517 0.449462 0.182743 -0.275609
C19   C     C_R   0.245484 0.539045 0.879111 -0.117049
C20   C     C_R   0.215054 0.559888 0.987944 -0.189674
C21   C     C_R   0.311758 0.522150 0.038659 -0.153022
C22   C     C_3   0.890570 0.434881 0.163618 -0.802847
C23   C     C_R   0.468742 0.433099 0.871622 0.083230
C24   C     C_3   0.858527 0.795314 0.615046 -0.372784
C25   C     C_3   0.953984 0.226498 0.958247 -0.363290
C26   C     C_3   0.370494 0.258528 0.204561 -0.315790
C27   C     C_R   0.544648 0.426165 0.028886 -0.114307
C28   C     C_R   0.684269 0.390904 0.965109 -0.059233
C29   C     C_R   0.706540 0.355295 0.859018 -0.160940
C30   C     C_R   0.595960 0.367279 0.815670 -0.203235
C31   C     C_R   0.513267 0.426154 0.139127 0.411465
C32   C     C_R   0.768330 0.426496 0.118031 -0.001396
H1    H     H_    0.733238 0.113384 0.442387 0.145702
H2    H     H_    0.119420 0.611259 0.032162 0.150990
H3    H     H_    0.614501 0.329051 0.736372 0.166779
H4    H     H_    0.733258 0.887272 0.442009 0.155369
H5    H     H_    0.899580 0.531604 0.191453 0.238967
H6    H     H_    0.871998 0.368055 0.230884 0.229362
H7    H     H_    0.995669 0.410185 0.104547 0.271053
H8    H     H_    0.767948 0.862584 0.638909 0.207648
H9    H     H_    0.929229 0.822394 0.533413 0.138909
H10   H     H_    0.916244 0.804251 0.674476 0.160026
H11   H     H_    0.878041 0.169698 0.930265 0.153896
H12   H     H_    0.266991 0.112709 0.554539 0.152217
H13   H     H_    0.942836 0.201841 0.042492 0.169553
H14   H     H_    0.064676 0.201490 0.907699 0.200968
H15   H     H_    0.258109 0.228915 0.245817 0.166881
H16   H     H_    0.439052 0.219262 0.249220 0.162366
H17   H     H_    0.401578 0.218098 0.122253 0.160129
H18   H     H_    0.267063 0.886738 0.555225 0.144947
H19   H     H_    0.915859 0.338038 0.402694 0.145551
H20   H     H_    0.167513 0.337531 0.404496 0.163140
H21   H     H_    0.085665 0.655616 0.602519 0.138867
H22   H     H_    0.808248 0.316860 0.809512 0.178848
H23   H     H_    0.172964 0.576297 0.840036 0.164899
H24   H     H_    0.288677 0.551017 0.121092 0.189205
N1    N     N_R   0.142790 0.500030 0.500030 -0.094530
N2    N     N_R   0.857180 0.499940 0.500010 -0.117960
O1    O     O_R   0.385370 0.683250 0.500010 -0.634591
O2    O     O_3   0.933902 0.355574 0.947033 -0.603985
O3    O     O_3   0.377067 0.390444 0.203512 -0.595239
O4    O     O_R   0.614700 0.683220 0.500010 -0.573786
O5    O     O_R   0.328400 0.499990 0.653620 -0.614607
O6    O     O_R   0.557730 0.499960 0.653620 -0.571598
O7    O     O_R   0.385300 0.316780 0.499990 -0.628841
O8    O     O_R   0.614630 0.316750 0.499990 -0.643615
O9    O     O_R   0.442270 0.500040 0.346380 -0.551519
O10   O     O_R   0.671600 0.500010 0.346380 -0.626429
O11   O     O_3   0.801460 0.673776 0.617396 -0.566111
Zn1   Zn    Zn3+2 0.346870 0.500020 0.500000 0.963008
Zn2   Zn    Zn3+2 0.653130 0.499980 0.500000 0.971927

loop_
_geom_bond_atom_site_label_1
_geom_bond_atom_site_label_2
_ccdc_geom_bond_type
C24   O11   S    
C21   H24   S    
C2    C4    S    
C6    C7    A    
C16   O10   A    
C25   O2    S    
C8    H18   S    
N1    Zn1   S    
C24   H10   S    
C4    O6    A    
C19   C20   A    
C12   C23   A    
O5    Zn1   S    
C26   H16   S    
O9    Zn1   S    
C20   H2    S    
C1    O4    A    
C25   H11   S    
C12   C21   A    
C6    C15   S    
C1    C9    S    
C7    C8    A    
C16   O9    A    
C7    H12   S    
C15   O8    A    
C24   H9    S    
C17   C28   A    
C4    O5    A    
C29   C30   A    
C22   C32   S    
C30   H3    S    
O10   Zn2   S    
C3    C9    A    
C22   H7    S    
C3    H4    S    
O1    Zn1   S    
C28   C29   A    
C24   H8    S    
C26   O3    S    
O4    Zn2   S    
C13   H21   S    
C1    O1    A    
C5    C6    A    
C14   N2    A    
C14   O11   S    
N2    Zn2   S    
C26   H17   S    
C18   C32   A    
C10   C11   A    
C10   H19   S    
C17   O2    S    
C27   C31   A    
O7    Zn1   S    
C15   O7    A    
C23   C30   A    
C25   H13   S    
C27   C28   A    
C13   N1    A    
C20   C21   A    
C16   C18   S    
C29   H22   S    
O6    Zn2   S    
C19   H23   S    
C2    C23   A    
C17   C32   A    
C31   O3    S    
C8    C9    A    
C11   H20   S    
C12   C27   A    
C26   H15   S    
C10   N2    A    
C2    C19   A    
C11   N1    A    
C22   H5    S    
C25   H14   S    
O8    Zn2   S    
C18   C31   A    
C13   C14   A    
C3    C5    A    
C22   H6    S    
C5    H1    S    
