data_mof_unit_20294.cif
_audit_creation_date              2013-03-05T15:50:18-0500
_audit_creation_method            fapswitch 2.2
_symmetry_space_group_name_H-M    P1
_symmetry_Int_Tables_number       1
_space_group_crystal_system       triclinic
_cell_length_a                    18.305526
_cell_length_b                    25.88603
_cell_length_c                    18.286125
_cell_angle_alpha                 90.00008
_cell_angle_beta                  90.128911
_cell_angle_gamma                 89.98833
_cell_volume                      8664.99344932

loop_
_atom_site_label
_atom_site_type_symbol
_atom_site_description
_atom_site_fract_x
_atom_site_fract_y
_atom_site_fract_z
_atom_type_partial_charge
Zn1   Zn    Zn3+2 0.249990 0.293780 0.913250 0.960802
Zn2   Zn    Zn3+2 0.249990 0.706220 0.086750 0.954770
Zn3   Zn    Zn3+2 0.249990 0.706220 0.913250 0.961845
Zn4   Zn    Zn3+2 0.249990 0.293780 0.086750 0.953989
Zn5   Zn    Zn3+2 0.749990 0.793780 0.413250 0.962888
Zn6   Zn    Zn3+2 0.749990 0.206220 0.586750 0.952721
Zn7   Zn    Zn3+2 0.749990 0.206220 0.413250 0.961937
Zn8   Zn    Zn3+2 0.749990 0.793780 0.586750 0.953584
Zn9   Zn    Zn3+2 0.336760 0.206240 0.000000 0.968035
Zn10  Zn    Zn3+2 0.336760 0.793760 0.000000 0.972287
Zn11  Zn    Zn3+2 0.836760 0.706240 0.500000 0.972241
Zn12  Zn    Zn3+2 0.836760 0.293760 0.500000 0.968185
Zn13  Zn    Zn3+2 0.163250 0.206230 0.000000 0.961387
Zn14  Zn    Zn3+2 0.163250 0.793770 0.000000 0.961262
Zn15  Zn    Zn3+2 0.663250 0.706230 0.500000 0.961006
Zn16  Zn    Zn3+2 0.663250 0.293770 0.500000 0.961013
O1    O     O_3   0.249990 0.250010 0.000000 -0.488730
O2    O     O_3   0.249990 0.749990 0.000000 -0.490434
O3    O     O_3   0.749990 0.750010 0.500000 -0.490392
O4    O     O_3   0.749990 0.249990 0.500000 -0.488698
O5    O     O_R   0.335430 0.280650 0.146160 -0.642312
O6    O     O_R   0.335430 0.719350 0.853840 -0.636896
O7    O     O_R   0.335430 0.719350 0.146160 -0.644110
O8    O     O_R   0.335430 0.280650 0.853840 -0.639748
O9    O     O_R   0.835430 0.780650 0.646160 -0.644059
O10   O     O_R   0.835430 0.219350 0.353840 -0.639581
O11   O     O_R   0.835430 0.219350 0.646160 -0.642485
O12   O     O_R   0.835430 0.780650 0.353840 -0.636755
O13   O     O_R   0.164550 0.280640 0.853840 -0.630470
O14   O     O_R   0.164550 0.719360 0.146160 -0.637057
O15   O     O_R   0.164550 0.719360 0.853840 -0.629513
O16   O     O_R   0.164550 0.280640 0.146160 -0.640231
O17   O     O_R   0.664550 0.780640 0.353840 -0.629605
O18   O     O_R   0.664550 0.219360 0.646160 -0.640327
O19   O     O_R   0.664550 0.219360 0.353840 -0.630405
O20   O     O_R   0.664550 0.780640 0.646160 -0.637100
O21   O     O_R   0.396160 0.219380 0.914560 -0.634871
O22   O     O_R   0.396160 0.780620 0.085440 -0.626524
O23   O     O_R   0.396160 0.780620 0.914560 -0.632793
O24   O     O_R   0.396160 0.219380 0.085440 -0.629923
O25   O     O_R   0.896160 0.719380 0.414560 -0.632703
O26   O     O_R   0.896160 0.280620 0.585440 -0.629732
O27   O     O_R   0.896160 0.280620 0.414560 -0.634822
O28   O     O_R   0.896160 0.719380 0.585440 -0.626516
O29   O     O_R   0.103840 0.219370 0.085450 -0.635625
O30   O     O_R   0.103840 0.780630 0.914550 -0.643043
O31   O     O_R   0.103840 0.780630 0.085450 -0.632552
O32   O     O_R   0.103840 0.219370 0.914550 -0.641837
O33   O     O_R   0.603840 0.719370 0.585450 -0.632594
O34   O     O_R   0.603840 0.280630 0.414550 -0.642088
O35   O     O_R   0.603840 0.280630 0.585450 -0.635636
O36   O     O_R   0.603840 0.719370 0.414550 -0.643152
O37   O     O_R   0.310730 0.133160 0.000000 -0.638602
O38   O     O_R   0.310730 0.866840 0.000000 -0.633192
O39   O     O_R   0.810730 0.633160 0.500000 -0.633592
O40   O     O_R   0.810730 0.366840 0.500000 -0.638381
O41   O     O_R   0.249970 0.366860 0.060720 -0.643146
O42   O     O_R   0.249970 0.633140 0.939280 -0.643380
O43   O     O_R   0.249970 0.633140 0.060720 -0.643801
O44   O     O_R   0.249970 0.366860 0.939280 -0.643247
O45   O     O_R   0.749970 0.866860 0.560720 -0.646810
O46   O     O_R   0.749970 0.133140 0.439280 -0.639991
O47   O     O_R   0.749970 0.133140 0.560720 -0.646162
O48   O     O_R   0.749970 0.866860 0.439280 -0.640126
O49   O     O_R   0.189290 0.133150 0.000000 -0.638122
O50   O     O_R   0.189290 0.866850 0.000000 -0.640629
O51   O     O_R   0.689290 0.633150 0.500000 -0.640633
O52   O     O_R   0.689290 0.366850 0.500000 -0.638682
C1    C     C_R   0.389768 0.250110 0.139796 0.785534
C2    C     C_R   0.389812 0.749947 0.860207 0.784374
C3    C     C_R   0.389740 0.749987 0.139820 0.783293
C4    C     C_R   0.389762 0.250008 0.860176 0.779953
C5    C     C_R   0.889750 0.750014 0.639812 0.783425
C6    C     C_R   0.889752 0.249993 0.360170 0.779795
C7    C     C_R   0.889766 0.249886 0.639794 0.785550
C8    C     C_R   0.889824 0.750059 0.360215 0.784395
C9    C     C_R   0.110277 0.249951 0.860182 0.784653
C10   C     C_R   0.110181 0.749964 0.139801 0.787639
C11   C     C_R   0.110178 0.749952 0.860239 0.780455
C12   C     C_R   0.110168 0.250017 0.139875 0.782888
C13   C     C_R   0.610175 0.750058 0.360245 0.780092
C14   C     C_R   0.610159 0.249983 0.639869 0.783091
C15   C     C_R   0.610280 0.250060 0.360176 0.784578
C16   C     C_R   0.610188 0.750034 0.639805 0.787682
C17   C     C_R   0.250281 0.109270 0.001195 0.787695
C18   C     C_R   0.249912 0.890618 0.999382 0.785843
C19   C     C_R   0.749939 0.609382 0.499455 0.785777
C20   C     C_R   0.750253 0.390730 0.501124 0.787652
C21   C     C_R   0.249933 0.391401 0.999905 0.744878
C22   C     C_R   0.249937 0.608600 0.999905 0.743962
C23   C     C_R   0.749933 0.891400 0.500090 0.744071
C24   C     C_R   0.749937 0.108599 0.500089 0.745039
C25   C     C_3   0.181114 0.470121 0.039103 -0.389980
C26   C     C_3   0.249740 0.529695 0.920012 -0.370712
C27   C     C_3   0.181117 0.529908 0.039108 -0.389722
C28   C     C_3   0.249738 0.470308 0.920012 -0.370961
C29   C     C_3   0.749792 0.970306 0.579957 -0.376549
C30   C     C_3   0.681095 0.029903 0.460581 -0.380551
C31   C     C_3   0.749794 0.029690 0.579956 -0.376450
C32   C     C_3   0.681090 0.970115 0.460588 -0.379758
H1    H     H_    0.179735 0.455894 0.096517 0.186489
H2    H     H_    0.298742 0.543844 0.890126 0.181923
H3    H     H_    0.179744 0.544134 0.096523 0.186761
H4    H     H_    0.298737 0.456145 0.890125 0.181686
H5    H     H_    0.798813 0.956143 0.610031 0.181325
H6    H     H_    0.679692 0.044127 0.403158 0.196784
H7    H     H_    0.798817 0.043839 0.610030 0.181821
H8    H     H_    0.679679 0.955887 0.403169 0.196547
H9    H     H_    0.130909 0.455727 0.011362 0.161824
H10   H     H_    0.200615 0.543862 0.890108 0.193122
H11   H     H_    0.130908 0.544325 0.011382 0.161950
H12   H     H_    0.200611 0.456156 0.890109 0.193280
H13   H     H_    0.700687 0.956154 0.609671 0.182849
H14   H     H_    0.630897 0.044320 0.488098 0.159054
H15   H     H_    0.700692 0.043858 0.609671 0.182523
H16   H     H_    0.630896 0.955720 0.488121 0.159290
H17   H     H_    0.185923 0.905140 0.876079 0.132972
H18   H     H_    0.188080 0.095855 0.876775 0.134402
H19   H     H_    0.686165 0.404228 0.377478 0.135651
H20   H     H_    0.685238 0.594936 0.376497 0.133449
H21   H     H_    0.320421 0.455876 0.096578 0.186577
H22   H     H_    0.368942 0.544276 0.011453 0.153168
H23   H     H_    0.320433 0.544110 0.096568 0.186148
H24   H     H_    0.368941 0.455684 0.011476 0.153633
H25   H     H_    0.868936 0.955677 0.488960 0.153037
H26   H     H_    0.820371 0.044104 0.403677 0.188582
H27   H     H_    0.868935 0.044270 0.488980 0.153663
H28   H     H_    0.820361 0.955868 0.403670 0.188967
C33   C     C_3   0.318835 0.470100 0.039161 -0.392971
C34   C     C_3   0.318839 0.529882 0.039154 -0.393966
C35   C     C_3   0.818811 0.970094 0.461081 -0.391932
C36   C     C_3   0.818814 0.029877 0.461086 -0.391714
C37   C     C_3   0.249904 0.449156 0.999566 0.183304
C38   C     C_3   0.249906 0.550848 0.999565 0.183972
C39   C     C_3   0.749903 0.949152 0.500408 0.179675
C40   C     C_3   0.749906 0.050844 0.500408 0.179379
H29   H     H_    0.908296 0.360488 0.937502 0.129788
H30   H     H_    0.919368 0.626134 0.073926 0.131977
H31   H     H_    0.882636 0.682756 0.963058 0.132989
H32   H     H_    0.874794 0.296734 0.030069 0.136184
H33   H     H_    0.382111 0.815987 0.463560 0.133443
H34   H     H_    0.374754 0.203402 0.530053 0.136223
H35   H     H_    0.683584 0.365365 0.161800 0.128239
H36   H     H_    0.419068 0.873599 0.573657 0.132238
C41   C     C_R   0.127159 0.188736 0.730689 -0.150517
C42   C     C_R   0.122865 0.815898 0.265259 -0.143085
C43   C     C_R   0.142074 0.786346 0.715520 -0.146170
C44   C     C_R   0.145910 0.224975 0.289189 -0.139927
C45   C     C_R   0.642279 0.714130 0.215334 -0.146115
C46   C     C_R   0.645893 0.275064 0.789160 -0.140074
C47   C     C_R   0.479146 0.191211 0.378964 -0.133496
C48   C     C_R   0.622964 0.684177 0.765344 -0.142818
C49   C     C_R   0.135509 0.158484 0.668231 -0.165114
C50   C     C_R   0.129353 0.848357 0.325729 -0.143926
C51   C     C_R   0.158194 0.803818 0.645324 -0.142191
C52   C     C_R   0.163935 0.213551 0.361429 -0.143674
C53   C     C_R   0.658504 0.696884 0.145051 -0.142171
C54   C     C_R   0.663923 0.286496 0.861394 -0.143841
C55   C     C_R   0.415114 0.163055 0.389070 -0.127496
C56   C     C_R   0.629496 0.651758 0.825856 -0.143970
C57   C     C_R   0.604845 0.697009 0.091256 -0.140776
C58   C     C_R   0.610168 0.287135 0.914676 -0.142668
C59   C     C_R   0.360197 0.164570 0.336551 -0.123225
C60   C     C_R   0.575798 0.651688 0.879485 -0.152862
C61   C     C_R   0.081968 0.158748 0.614216 -0.156391
C62   C     C_R   0.075624 0.848469 0.379329 -0.152357
C63   C     C_R   0.104540 0.803687 0.591524 -0.140765
C64   C     C_R   0.110166 0.212875 0.414693 -0.142560
C65   C     C_R   0.534653 0.714316 0.107487 -0.141172
C66   C     C_R   0.538118 0.275971 0.896136 -0.139448
C67   C     C_R   0.369529 0.193506 0.272974 -0.128990
C68   C     C_R   0.515264 0.684042 0.872920 -0.145616
C69   C     C_R   0.019673 0.189151 0.622452 -0.145829
C70   C     C_R   0.015131 0.816089 0.372801 -0.145313
C71   C     C_R   0.034454 0.786140 0.607658 -0.141316
C72   C     C_R   0.038107 0.224010 0.396134 -0.139173
C73   C     C_R   0.516983 0.732696 0.178351 0.074322
C74   C     C_R   0.518647 0.262307 0.823498 0.072881
C75   C     C_R   0.434571 0.221866 0.260985 0.083558
C76   C     C_R   0.507217 0.717165 0.811773 0.077233
C77   C     C_R   0.009545 0.219752 0.685838 0.077833
C78   C     C_R   0.007155 0.782899 0.311718 0.077227
C79   C     C_R   0.016888 0.767547 0.678434 0.074338
C80   C     C_R   0.018641 0.237685 0.323497 0.072969
C81   C     C_R   0.064084 0.219659 0.740544 0.079892
C82   C     C_R   0.061730 0.782822 0.257207 0.074592
C83   C     C_R   0.071454 0.767588 0.733057 0.074227
C84   C     C_R   0.073268 0.237967 0.269123 0.073208
C85   C     C_R   0.571553 0.732667 0.232968 0.074162
C86   C     C_R   0.573262 0.262046 0.769113 0.073215
C87   C     C_R   0.489697 0.221204 0.315067 0.080718
C88   C     C_R   0.561789 0.717228 0.757258 0.074571
C89   C     C_R   0.445823 0.749918 0.195987 -0.145674
C90   C     C_R   0.445833 0.250015 0.804087 -0.157344
C91   C     C_R   0.445690 0.250468 0.196155 -0.145250
C92   C     C_R   0.445913 0.749935 0.804053 -0.147878
C93   C     C_R   0.945686 0.249532 0.696156 -0.145221
C94   C     C_R   0.945923 0.750069 0.304061 -0.147780
C95   C     C_R   0.945840 0.750066 0.695969 -0.145529
C96   C     C_R   0.945823 0.249975 0.304079 -0.157140
C97   C     C_R   0.428170 0.766959 0.267287 0.080730
C98   C     C_R   0.426604 0.237560 0.731203 0.073111
C99   C     C_R   0.509530 0.280247 0.185830 0.077865
C100  C     C_R   0.438245 0.782769 0.742765 0.076353
C101  C     C_R   0.934573 0.278173 0.760956 0.083762
C102  C     C_R   0.938323 0.717174 0.242830 0.076431
C103  C     C_R   0.928310 0.732718 0.767153 0.080805
C104  C     C_R   0.926600 0.262453 0.231197 0.073113
C105  C     C_R   0.989696 0.278837 0.815040 0.080718
C106  C     C_R   0.992884 0.717115 0.188307 0.075826
C107  C     C_R   0.982984 0.732501 0.821668 0.078090
C108  C     C_R   0.981070 0.262339 0.176656 0.073056
C109  C     C_R   0.482854 0.767211 0.321790 0.078081
C110  C     C_R   0.481062 0.237693 0.676651 0.072958
C111  C     C_R   0.564068 0.280348 0.240536 0.079776
C112  C     C_R   0.492802 0.782816 0.688237 0.075868
C113  C     C_R   0.054096 0.249801 0.804140 -0.146846
C114  C     C_R   0.054099 0.749954 0.195958 -0.149255
C115  C     C_R   0.054046 0.749950 0.804118 -0.148579
C116  C     C_R   0.054009 0.250096 0.196043 -0.158886
C117  C     C_R   0.554042 0.750066 0.304123 -0.148716
C118  C     C_R   0.553999 0.249921 0.696035 -0.159099
C119  C     C_R   0.554095 0.250216 0.304142 -0.146798
C120  C     C_R   0.554099 0.750045 0.695958 -0.149381
C121  C     C_R   0.357170 0.784812 0.285216 -0.118480
C122  C     C_R   0.354120 0.223762 0.711630 -0.138328
C123  C     C_R   0.519633 0.310848 0.122442 -0.145704
C124  C     C_R   0.377112 0.815859 0.734704 -0.140276
C125  C     C_R   0.869546 0.306580 0.772901 -0.128971
C126  C     C_R   0.877245 0.684044 0.234817 -0.140447
C127  C     C_R   0.857457 0.714506 0.784937 -0.118754
C128  C     C_R   0.854113 0.276258 0.211618 -0.138184
C129  C     C_R   0.340897 0.801876 0.355572 -0.114531
C130  C     C_R   0.335849 0.212156 0.639565 -0.142357
C131  C     C_R   0.581904 0.341257 0.114205 -0.156264
C132  C     C_R   0.370597 0.848284 0.674194 -0.146086
C133  C     C_R   0.860229 0.335572 0.836433 -0.123504
C134  C     C_R   0.870798 0.651556 0.174368 -0.146229
C135  C     C_R   0.841331 0.697075 0.855158 -0.114623
C136  C     C_R   0.835857 0.287906 0.139560 -0.142260
C137  C     C_R   0.915129 0.337068 0.888971 -0.127648
C138  C     C_R   0.924489 0.651488 0.120733 -0.149052
C139  C     C_R   0.895214 0.696678 0.908723 -0.123350
C140  C     C_R   0.889252 0.287503 0.085891 -0.144626
C141  C     C_R   0.394797 0.802334 0.409118 -0.123423
C142  C     C_R   0.389228 0.212590 0.585882 -0.144674
C143  C     C_R   0.635447 0.341524 0.168217 -0.164864
C144  C     C_R   0.424258 0.848311 0.620529 -0.149645
C145  C     C_R   0.979142 0.308860 0.878912 -0.133319
C146  C     C_R   0.984927 0.683918 0.127226 -0.147568
C147  C     C_R   0.965456 0.713836 0.892410 -0.128437
C148  C     C_R   0.961293 0.275736 0.104009 -0.140946
C149  C     C_R   0.465196 0.785589 0.392649 -0.128430
C150  C     C_R   0.461271 0.224336 0.603995 -0.141200
C151  C     C_R   0.627122 0.311272 0.230676 -0.150931
C152  C     C_R   0.484759 0.815930 0.627078 -0.147921
H37   H     H_    0.170204 0.187205 0.771305 0.105461
H38   H     H_    0.166062 0.817137 0.224974 0.112985
H39   H     H_    0.185455 0.788106 0.755696 0.123835
H40   H     H_    0.189649 0.223216 0.249705 0.134243
H41   H     H_    0.685669 0.712354 0.255499 0.124256
H42   H     H_    0.689617 0.276848 0.749662 0.134237
H43   H     H_    0.520270 0.188952 0.421453 0.108051
H44   H     H_    0.666147 0.682914 0.725046 0.112821
H45   H     H_    0.183664 0.134646 0.661816 0.127984
H46   H     H_    0.176230 0.873590 0.330939 0.138548
H47   H     H_    0.212443 0.817782 0.632724 0.134567
H48   H     H_    0.219771 0.204846 0.376185 0.135265
H49   H     H_    0.712836 0.683088 0.132388 0.134909
H50   H     H_    0.719750 0.295239 0.876128 0.135303
H51   H     H_    0.408283 0.139654 0.437617 0.129861
H52   H     H_    0.676379 0.626519 0.831074 0.137637
H53   H     H_    0.617532 0.683320 0.036827 0.135029
H54   H     H_    0.624313 0.296630 0.970552 0.140398
H55   H     H_    0.310938 0.142131 0.344224 0.134499
H56   H     H_    0.580988 0.626390 0.926344 0.125291
H57   H     H_    0.088570 0.135128 0.565830 0.127156
H58   H     H_    0.080764 0.873814 0.426141 0.125314
H59   H     H_    0.117150 0.817545 0.537165 0.134725
H60   H     H_    0.124308 0.203379 0.470571 0.140405
H61   H     H_    0.494576 0.712677 0.064003 0.125322
H62   H     H_    0.498260 0.278490 0.939491 0.133209
H63   H     H_    0.325785 0.192777 0.233093 0.108907
H64   H     H_    0.474913 0.682674 0.916050 0.108351
H65   H     H_    0.979333 0.187922 0.579130 0.107851
H66   H     H_    0.974762 0.817483 0.415913 0.108354
H67   H     H_    0.994376 0.787744 0.564172 0.124986
H68   H     H_    0.998239 0.221463 0.439475 0.133160
H69   H     H_    0.313633 0.786318 0.245200 0.126856
H70   H     H_    0.310713 0.221399 0.751448 0.133467
H71   H     H_    0.479288 0.312077 0.079124 0.107867
H72   H     H_    0.333951 0.817150 0.775024 0.108317
H73   H     H_    0.825806 0.307308 0.733015 0.108866
H74   H     H_    0.834071 0.682774 0.275123 0.108356
H75   H     H_    0.813944 0.712986 0.744892 0.126178
H76   H     H_    0.810694 0.278598 0.251427 0.133444
H77   H     H_    0.810977 0.358038 0.844076 0.134234
H78   H     H_    0.823986 0.626262 0.169202 0.126570
H79   H     H_    0.786953 0.683414 0.867891 0.133886
H80   H     H_    0.780121 0.297635 0.125364 0.140434
H81   H     H_    0.286391 0.815221 0.368418 0.134468
H82   H     H_    0.280113 0.202439 0.625374 0.140493
H83   H     H_    0.588484 0.364878 0.065820 0.127150
H84   H     H_    0.323758 0.873562 0.669002 0.126332
H85   H     H_    0.020254 0.311107 0.921412 0.108088
H86   H     H_    0.025279 0.682548 0.084096 0.111027
H87   H     H_    0.005667 0.711943 0.935752 0.124730
H88   H     H_    0.000900 0.277671 0.060372 0.134084
H89   H     H_    0.505410 0.787553 0.435980 0.125078
H90   H     H_    0.500866 0.222424 0.560345 0.134175
H91   H     H_    0.670166 0.312807 0.271293 0.105506
H92   H     H_    0.525091 0.817275 0.583929 0.111017
H93   H     H_    0.132739 0.048753 0.776662 0.141020
H94   H     H_    0.131745 0.953362 0.776190 0.136392
H95   H     H_    0.629201 0.546791 0.277521 0.136693
H96   H     H_    0.629408 0.451387 0.278222 0.141519
C153  C     C_R   0.328875 0.051917 0.112443 -0.236852
C154  C     C_R   0.318106 0.945087 0.116515 -0.222836
C155  C     C_R   0.819467 0.554834 0.615869 -0.223281
C156  C     C_R   0.829388 0.447960 0.612038 -0.236123
C157  C     C_R   0.367507 0.024058 0.165371 0.187241
C158  C     C_R   0.360260 0.970411 0.168737 0.184577
C159  C     C_R   0.861998 0.529442 0.667739 0.184339
C160  C     C_R   0.868688 0.475745 0.664560 0.186867
C161  C     C_R   0.285298 0.972245 0.057620 0.039938
C162  C     C_R   0.288351 0.026442 0.056786 0.036030
C163  C     C_R   0.788709 0.473508 0.556537 0.036231
C164  C     C_R   0.785908 0.527714 0.557323 0.039724
C165  C     C_R   0.249735 0.946190 0.999817 -0.123925
C166  C     C_R   0.251452 0.053549 0.000235 -0.126724
C167  C     C_R   0.751330 0.446449 0.500244 -0.127037
C168  C     C_R   0.749843 0.553810 0.499829 -0.124252
C169  C     C_R   0.217115 0.973030 0.940884 0.068822
C170  C     C_R   0.217603 0.027363 0.941267 0.072042
C171  C     C_R   0.716892 0.472677 0.441613 0.071681
C172  C     C_R   0.716602 0.527010 0.441197 0.068882
C173  C     C_R   0.185973 0.946799 0.880179 -0.144953
C174  C     C_R   0.186988 0.054206 0.880766 -0.139944
C175  C     C_R   0.685338 0.445878 0.381503 -0.140399
C176  C     C_R   0.684975 0.553280 0.380753 -0.144599
C177  C     C_R   0.155230 0.974006 0.822053 -0.141621
C178  C     C_R   0.155740 0.027621 0.822342 -0.141820
C179  C     C_R   0.653320 0.472498 0.323504 -0.141761
C180  C     C_R   0.653203 0.526115 0.323105 -0.141330
H97   H     H_    0.333148 0.093452 0.114888 0.177778
H98   H     H_    0.312836 0.903713 0.122284 0.164361
H99   H     H_    0.814506 0.596227 0.621659 0.165319
H100  H     H_    0.833217 0.406403 0.614722 0.177767
I1    I     I_    0.439743 0.064486 0.235418 -0.341816
I2    I     I_    0.412484 0.924753 0.249876 -0.363403
I3    I     I_    0.915616 0.575079 0.748061 -0.362067
I4    I     I_    0.940923 0.435063 0.734353 -0.342131

loop_
_geom_bond_atom_site_label_1
_geom_bond_atom_site_label_2
_geom_bond_distance
_ccdc_geom_bond_type
C153  C162  1.420495 A    
C87   C119  1.412445 A    
C94   C102  1.413307 A    
C109  C149  1.418296 A    
C164  C168  1.412160 A    
C99   C123  1.416428 A    
C75   C91   1.412855 A    
C169  C170  1.406521 A    
C97   C121  1.418436 A    
O26   C7    1.278717 A    
C160  I4    2.116147 S    
C73   C89   1.414628 A    
C66   C74   1.419278 A    
C99   C111  1.411721 A    
C4    C90   1.452665 S    
O30   C11   1.277067 A    
C22   C38   1.494986 S    
C30   H14   1.113005 S    
C91   C99   1.413133 A    
C136  C140  1.386702 A    
C89   C97   1.414484 A    
H93   C178  1.082869 S    
Zn12  O26   1.931634 S    
C110  C118  1.416521 A    
C51   C63   1.388583 A    
H34   C142  1.080659 S    
C161  C165  1.411736 A    
C92   C100  1.413291 A    
C43   C51   1.393224 A    
C76   C92   1.413424 A    
C32   C39   1.551449 S    
C158  I2    2.122604 S    
C29   H5    1.113442 S    
C96   C104  1.414971 A    
C34   C38   1.551290 S    
C44   H40   1.080276 S    
O11   C7    1.276135 A    
C45   H41   1.081557 S    
C42   C82   1.416602 A    
O34   C15   1.276403 A    
C135  H79   1.082269 S    
C55   H51   1.082218 S    
C155  C159  1.390795 A    
C62   C70   1.393863 A    
C41   H37   1.082325 S    
C159  C160  1.396599 A    
C137  C145  1.393101 A    
Zn14  O30   1.931963 S    
Zn1   O44   1.950714 S    
C25   H1    1.112930 S    
Zn2   O43   1.950714 S    
C108  C116  1.416514 A    
C141  C149  1.393138 A    
Zn5   O48   1.950714 S    
H32   C140  1.080689 S    
Zn6   O47   1.950714 S    
C112  C120  1.413329 A    
Zn7   O46   1.950715 S    
O16   C12   1.277647 A    
C11   C115  1.450605 S    
C42   C50   1.393675 A    
C169  C173  1.419705 A    
Zn16  O4    1.950586 S    
Zn12  O4    1.951261 S    
Zn1   O13   1.932526 S    
C71   H67   1.081515 S    
C98   C110  1.411856 A    
C26   C28   1.537281 S    
C72   H68   1.080608 S    
Zn4   O16   1.936478 S    
C57   H53   1.082192 S    
C104  C128  1.419230 A    
C9    C113  1.450210 S    
C33   C37   1.551296 S    
C6    C96   1.452688 S    
C28   H4    1.113427 S    
C150  H90   1.080503 S    
C125  C133  1.393851 A    
C63   H59   1.082190 S    
C31   H7    1.113455 S    
C64   H60   1.081806 S    
C71   C79   1.418439 A    
C72   C80   1.419284 A    
C14   C118  1.454803 S    
C44   C84   1.419016 A    
C45   C85   1.418474 A    
C30   H6    1.112965 S    
Zn10  O22   1.931634 S    
C105  C113  1.412491 A    
C48   C88   1.416601 A    
O25   C8    1.277161 A    
C163  C167  1.419663 A    
C129  C141  1.388538 A    
C13   C117  1.450625 S    
Zn10  O2    1.951261 S    
C154  H98   1.080550 S    
C31   C40   1.554296 S    
O29   C12   1.277803 A    
C65   H61   1.081508 S    
Zn15  O33   1.935838 S    
C171  C172  1.406493 A    
C75   C87   1.411420 A    
C26   H2    1.113450 S    
C147  H87   1.081540 S    
C157  C158  1.396437 A    
C41   C81   1.416667 A    
C135  C139  1.388550 A    
O48   C23   1.280636 A    
C130  C142  1.386686 A    
Zn13  O29   1.935838 S    
C132  C144  1.390046 A    
C101  C125  1.416394 A    
C156  C160  1.397981 A    
Zn16  O35   1.935917 S    
C77   C93   1.413150 A    
C70   C78   1.416483 A    
C82   C114  1.413230 A    
Zn7   O10   1.936435 S    
C123  H71   1.082245 S    
O33   C16   1.277113 A    
C25   C37   1.551361 S    
C86   C118  1.416515 A    
Zn8   O20   1.936478 S    
O40   C20   1.268166 A    
C52   C64   1.386388 A    
C70   H66   1.082358 S    
C1    C91   1.450991 S    
C102  C106  1.412823 A    
H95   C180  1.082845 S    
C80   C96   1.414858 A    
Zn5   O17   1.932526 S    
H33   C141  1.082087 S    
H31   C139  1.082188 S    
C57   C65   1.393299 A    
C53   H49   1.082238 S    
C25   C27   1.547648 S    
C129  H81   1.082113 S    
C103  C107  1.411007 A    
C67   C75   1.416366 A    
C161  C162  1.404140 A    
C17   C166  1.442663 S    
C61   H57   1.082461 S    
C65   C73   1.418444 A    
H96   C179  1.083678 S    
C27   H3    1.112943 S    
C32   H8    1.112951 S    
Zn8   O3    1.949401 S    
C21   C37   1.495045 S    
O38   C18   1.272041 A    
C145  H85   1.082182 S    
H22   C34   1.113031 S    
O5    C1    1.275974 A    
C47   C55   1.393055 A    
O32   C9    1.276516 A    
C151  H91   1.082328 S    
H25   C35   1.113025 S    
C52   H48   1.080258 S    
H26   C36   1.112939 S    
C36   C40   1.551309 S    
Zn15  O51   1.950788 S    
C111  C151  1.416653 A    
Zn11  O28   1.931711 S    
C121  H69   1.081423 S    
H23   C34   1.112942 S    
C42   H38   1.082398 S    
C29   C39   1.554294 S    
H28   C35   1.112951 S    
O8    C4    1.277082 A    
C63   C71   1.393292 A    
C33   C34   1.547508 S    
C64   C72   1.391414 A    
C49   C61   1.389915 A    
H20   C176  1.081118 S    
O37   C17   1.267969 A    
C107  C115  1.414662 A    
C100  C112  1.412834 A    
Zn1   O1    1.949405 S    
C122  C130  1.391667 A    
C133  C137  1.389280 A    
Zn2   O14   1.936366 S    
C15   C119  1.450168 S    
C58   H54   1.081803 S    
C68   C76   1.416452 A    
C167  C171  1.415848 A    
H29   C137  1.082229 S    
O9    C5    1.277249 A    
C43   H39   1.081584 S    
O36   C13   1.277170 A    
C60   C68   1.393835 A    
O13   C9    1.277668 A    
Zn1   O8    1.936323 S    
C2    C92   1.453874 S    
C155  H99   1.080540 S    
Zn2   O7    1.932482 S    
C165  C169  1.413347 A    
Zn3   O6    1.936435 S    
O18   C14   1.277544 A    
O31   C10   1.277050 A    
C106  C146  1.416514 A    
C25   H9    1.113028 S    
H94   C177  1.082697 S    
C110  C150  1.419104 A    
C93   C101  1.412857 A    
C32   H16   1.113027 S    
H18   C174  1.080803 S    
C98   C122  1.419244 A    
C59   H55   1.082104 S    
Zn15  O3    1.950962 S    
C74   C90   1.414875 A    
Zn11  O3    1.950885 S    
O41   C21   1.280731 A    
C56   C60   1.390067 A    
C66   H62   1.080606 S    
Zn16  O34   1.931963 S    
C31   H15   1.113434 S    
C74   C86   1.411758 A    
C3    C89   1.450554 S    
Zn2   O2    1.949404 S    
C90   C98   1.414958 A    
C78   C82   1.412846 A    
C109  C117  1.414605 A    
C162  C166  1.419383 A    
C108  C148  1.419109 A    
C59   C67   1.393838 A    
C47   H43   1.082183 S    
C48   H44   1.082398 S    
C157  I1    2.115982 S    
C69   C77   1.416431 A    
C112  C152  1.416481 A    
Zn8   O9    1.932370 S    
C24   C40   1.495046 S    
C131  H83   1.082459 S    
C132  H84   1.082478 S    
C133  H77   1.082117 S    
C84   C116  1.416528 A    
C56   H52   1.082533 S    
C154  C158  1.390675 A    
C138  C146  1.393791 A    
O7    C3    1.277350 A    
C88   C120  1.413227 A    
C95   C103  1.414549 A    
C16   C120  1.453720 S    
O19   C15   1.277536 A    
Zn13  O49   1.950788 S    
C142  C150  1.392676 A    
C43   C83   1.418427 A    
O44   C21   1.277721 A    
C26   H10   1.113465 S    
Zn9   O24   1.931711 S    
Zn6   O18   1.936366 S    
Zn10  O23   1.935588 S    
C49   H45   1.082507 S    
O50   C18   1.269043 A    
C79   C83   1.410998 A    
C170  C174  1.420531 A    
H19   C175  1.080761 S    
C58   C66   1.391448 A    
C130  H82   1.081888 S    
Zn15  O36   1.931886 S    
O15   C11   1.277363 A    
O42   C22   1.277701 A    
C97   C109  1.410993 A    
Zn14  O31   1.935917 S    
C46   H42   1.080288 S    
Zn4   O1    1.949401 S    
C30   C32   1.547674 S    
Zn9   O37   1.950934 S    
C35   C36   1.547545 S    
O12   C8    1.277215 A    
C53   C57   1.388574 A    
Zn11  O39   1.950934 S    
C146  H86   1.082359 S    
C46   C54   1.392595 A    
C60   H56   1.082451 S    
C176  C180  1.393350 A    
H21   C33   1.112951 S    
C7    C93   1.451004 S    
Zn5   O3    1.949405 S    
Zn13  O1    1.950962 S    
Zn6   O4    1.949404 S    
C54   H50   1.080304 S    
C121  C129  1.393088 A    
C139  C147  1.393408 A    
C163  C164  1.404179 A    
C8    C94   1.453861 S    
H17   C173  1.081003 S    
C10   C114  1.453678 S    
C136  H80   1.081886 S    
C153  H97   1.078935 S    
H35   C143  1.082502 S    
H24   C33   1.113012 S    
C27   C38   1.551346 S    
O28   C5    1.277344 A    
C152  H92   1.082355 S    
Zn3   O42   1.950715 S    
C153  C157  1.397708 A    
C23   C39   1.494987 S    
Zn7   O4    1.949403 S    
O21   C4    1.276989 A    
C50   C62   1.390088 A    
C44   C52   1.392606 A    
C45   C53   1.393173 A    
C173  C177  1.392711 A    
C105  C145  1.416477 A    
C143  C151  1.393488 A    
C175  C179  1.392929 A    
C179  C180  1.387952 A    
C48   C56   1.393672 A    
C102  C126  1.416570 A    
Zn14  O2    1.950586 S    
C78   C94   1.413465 A    
C172  C176  1.419933 A    
C83   C115  1.414360 A    
C177  C178  1.387918 A    
C28   H12   1.113481 S    
C81   C113  1.412632 A    
Zn12  O27   1.935588 S    
C35   C39   1.551298 S    
C20   C167  1.442588 S    
C85   C117  1.414353 A    
C46   C86   1.419028 A    
C61   C69   1.393862 A    
C30   C40   1.551459 S    
Zn3   O2    1.949403 S    
C127  C135  1.393308 A    
C156  C163  1.420675 A    
H27   C36   1.113019 S    
C122  H70   1.080685 S    
O46   C24   1.280649 A    
O47   C24   1.277803 A    
Zn16  O52   1.950976 S    
C100  C124  1.416554 A    
H30   C138  1.082484 S    
C104  C108  1.411868 A    
Zn8   O45   1.950715 S    
C41   C49   1.393486 A    
O27   C6    1.277109 A    
C47   C87   1.416471 A    
C159  I3    2.123725 S    
C18   C165  1.438582 S    
C67   H63   1.082031 S    
C131  C143  1.389919 A    
C29   C31   1.537211 S    
C148  H88   1.080513 S    
C73   C85   1.410980 A    
O24   C1    1.278648 A    
C149  H89   1.081527 S    
C26   C38   1.554361 S    
C76   C88   1.412851 A    
C77   C81   1.411723 A    
C174  C178  1.392672 A    
C79   C95   1.414644 A    
C80   C84   1.411765 A    
C154  C161  1.418336 A    
O43   C22   1.280718 A    
O14   C10   1.277033 A    
Zn4   O41   1.950715 S    
Zn3   O15   1.932414 S    
C127  H75   1.081473 S    
C128  H76   1.080688 S    
Zn5   O12   1.936323 S    
Zn6   O11   1.932482 S    
C101  C105  1.411434 A    
Zn9   O21   1.935667 S    
Zn14  O50   1.950976 S    
C124  H72   1.082387 S    
C125  H73   1.082033 S    
O35   C14   1.277668 A    
Zn12  O40   1.950746 S    
O39   C19   1.271834 A    
C134  H78   1.082501 S    
Zn9   O1    1.950885 S    
H36   C144  1.082477 S    
O52   C20   1.275969 A    
C55   C59   1.389267 A    
C126  C134  1.393731 A    
C156  H100  1.079124 S    
C29   H13   1.113455 S    
O22   C3    1.277502 A    
C140  C148  1.392669 A    
Zn7   O19   1.932414 S    
C168  C172  1.413618 A    
C50   H46   1.082551 S    
C111  C119  1.412628 A    
C12   C116  1.454835 S    
Zn13  O32   1.931886 S    
C144  C152  1.393758 A    
O49   C17   1.276216 A    
C28   C37   1.554365 S    
C123  C131  1.393853 A    
C134  C138  1.390052 A    
O51   C19   1.269245 A    
C106  C114  1.413348 A    
C126  H74   1.082382 S    
C27   H11   1.113036 S    
C171  C175  1.421402 A    
Zn4   O5    1.932370 S    
C103  C127  1.418586 A    
O20   C16   1.277211 A    
C5    C95   1.450521 S    
O10   C6    1.277192 A    
O23   C2    1.277227 A    
O6    C2    1.277374 A    
Zn11  O25   1.935667 S    
Zn10  O38   1.950746 S    
C124  C132  1.393716 A    
C54   C58   1.386412 A    
C68   H64   1.082353 S    
C19   C168  1.438551 S    
C69   H65   1.082244 S    
C155  C164  1.418999 A    
C166  C170  1.415377 A    
C128  C136  1.391691 A    
C107  C147  1.418344 A    
O17   C13   1.277504 A    
C62   H58   1.082459 S    
C51   H47   1.082163 S    
O45   C23   1.277783 A    
