data_mof_unit_49179.cif
_audit_creation_date              2012-12-10T17:53:07-0500
_audit_creation_method            fapswitch 2.2
_symmetry_space_group_name_H-M    P1
_symmetry_Int_Tables_number       1
_space_group_crystal_system       triclinic
_cell_length_a                    14.766068
_cell_length_b                    14.764034
_cell_length_c                    27.763085
_cell_angle_alpha                 75.923275
_cell_angle_beta                  103.388043
_cell_angle_gamma                 115.143844
_cell_volume                      5257.54254434

loop_
_atom_site_label
_atom_site_type_symbol
_atom_type_description
_atom_site_fract_x
_atom_site_fract_y
_atom_site_fract_z
_atom_type_partial_charge
C1    C     C_R   0.880377 0.312282 0.509183 0.784306
C2    C     C_R   0.119681 0.687611 0.492522 0.771405
C3    C     C_R   0.023570 0.514740 0.898592 -0.044806
C4    C     C_R   0.025682 0.513897 0.103232 -0.044610
C5    C     C_R   0.015933 0.427483 0.883051 -0.019076
C6    C     C_R   0.041230 0.603342 0.119465 -0.020659
C7    C     C_R   0.011561 0.341294 0.918634 -0.151077
C8    C     C_R   0.059239 0.693287 0.085042 -0.150217
C9    C     C_R   0.028754 0.601635 0.862507 -0.020821
C10   C     C_R   0.008386 0.423649 0.138268 -0.021695
C11   C     C_R   0.007288 0.509745 0.644410 -0.059338
C12   C     C_R   0.000102 0.500038 0.354721 -0.052074
C13   C     C_R   0.013406 0.424091 0.036613 0.041567
C14   C     C_R   0.036026 0.604596 0.965229 0.041621
C15   C     C_R   0.040861 0.605530 0.016880 0.041863
C16   C     C_R   0.017015 0.425490 0.985681 0.041983
C17   C     C_R   0.026848 0.514555 0.052046 0.067589
C18   C     C_R   0.025682 0.514989 0.950059 0.067374
C19   C     C_R   0.995386 0.334649 0.072830 -0.204884
C20   C     C_R   0.039791 0.690085 0.927801 -0.205161
C21   C     C_R   0.993113 0.334703 0.122545 -0.149589
C22   C     C_R   0.036323 0.688442 0.877588 -0.150421
C23   C     C_R   0.001657 0.502337 0.592113 0.782639
C24   C     C_R   0.998851 0.498443 0.407680 0.789472
C25   C     C_R   0.012298 0.340167 0.968887 -0.205748
C26   C     C_R   0.059358 0.694646 0.034850 -0.205509
C27   C     C_R   0.812979 0.204427 0.515887 -0.046514
C28   C     C_R   0.187525 0.794469 0.492963 -0.057618
C29   C     C_R   0.783394 0.027209 0.526083 -0.195421
C30   C     C_R   0.218956 0.965707 0.499913 -0.192245
C31   C     C_R   0.849961 0.128550 0.522672 -0.202005
C32   C     C_R   0.151370 0.867097 0.494567 -0.203500
C33   C     C_R   0.709545 0.177761 0.514440 -0.263599
C34   C     C_R   0.291487 0.821600 0.496286 -0.247678
C35   C     C_R   0.640779 0.076013 0.518265 0.087580
C36   C     C_R   0.361602 0.918799 0.504669 0.080366
C37   C     C_R   0.679223 0.000574 0.523003 0.159166
C38   C     C_R   0.323528 0.991963 0.505197 0.155317
C39   C     C_R   0.534828 0.047688 0.515506 0.069598
C40   C     C_R   0.468014 0.945146 0.512454 0.068866
C41   C     C_R   0.509831 0.871975 0.518557 -0.228956
C42   C     C_R   0.493575 0.118051 0.516338 -0.221677
C43   C     C_R   0.613437 0.899390 0.524121 -0.225913
C44   C     C_R   0.390015 0.090211 0.511637 -0.226628
C45   C     C_R   0.013462 0.428650 0.832033 0.531059
C46   C     C_R   0.038006 0.600616 0.169997 0.532965
C47   C     C_R   0.719392 0.679537 0.424067 -0.329730
C48   C     C_R   0.286800 0.329070 0.581803 -0.326252
C49   C     C_R   0.790227 0.637799 0.427912 0.298731
C50   C     C_R   0.206854 0.360775 0.571661 0.302955
C51   C     C_R   0.719676 0.514111 0.496621 -0.022940
C52   C     C_R   0.286797 0.492964 0.507852 -0.025835
C53   C     C_R   0.635857 0.543905 0.487726 -0.023373
C54   C     C_R   0.374483 0.468399 0.520676 -0.021502
C55   C     C_R   0.641302 0.632140 0.452585 0.132937
C56   C     C_R   0.369768 0.381492 0.556729 0.134890
C57   C     C_R   0.546874 0.489750 0.511486 0.090644
C58   C     C_R   0.465834 0.525433 0.499082 0.087377
C59   C     C_R   0.479684 0.617877 0.466375 -0.238305
C60   C     C_R   0.534928 0.399795 0.546075 -0.233133
C61   C     C_R   0.565816 0.669968 0.443587 -0.193893
C62   C     C_R   0.448632 0.347756 0.568721 -0.201514
C63   C     C_R   0.025179 0.599362 0.811805 0.532514
C64   C     C_R   0.005643 0.424171 0.188407 0.534064
C65   C     C_R   0.098683 0.574806 0.721527 -0.112578
C66   C     C_R   0.919637 0.457442 0.271809 -0.133541
C67   C     C_R   0.096488 0.575510 0.670442 0.048145
C68   C     C_R   0.911668 0.451255 0.322020 0.049041
C69   C     C_R   0.922346 0.449699 0.668496 -0.268165
C70   C     C_R   0.093305 0.551760 0.336558 -0.253130
C71   C     C_R   0.925761 0.451092 0.718795 -0.101359
C72   C     C_R   0.099648 0.556679 0.286674 -0.104508
C73   C     C_R   0.014019 0.512912 0.745557 0.322061
C74   C     C_R   0.012950 0.509437 0.254204 0.332643
Cu1   Cu    Cu3+1 0.081740 0.475690 0.513040 0.919974
Cu2   Cu    Cu3+1 0.918260 0.524310 0.486960 0.926528
H1    H     H_    0.853851 0.400271 0.648465 0.145531
H2    H     H_    0.161456 0.589173 0.361084 0.149206
H3    H     H_    0.315707 0.765114 0.492054 0.144152
H4    H     H_    0.683988 0.238443 0.508114 0.147850
H5    H     H_    0.071316 0.847305 0.492783 0.150388
H6    H     H_    0.929849 0.147586 0.524217 0.153532
H7    H     H_    0.813170 0.969655 0.530251 0.137516
H8    H     H_    0.189568 0.021031 0.500954 0.136397
H9    H     H_    0.464765 0.791915 0.520596 0.144074
H10   H     H_    0.539331 0.194961 0.522178 0.139841
H11   H     H_    0.572071 0.739443 0.417430 0.144796
H12   H     H_    0.443441 0.279802 0.595949 0.142411
H13   H     H_    0.282126 0.553763 0.478065 0.127791
H14   H     H_    0.725889 0.453794 0.526310 0.129534
H15   H     H_    0.719474 0.743981 0.395098 0.143154
H16   H     H_    0.285588 0.264567 0.610946 0.140536
H17   H     H_    0.424935 0.652001 0.457604 0.128097
H18   H     H_    0.591392 0.367713 0.556714 0.125324
H19   H     H_    0.859877 0.403786 0.737135 0.147342
H20   H     H_    0.172133 0.596557 0.273292 0.145159
H21   H     H_    0.007325 0.273730 0.907789 0.184348
H22   H     H_    0.073076 0.763497 0.096714 0.184490
H23   H     H_    0.853519 0.420067 0.246213 0.135983
H24   H     H_    0.165346 0.621779 0.743435 0.133257
H25   H     H_    0.978654 0.264041 0.148657 0.185342
H26   H     H_    0.039302 0.755932 0.850498 0.184982
H27   H     H_    0.980393 0.262126 0.063954 0.139989
H28   H     H_    0.043284 0.759411 0.935724 0.139876
H29   H     H_    0.010618 0.271175 0.993707 0.139501
H30   H     H_    0.075741 0.767676 0.011262 0.139324
H31   H     H_    0.642132 0.840899 0.528487 0.154209
H32   H     H_    0.361780 0.146361 0.512865 0.151717
N1    N     N_R   0.017594 0.513647 0.797583 -0.461870
N2    N     N_R   0.019710 0.511701 0.203168 -0.462343
N3    N     N_R   0.795430 0.560780 0.467350 -0.183116
N4    N     N_R   0.204570 0.439220 0.532650 -0.185393
O1    O     O_R   0.977900 0.338120 0.517190 -0.605030
O2    O     O_R   0.022100 0.661880 0.482810 -0.587705
O3    O     O_R   0.839850 0.379180 0.495160 -0.584404
O4    O     O_R   0.160150 0.620820 0.504840 -0.587300
O5    O     O_R   0.069030 0.479490 0.580750 -0.597073
O6    O     O_R   0.930970 0.520510 0.419250 -0.595403
O7    O     O_R   0.930970 0.520550 0.558720 -0.571503
O8    O     O_R   0.069030 0.479450 0.441280 -0.572062
O9    O     O_2   0.007598 0.345749 0.816985 -0.554905
O10   O     O_2   0.051698 0.685747 0.185728 -0.548232
O11   O     O_2   0.989287 0.337960 0.222218 -0.547652
O12   O     O_2   0.028384 0.681846 0.776918 -0.549809
C75   C     C_3   0.129249 0.306155 0.607494 -0.378313
C76   C     C_3   0.172272 0.339385 0.659240 -0.388587
C77   C     C_3   0.093243 0.288867 0.694841 -0.778188
H33   H     H_    0.026210 0.308245 0.679050 0.256073
H34   H     H_    0.069046 0.205175 0.701159 0.250710
H35   H     H_    0.126049 0.315927 0.731465 0.262971
H36   H     H_    0.238436 0.319029 0.676297 0.217613
H37   H     H_    0.198055 0.422975 0.655110 0.235521
H38   H     H_    0.058310 0.316164 0.594563 0.253195
H39   H     H_    0.107791 0.222981 0.611753 0.161335
C78   C     C_3   0.842117 0.669036 0.381525 -0.365209
C79   C     C_3   0.948483 0.753911 0.385736 -0.301021
C80   C     C_3   0.968051 0.828008 0.336528 -0.863145
H40   H     H_    0.958213 0.786949 0.305817 0.269153
H41   H     H_    0.915238 0.867570 0.326464 0.256460
H42   H     H_    0.046723 0.885680 0.340828 0.253634
H43   H     H_    0.958968 0.797358 0.415525 0.218124
H44   H     H_    0.005819 0.720260 0.394562 0.237065
H45   H     H_    0.839338 0.603496 0.368220 0.194973
H46   H     H_    0.794055 0.696112 0.349180 0.170938
C81   C     C_3   0.809824 0.387249 0.339531 -0.421465
C82   C     C_3   0.807935 0.285360 0.370578 -0.320383
C83   C     C_3   0.703541 0.218390 0.385553 -0.818318
H47   H     H_    0.681737 0.257165 0.407797 0.259933
H48   H     H_    0.646225 0.201003 0.351620 0.250830
H49   H     H_    0.704749 0.145936 0.408651 0.251578
H50   H     H_    0.827638 0.245015 0.348200 0.231464
H51   H     H_    0.864405 0.297865 0.405066 0.211848
H52   H     H_    0.790176 0.428498 0.361202 0.213220
H53   H     H_    0.749276 0.371874 0.306572 0.195282
C84   C     C_3   0.185091 0.647105 0.642393 -0.384728
C85   C     C_3   0.271069 0.726975 0.671278 -0.379903
C86   C     C_3   0.349413 0.800846 0.637657 -0.803917
H54   H     H_    0.380188 0.759368 0.621826 0.255350
H55   H     H_    0.314538 0.844464 0.606518 0.262796
H56   H     H_    0.412688 0.855102 0.659875 0.243886
H57   H     H_    0.240088 0.771028 0.685131 0.237198
H58   H     H_    0.309304 0.688838 0.703741 0.219593
H59   H     H_    0.217679 0.601482 0.631066 0.211032
H60   H     H_    0.155016 0.688007 0.607672 0.199510

loop_
_geom_bond_atom_site_label_1
_geom_bond_atom_site_label_2
_ccdc_geom_bond_type
C75   H39   S    
C66   C68   A    
C63   N1    A    
C76   C77   S    
C70   H2    S    
C8    C26   A    
C14   C18   A    
C69   H1    S    
C83   H47   S    
Cu1   O5    S    
C26   H30   S    
C63   O12   S    
C25   H29   S    
C78   C79   S    
C47   C49   A    
C27   C33   A    
C32   H5    S    
C12   C68   A    
Cu1   N4    S    
C86   H54   S    
C31   H6    S    
C1    O1    A    
C60   C62   A    
C85   C86   S    
C83   H48   S    
C29   H7    S    
C51   H14   S    
C23   O7    A    
C45   N1    A    
C9    C22   A    
C71   H19   S    
C52   N4    A    
C66   C74   A    
Cu2   O3    S    
C65   C73   A    
C30   C38   A    
C3    C18   A    
C67   C84   S    
C11   C23   S    
C69   C71   A    
C8    H22   S    
C79   H44   S    
C61   H11   S    
C19   H27   S    
C11   C67   A    
C65   C67   A    
Cu2   O2    S    
C42   H10   S    
C76   H37   S    
C6    C46   A    
C44   H32   S    
C34   C36   A    
C49   N3    A    
C81   H52   S    
C78   H45   S    
C49   C78   S    
C28   C34   A    
C86   H55   S    
C41   C43   A    
C52   H13   S    
C42   C44   A    
C52   C54   A    
C81   C82   S    
C39   C42   A    
C53   C55   A    
C10   C21   A    
C80   H42   S    
C54   C56   A    
C24   O8    A    
Cu2   O7    S    
C59   C61   A    
C13   C19   A    
C27   C31   A    
C14   C20   A    
C28   C32   A    
C83   H49   S    
C1    O3    A    
C4    C6    A    
C39   C40   A    
C5    C7    A    
C53   C57   A    
C15   C26   A    
C6    C8    A    
C84   H59   S    
C58   C59   A    
C5    C45   A    
Cu2   O6    S    
C51   C53   A    
C66   H23   S    
C37   C43   A    
C35   C39   A    
Cu1   Cu2   S    
C77   H34   S    
C38   C44   A    
C79   H43   S    
C3    C9    A    
C34   H3    S    
C80   H41   S    
C64   N2    A    
C36   C40   A    
C50   N4    A    
C50   C75   S    
C43   H31   S    
Cu1   O1    S    
C4    C17   A    
C72   C74   A    
C78   H46   S    
C20   C22   A    
C85   H57   S    
C86   H56   S    
C46   N2    A    
C75   C76   S    
C29   C37   A    
C82   H51   S    
C81   H53   S    
C4    C10   A    
C77   H33   S    
C47   C55   A    
C82   C83   S    
C54   C58   A    
C75   H38   S    
C16   C25   A    
C48   C56   A    
C12   C70   A    
C40   C41   A    
C51   N3    A    
C7    H21   S    
C35   C37   A    
C9    C63   A    
C47   H15   S    
C10   C64   A    
Cu1   O8    S    
C65   H24   S    
C79   C80   S    
C3    C5    A    
C7    C25   A    
C23   O5    A    
C2    O4    A    
C70   C72   A    
C11   C69   A    
C33   H4    S    
C73   N1    S    
C20   H28   S    
C84   H60   S    
C64   O11   S    
C41   H9    S    
C80   H40   S    
C12   C24   S    
C24   O6    A    
C22   H26   S    
C13   C17   A    
C45   O9    S    
C36   C38   A    
C77   H35   S    
C21   H25   S    
C29   C31   A    
C30   C32   A    
C2    O2    A    
C57   C58   A    
C62   H12   S    
C76   H36   S    
Cu2   N3    S    
C55   C61   A    
C48   C50   A    
C33   C35   A    
C56   C62   A    
C30   H8    S    
C85   H58   S    
C82   H50   S    
C72   H20   S    
C57   C60   A    
C16   C18   A    
C48   H16   S    
C13   C16   A    
C71   C73   A    
C84   C85   S    
C1    C27   S    
C14   C15   A    
C46   O10   S    
C2    C28   S    
Cu1   O4    S    
C59   H17   S    
C74   N2    S    
C15   C17   A    
C68   C81   S    
C19   C21   A    
C60   H18   S    
