data_mof_unit_25143.cif
_audit_creation_date              2012-12-10T18:02:54-0500
_audit_creation_method            fapswitch 2.2
_symmetry_space_group_name_H-M    P1
_symmetry_Int_Tables_number       1
_space_group_crystal_system       triclinic
_cell_length_a                    10.845303
_cell_length_b                    9.515843
_cell_length_c                    27.572538
_cell_angle_alpha                 90.118957
_cell_angle_beta                  90.234836
_cell_angle_gamma                 90.182414
_cell_volume                      2845.50206591

loop_
_atom_site_label
_atom_site_type_symbol
_atom_type_description
_atom_site_fract_x
_atom_site_fract_y
_atom_site_fract_z
_atom_type_partial_charge
C1    C     C_R   0.262247 0.499870 0.499960 0.980902
C2    C     C_R   0.737753 0.500130 0.500039 0.980899
C3    C     C_R   0.490254 0.442459 0.100398 -0.099512
C4    C     C_R   0.509723 0.557524 0.899603 -0.099512
C5    C     C_R   0.376969 0.433608 0.125069 -0.189118
C6    C     C_R   0.623008 0.566386 0.874932 -0.189118
C7    C     C_R   0.266260 0.434677 0.097794 0.390835
C8    C     C_R   0.733715 0.565323 0.902208 0.390833
C9    C     C_R   0.599562 0.413484 0.126076 -0.021107
C10   C     C_R   0.400414 0.586493 0.873924 -0.021108
C11   C     C_R   0.497446 0.501580 0.354356 -0.202031
C12   C     C_R   0.502550 0.498419 0.645644 -0.202032
C13   C     C_R   0.389842 0.527821 0.974117 0.102873
C14   C     C_R   0.610133 0.472156 0.025883 0.102873
C15   C     C_R   0.616901 0.514424 0.976494 -0.105226
C16   C     C_R   0.383074 0.485557 0.023506 -0.105222
C17   C     C_R   0.505649 0.531150 0.950133 0.037478
C18   C     C_R   0.494327 0.468830 0.049867 0.037479
C19   C     C_R   0.286295 0.580197 0.948833 -0.092513
C20   C     C_R   0.713679 0.419774 0.051166 -0.092510
C21   C     C_R   0.290542 0.605619 0.899270 -0.096433
C22   C     C_R   0.709433 0.394350 0.100729 -0.096430
C23   C     C_R   0.499708 0.500124 0.407481 0.941878
C24   C     C_R   0.500291 0.499876 0.592518 0.941880
C25   C     C_R   0.270325 0.450108 0.047082 0.297833
C26   C     C_R   0.729650 0.549880 0.952920 0.297834
C27   C     C_R   0.063470 0.399169 0.472225 0.343305
C28   C     C_R   0.936530 0.600831 0.527774 0.343307
C29   C     C_R   0.935159 0.399122 0.472299 0.341502
C30   C     C_R   0.064842 0.600877 0.527701 0.341501
C31   C     C_R   0.871574 0.500165 0.500009 -0.328063
C32   C     C_R   0.128426 0.499835 0.499991 -0.328060
C33   C     C_R   0.432832 0.073902 0.466504 0.053247
C34   C     C_R   0.567168 0.926098 0.533496 0.053248
C35   C     C_R   0.567414 0.074897 0.533435 0.040316
C36   C     C_R   0.432586 0.925103 0.466565 0.040315
C37   C     C_R   0.381232 0.415464 0.176078 0.624126
C38   C     C_R   0.618747 0.584536 0.823924 0.624125
C39   C     C_R   0.594650 0.400380 0.176654 0.578449
C40   C     C_R   0.405328 0.599600 0.823345 0.578449
C41   C     C_R   0.604889 0.514061 0.277381 -0.072794
C42   C     C_R   0.395103 0.485926 0.722618 -0.072788
C43   C     C_R   0.607928 0.512301 0.328365 0.272987
C44   C     C_R   0.392067 0.487690 0.671634 0.272989
C45   C     C_R   0.385072 0.517033 0.329598 0.262349
C46   C     C_R   0.614924 0.482974 0.670403 0.262345
C47   C     C_R   0.383340 0.518923 0.278599 -0.079246
C48   C     C_R   0.616653 0.481083 0.721402 -0.079251
C49   C     C_R   0.492340 0.485398 0.252231 0.072995
C50   C     C_R   0.507648 0.514597 0.747769 0.072995
Cu1   Cu    Cu3+1 0.500000 0.640660 0.500000 1.073048
Cu2   Cu    Cu3+1 0.500000 0.359340 0.500000 1.073048
H1    H     H_    0.379468 0.129464 0.439537 0.180795
H2    H     H_    0.620532 0.870536 0.560463 0.180796
H3    H     H_    0.621599 0.131311 0.560180 0.159311
H4    H     H_    0.378401 0.868689 0.439820 0.159313
H5    H     H_    0.207105 0.638671 0.880869 0.230513
H6    H     H_    0.792868 0.361295 0.119129 0.230510
H7    H     H_    0.201864 0.606894 0.967166 0.226164
H8    H     H_    0.798108 0.393075 0.032833 0.226160
N1    N     N_R   0.489605 0.438778 0.200984 -0.439127
N2    N     N_R   0.510377 0.561213 0.799016 -0.439128
N3    N     N_R   0.500000 0.852070 0.500000 -0.185761
N4    N     N_R   0.500000 0.147930 0.500000 -0.185761
O1    O     O_R   0.319640 0.618740 0.500000 -0.551434
O2    O     O_R   0.680360 0.381260 0.500000 -0.551435
O3    O     O_R   0.680360 0.618740 0.500000 -0.551356
O4    O     O_R   0.319640 0.381260 0.500000 -0.551356
O5    O     O_R   0.500020 0.618770 0.430260 -0.581957
O6    O     O_R   0.499980 0.381230 0.569740 -0.581958
O7    O     O_R   0.499980 0.618770 0.569740 -0.561831
O8    O     O_R   0.500020 0.381230 0.430260 -0.561830
O9    O     O_2   0.283646 0.360624 0.199454 -0.435582
O10   O     O_2   0.716330 0.639388 0.800549 -0.435583
O11   O     O_2   0.309612 0.658235 0.799585 -0.487117
O12   O     O_2   0.690363 0.341738 0.200415 -0.487120
Cl1   Cl    Cl    0.247477 0.545599 0.362504 -0.517555
Cl2   Cl    Cl    0.752522 0.454417 0.637498 -0.517550
C51   C     C_1   0.279390 0.586454 0.255271 0.456184
N5    N     N_1   0.196376 0.641135 0.236823 -0.143948
C52   C     C_1   0.720606 0.413562 0.744730 0.456187
N6    N     N_1   0.803624 0.358889 0.763179 -0.143948
Cl3   Cl    Cl    0.119459 0.421016 0.125548 -0.414406
Cl4   Cl    Cl    0.880515 0.579009 0.874456 -0.414414
Cl5   Cl    Cl    0.250543 0.464990 0.640311 -0.492035
Cl6   Cl    Cl    0.749455 0.534992 0.359686 -0.492031
C53   C     C_1   0.290351 0.424833 0.747388 0.451983
N7    N     N_1   0.206676 0.375424 0.767033 -0.157674
C54   C     C_1   0.709644 0.575140 0.252609 0.451987
N8    N     N_1   0.793321 0.624538 0.232963 -0.157664
Cl7   Cl    Cl    0.138995 0.390431 0.014219 -0.474665
Cl8   Cl    Cl    0.860978 0.609552 0.985786 -0.474658
Cl9   Cl    Cl    0.140600 0.275480 0.435005 -0.443095
Cl10  Cl    Cl    0.859400 0.724524 0.564993 -0.443093
Cl11  Cl    Cl    0.856205 0.274039 0.435631 -0.395499
Cl12  Cl    Cl    0.143795 0.725956 0.564371 -0.395501

loop_
_geom_bond_atom_site_label_1
_geom_bond_atom_site_label_2
_ccdc_geom_bond_type
C7    Cl3   S    
C53   N7    T    
Cu2   O6    S    
C5    C37   A    
C27   C29   A    
C8    C26   A    
C14   C18   A    
C41   C54   S    
C47   C51   S    
C33   C36   A    
C52   N6    T    
C24   O6    A    
C47   C49   A    
Cu1   O7    S    
C3    C9    A    
C28   Cl10  S    
C19   C21   A    
C9    C22   A    
C26   Cl8   S    
C9    C39   A    
C1    O4    A    
C40   N2    A    
C48   C52   S    
C3    C18   A    
C10   C40   A    
C34   C35   A    
Cu1   O1    S    
C23   O5    A    
C34   N3    A    
C30   Cl12  S    
C1    O1    A    
C6    C38   A    
C11   C43   A    
C35   N4    A    
C20   H8    S    
C36   N3    A    
Cu2   O4    S    
C48   C50   A    
C41   C43   A    
C42   C44   A    
C41   C49   A    
C45   C47   A    
C10   C21   A    
C33   H1    S    
C39   N1    A    
C46   C48   A    
C25   Cl7   S    
C49   N1    S    
C13   C19   A    
C35   H3    S    
Cu1   Cu2   S    
C14   C20   A    
Cu1   N3    S    
C4    C6    A    
C2    O3    A    
Cu2   N4    S    
C46   Cl2   S    
C15   C26   A    
C6    C8    A    
C19   H7    S    
C1    C32   S    
C2    C31   S    
C21   H5    S    
Cu2   O8    S    
Cu1   O3    S    
C39   O12   S    
C42   C50   A    
C4    C17   A    
C12   C46   A    
C20   C22   A    
C34   H2    S    
C50   N2    S    
C27   Cl9   S    
C4    C10   A    
C44   Cl5   S    
Cu2   O2    S    
C5    C7    A    
C38   O10   S    
C16   C25   A    
C15   C17   A    
C37   O9    S    
C27   C32   A    
C8    Cl4   S    
C43   Cl6   S    
C23   O8    A    
C28   C31   A    
C3    C5    A    
C22   H6    S    
C37   N1    A    
C2    O2    A    
C12   C24   S    
C7    C25   A    
C40   O11   S    
C13   C17   A    
C28   C30   A    
C29   C31   A    
C30   C32   A    
C33   N4    A    
C11   C23   S    
C36   H4    S    
C11   C45   A    
C29   Cl11  S    
C51   N5    T    
C16   C18   A    
C13   C16   A    
C14   C15   A    
C12   C44   A    
C45   Cl1   S    
C42   C53   S    
Cu1   O5    S    
C54   N8    T    
C24   O7    A    
C38   N2    A    
