data_mof_unit_41180.cif
_audit_creation_date              2013-03-05T15:42:34-0500
_audit_creation_method            fapswitch 2.2
_symmetry_space_group_name_H-M    P1
_symmetry_Int_Tables_number       1
_space_group_crystal_system       triclinic
_cell_length_a                    29.545821
_cell_length_b                    17.587674
_cell_length_c                    19.080339
_cell_angle_alpha                 90.238141
_cell_angle_beta                  139.670383
_cell_angle_gamma                 90.016031
_cell_volume                      6416.65017361

loop_
_atom_site_label
_atom_site_type_symbol
_atom_site_description
_atom_site_fract_x
_atom_site_fract_y
_atom_site_fract_z
_atom_type_partial_charge
C1    C     C_R   0.686111 0.898057 0.797537 -0.145310
C2    C     C_R   0.672846 0.082100 0.813859 -0.151056
C3    C     C_R   0.186549 0.397777 0.793635 -0.152163
C4    C     C_R   0.174263 0.583236 0.813615 -0.148855
H1    H     H_    0.735452 0.926756 0.847867 0.105300
H2    H     H_    0.718705 0.047347 0.873471 0.114201
H3    H     H_    0.235480 0.427154 0.842739 0.109863
H4    H     H_    0.220683 0.549019 0.872693 0.116178
N1    N     N_R   0.625250 0.928170 0.708660 -0.043652
N2    N     N_R   0.625250 0.071830 0.708660 -0.043251
N3    N     N_R   0.125250 0.428170 0.708660 -0.042711
N4    N     N_R   0.125250 0.571830 0.708660 -0.044584
C5    C     C_R   0.333567 0.098557 0.427662 -0.134143
C6    C     C_R   0.358757 0.924317 0.484180 0.012316
C7    C     C_R   0.833271 0.599417 0.426518 -0.118395
C8    C     C_R   0.862106 0.427030 0.489426 -0.097498
H5    H     H_    0.283671 0.070810 0.376793 0.137743
H6    H     H_    0.314679 0.956094 0.451482 0.111965
H7    H     H_    0.783259 0.571908 0.375510 0.146488
H8    H     H_    0.820675 0.461595 0.461480 0.126616
N5    N     N_R   0.386350 0.070500 0.452620 -0.051108
N6    N     N_R   0.386350 0.929500 0.452620 -0.043797
N7    N     N_R   0.886350 0.570500 0.452620 -0.041119
N8    N     N_R   0.886350 0.429500 0.452620 -0.037075
C9    C     C_R   0.441077 0.832678 0.572137 -0.153242
C10   C     C_R   0.415632 0.190892 0.516351 -0.104706
C11   C     C_R   0.940826 0.332054 0.571740 -0.094099
C12   C     C_R   0.915509 0.691361 0.515201 -0.121159
H9    H     H_    0.473245 0.783828 0.620798 0.123509
H10   H     H_    0.440982 0.245999 0.547246 0.130965
H11   H     H_    0.971755 0.281951 0.618031 0.127846
H12   H     H_    0.940938 0.746439 0.545588 0.134643
N9    N     N_R   0.437960 0.869720 0.507940 -0.044159
N10   N     N_R   0.437960 0.130280 0.507940 -0.055035
N11   N     N_R   0.937960 0.369720 0.507940 -0.051739
N12   N     N_R   0.937960 0.630280 0.507940 -0.054808
C13   C     C_R   0.591228 0.174324 0.726608 -0.029754
C14   C     C_R   0.603905 0.808208 0.710841 -0.088151
C15   C     C_R   0.091457 0.674021 0.727226 -0.039315
C16   C     C_R   0.105451 0.307054 0.705826 -0.088913
H13   H     H_    0.563424 0.225495 0.707002 0.136805
H14   H     H_    0.575757 0.755741 0.684197 0.164247
H15   H     H_    0.062078 0.723181 0.708754 0.142174
H16   H     H_    0.077331 0.254416 0.678247 0.167637
N13   N     N_R   0.573630 0.128950 0.653340 -0.053871
N14   N     N_R   0.573630 0.871050 0.653340 -0.054144
N15   N     N_R   0.073630 0.628950 0.653340 -0.053931
N16   N     N_R   0.073630 0.371050 0.653340 -0.057294
C17   C     C_R   0.674611 0.822977 0.802097 0.079759
C18   C     C_R   0.653172 0.146090 0.828272 0.070760
C19   C     C_R   0.176117 0.322312 0.796707 0.083460
C20   C     C_R   0.155100 0.647419 0.828425 0.061893
C21   C     C_R   0.351617 0.171749 0.468514 0.039483
C22   C     C_R   0.392216 0.865451 0.558261 0.025582
C23   C     C_R   0.851387 0.672812 0.466971 0.028039
C24   C     C_R   0.893760 0.366522 0.560937 0.019810
C25   C     C_R   0.663799 0.102306 0.575828 -0.154668
C26   C     C_R   0.636218 0.925684 0.514048 -0.153037
C27   C     C_R   0.160137 0.597137 0.564307 -0.137234
C28   C     C_R   0.136706 0.423973 0.514753 -0.149818
H17   H     H_    0.714027 0.075720 0.627061 0.106675
H18   H     H_    0.678944 0.960046 0.545274 0.115247
H19   H     H_    0.210048 0.570348 0.614128 0.108894
H20   H     H_    0.180999 0.455672 0.547846 0.112468
N17   N     N_R   0.609990 0.071870 0.547380 -0.043866
N18   N     N_R   0.609990 0.928130 0.547380 -0.045405
N19   N     N_R   0.109990 0.571870 0.547380 -0.043171
N20   N     N_R   0.109990 0.428130 0.547380 -0.045151
C29   C     C_R   0.311052 0.881768 0.220853 0.343664
C30   C     C_R   0.318092 0.099248 0.190177 0.322696
C31   C     C_R   0.810668 0.384294 0.220042 0.397957
C32   C     C_R   0.830955 0.583396 0.186855 0.384793
N21   N     N_R   0.371090 0.922150 0.291340 -0.103402
N22   N     N_R   0.371090 0.077850 0.291340 -0.091852
N23   N     N_R   0.871090 0.422150 0.291340 -0.083742
N24   N     N_R   0.871090 0.577850 0.291340 -0.090644
C33   C     C_R   0.555236 0.832329 0.427210 -0.093075
C34   C     C_R   0.582156 0.193022 0.490369 -0.090351
C35   C     C_R   0.054481 0.332047 0.426684 -0.087152
C36   C     C_R   0.078685 0.688810 0.476245 -0.083974
H21   H     H_    0.523833 0.782557 0.378981 0.117303
H22   H     H_    0.557715 0.248264 0.464445 0.144583
H23   H     H_    0.022248 0.282701 0.378046 0.103797
H24   H     H_    0.054841 0.744245 0.446013 0.157182
N25   N     N_R   0.558380 0.869490 0.492060 -0.045835
N26   N     N_R   0.558380 0.130510 0.492060 -0.055589
N27   N     N_R   0.058380 0.369490 0.492060 -0.046578
N28   N     N_R   0.058380 0.630510 0.492060 -0.049657
C37   C     C_R   0.407065 0.177164 0.281490 -0.115860
C38   C     C_R   0.398091 0.807182 0.301287 -0.177513
C39   C     C_R   0.913727 0.668860 0.280942 -0.189724
C40   C     C_R   0.896018 0.307179 0.300973 -0.222024
H25   H     H_    0.442862 0.220950 0.308000 0.170499
H26   H     H_    0.430786 0.757504 0.338911 0.182912
H27   H     H_    0.943730 0.718932 0.308447 0.189419
H28   H     H_    0.927281 0.256527 0.340021 0.164988
N29   N     N_R   0.422710 0.124520 0.346660 -0.077383
N30   N     N_R   0.422710 0.875480 0.346660 -0.079197
N31   N     N_R   0.922710 0.624520 0.346660 -0.077876
N32   N     N_R   0.922710 0.375480 0.346660 -0.070617
Ni1   Ni    Ni4+2 0.616550 0.000000 0.626870 0.214128
Ni2   Ni    Ni4+2 0.116550 0.500000 0.626870 0.217652
Ni3   Ni    Ni4+2 0.379790 0.000000 0.373130 0.309141
Ni4   Ni    Ni4+2 0.879790 0.500000 0.373130 0.319891
Ni5   Ni    Ni4+2 0.498170 0.870760 0.500000 0.246752
Ni6   Ni    Ni4+2 0.498170 0.129240 0.500000 0.244673
Ni7   Ni    Ni4+2 0.998170 0.370760 0.500000 0.245017
Ni8   Ni    Ni4+2 0.998170 0.629240 0.500000 0.242673
C41   C     C_R   0.645863 0.176035 0.537354 0.117875
C42   C     C_R   0.602789 0.867035 0.439099 0.098320
C43   C     C_R   0.139592 0.667075 0.515900 0.093388
C44   C     C_R   0.102273 0.365797 0.438801 0.104926
C45   C     C_R   0.326651 0.807533 0.220259 -0.014492
C46   C     C_R   0.338732 0.165280 0.180489 -0.116936
C47   C     C_R   0.824019 0.309122 0.218748 0.034005
C48   C     C_R   0.855721 0.644212 0.176558 -0.069786
C49   C     C_3   0.657042 0.196619 0.956450 -0.242628
C50   C     C_3   0.709449 0.787828 0.963220 -0.173797
C51   C     C_3   0.164711 0.684399 0.966443 -0.195449
C52   C     C_3   0.196999 0.303282 0.947430 -0.176933
H29   H     H_    0.654056 0.138899 0.976557 0.150715
H30   H     H_    0.728754 0.846571 0.997130 0.193472
H31   H     H_    0.167641 0.623832 0.986846 0.164826
H32   H     H_    0.215581 0.362923 0.977718 0.170904
C53   C     C_3   0.208481 0.732710 0.072296 -0.000111
C54   C     C_3   0.234422 0.253918 0.047261 0.005193
C55   C     C_3   0.700189 0.249461 0.058124 0.066572
C56   C     C_3   0.753242 0.732872 0.061550 0.005940
H33   H     H_    0.234968 0.862022 0.019652 0.251577
H34   H     H_    0.230998 0.113262 0.974269 0.264704
H35   H     H_    0.746207 0.361602 0.019160 0.264506
H36   H     H_    0.737141 0.600351 0.963700 0.270624
C57   C     C_3   0.729076 0.259257 0.936373 0.221715
C58   C     C_3   0.724969 0.689979 0.874992 0.170978
C59   C     C_3   0.220903 0.767172 0.930787 0.232553
C60   C     C_3   0.226038 0.194848 0.886228 0.202463
C61   C     C_3   0.269838 0.642448 0.025887 -0.616532
C62   C     C_3   0.298045 0.311223 0.984366 -0.618376
C63   C     C_3   0.761410 0.135708 0.029197 -0.581815
C64   C     C_3   0.801049 0.802842 0.977955 -0.625653
C65   C     C_3   0.697247 0.185681 0.933078 0.096312
C66   C     C_3   0.724292 0.775035 0.900176 0.106751
C67   C     C_3   0.199634 0.686479 0.933609 0.101764
C68   C     C_3   0.221114 0.281617 0.898995 0.099528
H37   H     H_    0.296146 0.635346 0.005283 0.171771
H38   H     H_    0.318030 0.304074 0.953491 0.175399
H39   H     H_    0.790794 0.119361 0.015840 0.181038
H40   H     H_    0.814102 0.798995 0.936571 0.160567
H41   H     H_    0.742821 0.080821 0.029516 0.217946
H42   H     H_    0.806439 0.864242 0.996386 0.226959
H43   H     H_    0.258194 0.583538 0.029898 0.223010
H44   H     H_    0.300041 0.373461 0.996467 0.220643
C69   C     C_3   0.280527 0.757821 0.120481 0.128096
C70   C     C_3   0.297761 0.212376 0.082874 0.165631
C71   C     C_3   0.777816 0.260113 0.118073 0.077501
C72   C     C_3   0.810416 0.694505 0.079281 0.104554
C73   C     C_3   0.262865 0.810028 0.035782 -0.593966
C74   C     C_3   0.266193 0.154321 0.991268 -0.579587
C75   C     C_3   0.770320 0.305446 0.039067 -0.571205
C76   C     C_3   0.770750 0.642665 0.978083 -0.510414
C77   C     C_3   0.320264 0.683738 0.137484 0.337138
C78   C     C_3   0.345979 0.271534 0.095601 0.321390
C79   C     C_3   0.812349 0.178279 0.140061 0.335642
C80   C     C_3   0.853925 0.757037 0.085911 0.347553
H45   H     H_    0.768256 0.239078 0.943442 0.097938
H46   H     H_    0.751527 0.689587 0.854287 0.102534
H47   H     H_    0.257214 0.757066 0.928814 0.091517
H48   H     H_    0.258527 0.190445 0.876174 0.097418
H49   H     H_    0.311334 0.833221 0.068647 0.171167
H50   H     H_    0.307034 0.117226 0.016221 0.174412
H51   H     H_    0.821470 0.322026 0.076665 0.195240
H52   H     H_    0.807575 0.607216 0.990695 0.200148
C81   C     C_R   0.633059 0.831907 0.414258 0.075381
C82   C     C_R   0.681239 0.223602 0.529861 0.076659
C83   C     C_R   0.132193 0.329270 0.414286 0.068144
C84   C     C_R   0.172659 0.704373 0.497692 0.076464
C85   C     C_R   0.313740 0.216611 0.473427 0.042014
C86   C     C_R   0.361285 0.828484 0.581147 0.038495
C87   C     C_R   0.813807 0.718759 0.471625 0.045812
C88   C     C_R   0.861194 0.329233 0.581283 0.065734
C89   C     C_R   0.307715 0.263788 0.583822 -0.220172
C90   C     C_R   0.315682 0.841165 0.644194 -0.192114
C91   C     C_R   0.809824 0.771830 0.582427 -0.217461
C92   C     C_R   0.861608 0.281121 0.699900 -0.193393
C93   C     C_R   0.346074 0.231548 0.576043 0.044727
C94   C     C_R   0.361196 0.865875 0.645954 0.021574
C95   C     C_R   0.847374 0.737100 0.574435 0.050471
C96   C     C_R   0.897676 0.313839 0.686392 0.028877
C97   C     C_R   0.243738 0.236798 0.377521 -0.030891
C98   C     C_R   0.316962 0.766074 0.515388 -0.000953
C99   C     C_R   0.743412 0.737769 0.375814 -0.022620
C100  C     C_R   0.789973 0.311374 0.490832 -0.071392
C101  C     C_R   0.203575 0.267055 0.385174 -0.017883
C102  C     C_R   0.264389 0.748608 0.501575 -0.020629
C103  C     C_R   0.703803 0.768988 0.384108 -0.021750
C104  C     C_R   0.752250 0.291704 0.505260 -0.004462
C105  C     C_R   0.738966 0.785728 0.489421 0.127668
C106  C     C_R   0.789126 0.269986 0.609703 0.115699
C107  C     C_R   0.237433 0.279779 0.490413 0.130255
C108  C     C_R   0.266621 0.784245 0.571190 0.112219
C109  C     C_R   0.703415 0.815991 0.502872 -0.262046
C110  C     C_R   0.753087 0.234605 0.620955 -0.243116
C111  C     C_R   0.201360 0.309108 0.503302 -0.265489
C112  C     C_R   0.220757 0.761298 0.568919 -0.241016
C113  C     C_R   0.595292 0.815028 0.308815 -0.124851
C114  C     C_R   0.643103 0.253676 0.428552 -0.124876
C115  C     C_R   0.095596 0.316557 0.308733 -0.128447
C116  C     C_R   0.164450 0.673606 0.420781 -0.121350
C117  C     C_R   0.630616 0.783208 0.292716 0.324781
C118  C     C_R   0.678561 0.289794 0.416600 0.313173
C119  C     C_R   0.131158 0.284709 0.293132 0.329331
C120  C     C_R   0.209828 0.696457 0.421038 0.319005
H53   H     H_    0.731010 0.827385 0.584242 0.141289
H54   H     H_    0.780821 0.213193 0.699073 0.149441
H55   H     H_    0.227847 0.317702 0.584451 0.143217
H56   H     H_    0.224930 0.784384 0.626554 0.159267
H57   H     H_    0.835776 0.785426 0.662175 0.131372
H58   H     H_    0.889778 0.265871 0.780321 0.155418
H59   H     H_    0.332757 0.274628 0.663526 0.132483
H60   H     H_    0.316626 0.868720 0.696262 0.141911
N33   N     N_3   0.223184 0.684691 0.150786 -0.153395
H61   H     H_    0.247701 0.717211 0.218541 0.225692
H62   H     H_    0.176187 0.665066 0.116977 0.154116
N34   N     N_3   0.260187 0.303593 0.134179 -0.144697
H63   H     H_    0.280661 0.270065 0.198479 0.151035
H64   H     H_    0.218794 0.334365 0.107135 0.123265
N35   N     N_3   0.703809 0.214645 0.132718 -0.139345
H65   H     H_    0.655325 0.219029 0.100499 0.139161
H66   H     H_    0.712647 0.156280 0.140397 0.151174
N36   N     N_3   0.787503 0.776832 0.158438 -0.150804
H67   H     H_    0.807036 0.740054 0.219613 0.116916
H68   H     H_    0.750360 0.810306 0.140390 0.130168
N37   N     N_3   0.664947 0.323774 0.024217 -0.151906
H69   H     H_    0.651567 0.349214 0.961434 0.184260
H70   H     H_    0.618869 0.319055 0.999023 0.145450
N38   N     N_3   0.708745 0.674701 0.043252 -0.197730
H71   H     H_    0.672350 0.650303 0.966546 0.202784
H72   H     H_    0.680638 0.698573 0.051644 0.117470
N39   N     N_3   0.168438 0.798859 0.049587 -0.154276
H73   H     H_    0.148973 0.831563 0.985817 0.193903
H74   H     H_    0.126295 0.782056 0.031191 0.145473
N40   N     N_3   0.185449 0.199367 0.021733 -0.176815
H75   H     H_    0.155497 0.169366 0.950206 0.200822
H76   H     H_    0.150893 0.226563 0.015225 0.127728
N41   N     N_R   0.679719 0.306820 0.838783 0.246864
O1    O     O_R   0.635721 0.351514 0.818306 -0.392270
O2    O     O_R   0.684457 0.309872 0.776390 -0.372080
N42   N     N_R   0.656582 0.653462 0.782413 0.240495
O3    O     O_R   0.617605 0.630496 0.788077 -0.404934
O4    O     O_R   0.638002 0.635543 0.696859 -0.354316
N43   N     N_R   0.163903 0.814132 0.835552 0.239337
O5    O     O_R   0.122104 0.851749 0.827247 -0.397315
O6    O     O_R   0.161111 0.826966 0.765169 -0.377983
N44   N     N_R   0.160034 0.155289 0.791906 0.239394
O7    O     O_R   0.114949 0.137931 0.787155 -0.405397
O8    O     O_R   0.149231 0.130369 0.715719 -0.364878
N45   N     N_R   0.340651 0.629885 0.217633 0.246143
O9    O     O_R   0.360021 0.654215 0.302035 -0.403840
O10   O     O_R   0.357550 0.560515 0.220702 -0.329686
N46   N     N_R   0.381320 0.333009 0.178537 0.240050
O11   O     O_R   0.417557 0.384336 0.187966 -0.369164
O12   O     O_R   0.383429 0.335219 0.249018 -0.388826
N47   N     N_R   0.824160 0.131175 0.217142 0.225371
O13   O     O_R   0.843844 0.162416 0.299161 -0.410384
O14   O     O_R   0.834175 0.058359 0.221726 -0.349095
N48   N     N_R   0.893882 0.812810 0.176713 0.233361
O15   O     O_R   0.862344 0.867310 0.173075 -0.374884
O16   O     O_R   0.961372 0.819545 0.248655 -0.416163
N49   N     N_3   0.384477 0.704988 0.174642 -0.232593
H77   H     H_    0.412476 0.655936 0.194763 0.166376
H78   H     H_    0.373138 0.731646 0.113816 0.081427
N50   N     N_3   0.401267 0.229459 0.123155 -0.232231
H79   H     H_    0.433530 0.268192 0.135146 0.150172
H80   H     H_    0.380571 0.196107 0.058348 0.090516
N51   N     N_3   0.879593 0.183350 0.180707 -0.214793
H81   H     H_    0.920993 0.158260 0.256677 0.159064
H82   H     H_    0.894822 0.237389 0.182877 0.078758
N52   N     N_3   0.904010 0.717579 0.098322 -0.202553
H83   H     H_    0.934194 0.757877 0.107187 0.161407
H84   H     H_    0.878195 0.688209 0.027809 0.081959
N53   N     N_3   0.521668 0.829959 0.219531 -0.209457
H85   H     H_    0.495456 0.779089 0.177128 0.148296
H86   H     H_    0.512129 0.868416 0.167827 0.163693
N54   N     N_3   0.568487 0.245565 0.337447 -0.214176
H87   H     H_    0.555289 0.213324 0.277644 0.155009
H88   H     H_    0.546576 0.299689 0.307513 0.186719
N55   N     N_3   0.022988 0.336055 0.218830 -0.201093
H89   H     H_    0.994627 0.287260 0.171555 0.150196
H90   H     H_    0.016779 0.376389 0.171955 0.173242
N56   N     N_3   0.109939 0.618800 0.343494 -0.193473
H91   H     H_    0.132782 0.567500 0.355156 0.161478
H92   H     H_    0.078452 0.638455 0.265499 0.160624
N57   N     N_R   0.092788 0.268515 0.185038 0.229842
O17   O     O_R   0.073204 0.323664 0.121295 -0.411787
O18   O     O_R   0.071168 0.199566 0.146846 -0.387268
N58   N     N_R   0.196769 0.671123 0.335243 0.229929
O19   O     O_R   0.176158 0.719469 0.263904 -0.394821
O20   O     O_R   0.201203 0.599389 0.324264 -0.400970
N59   N     N_R   0.591146 0.762440 0.185150 0.231135
O21   O     O_R   0.567002 0.814805 0.115385 -0.413929
O22   O     O_R   0.572892 0.691864 0.153631 -0.372740
N60   N     N_R   0.639484 0.329170 0.317673 0.233944
O23   O     O_R   0.644033 0.402823 0.318500 -0.364970
O24   O     O_R   0.598367 0.292017 0.226636 -0.401923
N61   N     N_3   0.417559 0.211624 0.672746 -0.212149
H93   H     H_    0.419159 0.173776 0.716724 0.111384
H94   H     H_    0.444173 0.261196 0.719022 0.114304
N62   N     N_3   0.406620 0.929590 0.711996 -0.210959
H95   H     H_    0.437950 0.917167 0.792320 0.136902
H96   H     H_    0.375672 0.976418 0.688465 0.113398
N63   N     N_3   0.919114 0.717633 0.671182 -0.211749
H97   H     H_    0.921339 0.681939 0.717437 0.117210
H98   H     H_    0.946464 0.767600 0.715651 0.119868
N64   N     N_3   0.970851 0.330182 0.778328 -0.217250
H99   H     H_    0.996489 0.279454 0.820402 0.124613
H100  H     H_    0.978161 0.367410 0.829216 0.142328
N65   N     N_3   0.215238 0.229830 0.274519 -0.155814
H101  H     H_    0.248234 0.258488 0.278739 0.118144
H102  H     H_    0.212868 0.172554 0.257450 0.179711
N66   N     N_3   0.326300 0.719407 0.465078 -0.154613
H103  H     H_    0.320826 0.752178 0.413553 0.200565
H104  H     H_    0.376372 0.695960 0.525390 0.137892
N67   N     N_3   0.713936 0.728751 0.272185 -0.160101
H105  H     H_    0.746363 0.756201 0.274300 0.109015
H106  H     H_    0.711204 0.671084 0.256158 0.159265
N68   N     N_3   0.756932 0.305541 0.384553 -0.157064
H107  H     H_    0.744284 0.360215 0.353577 0.225258
H108  H     H_    0.790410 0.279238 0.388156 0.174825
N69   N     N_R   0.260530 0.895462 0.215469 0.227913
O25   O     O_R   0.260116 0.852781 0.270394 -0.440839
O26   O     O_R   0.206415 0.937670 0.140142 -0.299145
N70   N     N_R   0.249738 0.069193 0.119078 0.226447
O27   O     O_R   0.226893 0.015744 0.050552 -0.390772
O28   O     O_R   0.218219 0.081715 0.141239 -0.377907
N71   N     N_R   0.757204 0.407746 0.205132 0.235353
O29   O     O_R   0.729776 0.358477 0.215112 -0.442256
O30   O     O_R   0.750270 0.479419 0.212308 -0.395180
N72   N     N_R   0.792160 0.521013 0.112548 0.201464
O31   O     O_R   0.818010 0.483790 0.090083 -0.451013
O32   O     O_R   0.726537 0.511842 0.051012 -0.385664
N73   N     N_3   0.583017 0.216983 0.861784 -0.219845
H109  H     H_    0.575992 0.270870 0.832586 0.161209
H110  H     H_    0.559432 0.215233 0.883356 0.098698
N74   N     N_3   0.634740 0.791339 0.893439 -0.220459
H111  H     H_    0.608460 0.740714 0.851789 0.166760
H112  H     H_    0.629220 0.804479 0.940116 0.120520
N75   N     N_3   0.089168 0.699544 0.876544 -0.222706
H113  H     H_    0.077765 0.755258 0.849683 0.163419
H114  H     H_    0.068148 0.688393 0.901250 0.103976
N76   N     N_3   0.120838 0.308897 0.867505 -0.215873
H115  H     H_    0.095286 0.257007 0.830467 0.156189
H116  H     H_    0.110233 0.329977 0.905136 0.109507

loop_
_geom_bond_atom_site_label_1
_geom_bond_atom_site_label_2
_geom_bond_distance
_ccdc_geom_bond_type
C56   N38   1.481047 S    
C115  C119  1.407886 A    
N24   Ni4   1.944876 S    
C51   C67   1.563427 S    
C52   C68   1.583669 S    
C83   C115  1.396844 A    
N18   N25   1.427959 A    
C35   N27   1.333037 A    
C51   N75   1.470325 S    
C91   C105  1.389735 A    
C111  H55   1.087755 S    
N54   H87   1.044857 S    
C70   C74   1.570544 S    
N28   Ni8   1.897117 S    
C101  C119  1.426323 A    
N14   Ni5   1.893489 S    
C81   C109  1.379773 A    
C50   N74   1.472681 S    
C73   H49   1.112989 S    
C25   C41   1.384343 A    
N51   H81   1.046124 S    
C53   C69   1.607398 S    
N50   H79   1.044471 S    
C30   N22   1.310505 A    
N40   H76   1.046010 S    
N55   H90   1.044984 S    
N68   H107  1.040093 S    
C4    N4    1.312485 A    
C18   C65   1.482265 S    
C104  C118  1.409646 A    
C92   H58   1.084243 S    
C78   N46   1.493089 S    
N1    N14   1.409019 A    
N41   O1    1.299682 A    
C114  N54   1.434255 S    
N3    N16   1.409019 A    
N4    N15   1.415866 A    
C58   N42   1.470865 S    
N42   O4    1.301823 A    
C9    H9    1.079430 S    
C11   H11   1.080744 S    
N67   H105  1.045580 S    
N10   Ni6   1.897067 S    
C12   H12   1.081559 S    
N71   O30   1.300459 A    
C11   N11   1.333236 A    
N64   H99   1.045673 S    
C101  C107  1.419981 A    
C22   C86   1.434943 S    
C69   C77   1.614000 S    
C34   H22   1.081626 S    
N35   H65   1.045795 S    
C116  C120  1.395947 A    
C17   C66   1.480972 S    
C76   H52   1.110338 S    
C5    N5    1.331343 A    
C62   C78   1.558071 S    
C110  H54   1.085165 S    
N36   H68   1.046605 S    
C54   C70   1.601173 S    
N58   O19   1.301035 A    
C92   C106  1.401441 A    
N49   H78   1.044423 S    
C13   N13   1.320527 A    
C15   N15   1.323475 A    
C16   N16   1.314572 A    
C26   C42   1.384996 A    
C64   C66   1.564170 S    
C21   C85   1.429528 S    
C15   H15   1.077836 S    
C103  C117  1.426200 A    
C51   H31   1.116205 S    
C27   H19   1.080294 S    
C28   H20   1.076539 S    
C28   N20   1.328463 A    
C84   C116  1.398516 A    
C36   N28   1.334383 A    
C61   C77   1.559075 S    
C13   C18   1.398074 A    
C117  N59   1.431777 S    
N76   H115  1.040687 S    
C48   C72   1.498493 S    
N11   Ni7   1.897069 S    
C56   C72   1.598299 S    
C102  C120  1.418419 A    
N71   O29   1.296178 A    
C86   C94   1.399901 A    
N21   Ni3   1.935621 S    
C87   C99   1.409963 A    
N7    N12   1.442439 A    
C82   C114  1.404967 A    
N8    Ni4   1.855513 S    
C46   C70   1.481977 S    
N66   H104  1.044795 S    
C58   C76   1.532602 S    
C59   C73   1.522706 S    
N12   Ni8   1.897067 S    
N17   Ni1   1.871783 S    
N4    Ni2   1.862601 S    
N31   Ni8   1.894776 S    
C29   C45   1.387588 A    
N33   H61   1.043545 S    
C30   N70   1.419399 S    
N16   Ni7   1.893489 S    
C40   H28   1.076401 S    
N38   H71   1.038017 S    
N45   O9    1.301166 A    
C50   H30   1.114816 S    
C2    C18   1.386229 A    
C27   N19   1.328875 A    
C102  C108  1.421618 A    
N61   H94   1.045338 S    
C54   N40   1.473841 S    
N44   O8    1.301668 A    
N37   H69   1.036340 S    
C60   C74   1.522960 S    
C59   C67   1.569595 S    
C33   N25   1.335990 A    
C91   H57   1.085553 S    
C93   N61   1.432563 S    
N69   O26   1.295773 A    
N18   Ni1   1.863177 S    
N26   Ni6   1.897117 S    
N62   H96   1.045724 S    
N73   H110  1.045611 S    
N21   N30   1.291280 A    
N60   O24   1.301089 A    
C55   N37   1.480428 S    
C71   C75   1.567867 S    
C43   C84   1.422882 S    
C90   C108  1.397409 A    
C72   C76   1.570887 S    
C3    N3    1.313510 A    
N70   O27   1.301042 A    
C39   C48   1.371157 A    
C74   H50   1.111505 S    
C52   N76   1.472505 S    
C71   C79   1.625345 S    
C80   N48   1.491408 S    
N6    Ni3   1.855513 S    
N67   H106  1.043272 S    
C7    C23   1.382004 A    
C8    C24   1.391392 A    
N57   O17   1.300744 A    
C120  N58   1.434593 S    
N37   H70   1.045584 S    
C114  C118  1.384974 A    
C27   C43   1.374630 A    
C108  C112  1.382400 A    
N2    N13   1.415866 A    
N27   Ni7   1.897114 S    
N39   H74   1.045711 S    
H35   C75   1.103721 S    
C119  N57   1.431828 S    
C116  N56   1.436611 S    
N48   O16   1.303718 A    
N35   H66   1.042311 S    
C10   H10   1.081443 S    
N72   O32   1.300456 A    
N63   H98   1.045576 S    
C89   C107  1.389008 A    
C24   C88   1.441475 S    
C23   C87   1.429686 S    
C70   C78   1.625017 S    
C59   N43   1.472320 S    
N46   O11   1.303071 A    
C49   N73   1.468665 S    
C53   N33   1.470917 S    
N53   H86   1.044928 S    
C16   C19   1.383460 A    
C112  H56   1.085795 S    
C5    H5    1.080538 S    
C6    N6    1.335854 A    
C63   C79   1.559657 S    
C62   C68   1.561480 S    
C63   C65   1.563086 S    
C62   H38   1.114115 S    
C34   C41   1.365894 A    
C13   H13   1.076759 S    
C99   C103  1.406428 A    
C14   N14   1.318997 A    
C39   H27   1.059806 S    
C97   C101  1.405911 A    
C16   H16   1.073862 S    
N74   H111  1.039299 S    
N50   H80   1.043057 S    
N15   Ni8   1.893558 S    
N20   N27   1.427959 A    
C59   H47   1.116074 S    
N52   H83   1.046372 S    
N68   H108  1.045897 S    
C39   N31   1.323539 A    
C9    N9    1.329656 A    
C103  C105  1.419786 A    
C26   H18   1.078709 S    
C55   N35   1.478948 S    
C84   C112  1.382794 A    
N39   H73   1.039783 S    
C36   H24   1.079389 S    
N34   H63   1.045716 S    
N17   N26   1.434896 A    
C14   C17   1.383271 A    
C79   N51   1.485529 S    
N62   H95   1.045637 S    
C7    H7    1.080628 S    
N19   N28   1.434896 A    
C75   H51   1.108447 S    
C35   C44   1.378518 A    
C1    H1    1.078568 S    
C100  C104  1.380609 A    
C61   H37   1.113513 S    
N20   Ni2   1.863177 S    
C3    H3    1.079446 S    
C115  N55   1.434188 S    
C86   C98   1.405910 A    
C52   C54   1.551697 S    
C87   C95   1.401437 A    
N64   H100  1.045473 S    
C82   C110  1.391498 A    
C85   C93   1.399613 A    
N56   H91   1.045049 S    
C90   C94   1.388910 A    
N65   H102  1.043168 S    
C96   N64   1.430782 S    
C88   C96   1.402158 A    
C97   N65   1.435722 S    
C89   H59   1.085587 S    
C58   H46   1.115535 S    
C29   N21   1.346770 A    
C32   N24   1.336950 A    
C47   C71   1.511268 S    
N58   O20   1.300958 A    
N49   H77   1.046396 S    
C107  C111  1.364339 A    
C38   H26   1.077162 S    
C5    C21   1.380778 A    
C20   C67   1.480823 S    
C1    N1    1.322293 A    
C9    C22   1.380356 A    
C104  C106  1.414365 A    
C55   C71   1.613050 S    
N75   H113  1.037986 S    
C3    C19   1.374056 A    
C11   C24   1.381376 A    
N5    N10   1.442439 A    
C77   N49   1.479299 S    
C19   C68   1.464561 S    
C63   H41   1.112854 S    
C32   N72   1.427022 S    
C57   C75   1.526422 S    
C49   C65   1.566563 S    
N59   O21   1.300700 A    
N44   O7    1.300487 A    
C91   C95   1.372868 A    
C58   C66   1.574111 S    
N55   H89   1.045484 S    
C33   H21   1.079366 S    
C78   N50   1.478830 S    
N40   H75   1.037519 S    
N43   O5    1.300379 A    
N9    Ni5   1.897069 S    
N76   H116  1.045003 S    
C49   C55   1.570370 S    
C109  H53   1.087524 S    
N29   Ni6   1.894776 S    
C51   C53   1.573657 S    
N41   O2    1.301679 A    
N23   Ni4   1.935621 S    
C99   N67   1.437042 S    
C64   C80   1.562265 S    
N42   O3    1.300334 A    
C37   C46   1.377662 A    
C41   C82   1.428663 S    
N2    Ni1   1.862601 S    
C25   N17   1.337943 A    
C32   C48   1.392321 A    
C57   C65   1.572041 S    
H34   C74   1.091507 S    
C62   H44   1.109991 S    
C83   C111  1.378453 A    
C60   C68   1.568584 S    
C35   H23   1.080168 S    
C36   C43   1.372516 A    
N54   H88   1.045262 S    
N38   H72   1.045921 S    
N3    Ni2   1.871477 S    
C69   C73   1.566519 S    
N36   H67   1.045626 S    
C40   C47   1.378341 A    
C12   N12   1.323825 A    
N33   H62   1.046676 S    
N61   H93   1.045760 S    
C81   C113  1.397494 A    
N63   H97   1.045703 S    
C90   H60   1.084602 S    
N69   O25   1.299225 A    
C6    H6    1.078028 S    
C4    H4    1.078334 S    
C64   H40   1.113862 S    
H33   C73   1.107393 S    
N73   H109  1.039168 S    
C30   C46   1.388560 A    
N24   N31   1.285146 A    
C63   H39   1.112758 S    
H36   C76   1.094350 S    
N30   Ni5   1.895896 S    
C4    C20   1.384311 A    
C60   N44   1.470975 S    
N51   H82   1.038513 S    
N70   O28   1.301639 A    
C14   H14   1.073627 S    
C57   H45   1.116603 S    
C54   N34   1.468305 S    
N43   O6    1.301850 A    
C38   C45   1.367528 A    
C25   H17   1.081175 S    
C49   H29   1.113694 S    
C10   N10   1.325797 A    
N7    Ni4   1.846996 S    
C105  C109  1.364774 A    
C53   N39   1.471181 S    
C8    H8    1.077159 S    
C34   N26   1.318231 A    
C7    N7    1.333372 A    
C15   C20   1.398333 A    
C61   C67   1.564019 S    
C8    N8    1.332430 A    
C37   H25   1.071509 S    
C80   N52   1.481617 S    
C2    H2    1.076895 S    
C50   C56   1.562991 S    
N25   Ni5   1.897114 S    
C12   C23   1.371707 A    
C26   N18   1.325934 A    
N22   N29   1.285146 A    
N8    N11   1.449440 A    
C85   C97   1.409847 A    
N46   O12   1.298331 A    
C88   C100  1.401158 A    
C89   C93   1.372656 A    
C98   N66   1.438249 S    
C60   H48   1.115769 S    
N53   H85   1.045507 S    
C92   C96   1.397423 A    
C37   N29   1.323110 A    
N45   O10   1.302926 A    
C95   N63   1.434436 S    
C106  C110  1.384340 A    
C28   C44   1.386111 A    
C100  N68   1.433745 S    
N75   H114  1.045676 S    
C113  C117  1.408724 A    
C31   N71   1.436135 S    
C31   C47   1.385289 A    
N59   O22   1.300838 A    
C6    C22   1.389011 A    
N74   H112  1.045441 S    
N52   H84   1.043124 S    
C79   N47   1.482863 S    
C2    N2    1.316189 A    
C10   C21   1.374331 A    
C64   H42   1.107478 S    
N13   Ni6   1.893558 S    
C40   N32   1.329452 A    
C42   C81   1.431908 S    
C77   N45   1.485410 S    
N6    N9    1.449440 A    
N60   O23   1.301094 A    
N32   Ni7   1.895896 S    
C56   N36   1.474624 S    
C113  N53   1.434218 S    
C118  N60   1.436689 S    
C45   C69   1.508600 S    
C50   C66   1.578611 S    
N34   H64   1.046593 S    
C94   N62   1.433084 S    
C29   N69   1.436434 S    
N66   H103  1.042704 S    
N47   O13   1.301616 A    
N57   O18   1.300810 A    
N47   O14   1.302683 A    
C31   N23   1.330399 A    
N23   N32   1.291280 A    
N56   H92   1.045579 S    
N65   H101  1.044343 S    
N48   O15   1.301666 A    
C98   C102  1.396974 A    
N5    Ni3   1.846996 S    
C44   C83   1.428721 S    
C72   C80   1.621169 S    
N1    Ni1   1.871477 S    
N72   O31   1.301065 A    
C57   N41   1.472122 S    
C61   H43   1.112786 S    
C1    C17   1.382917 A    
C33   C42   1.382202 A    
C38   N30   1.323713 A    
C52   H32   1.116501 S    
N19   Ni2   1.871783 S    
N22   Ni3   1.944876 S    
