data_mof_unit_47838.cif
_audit_creation_date              2012-10-26T18:53:20-0400
_audit_creation_method            fapswitch 2.2
_symmetry_space_group_name_H-M    P1
_symmetry_Int_Tables_number       1
_space_group_crystal_system       triclinic
_cell_length_a                    14.710403
_cell_length_b                    14.715345
_cell_length_c                    15.873482
_cell_angle_alpha                 76.976389
_cell_angle_beta                  102.696496
_cell_angle_gamma                 114.799342
_cell_volume                      3008.37035586

loop_
_atom_site_label
_atom_site_type_symbol
_atom_type_description
_atom_site_fract_x
_atom_site_fract_y
_atom_site_fract_z
_atom_type_partial_charge
C1    C     C_R   0.880334 0.312325 0.514964 0.544361
C2    C     C_R   0.187310 0.794884 0.484013 -0.002819
C3    C     C_R   0.784047 0.027074 0.555037 -0.134191
C4    C     C_R   0.999669 0.500039 0.659648 0.551122
C5    C     C_R   0.850448 0.128334 0.546420 -0.137636
C6    C     C_R   0.708334 0.178907 0.516445 -0.136021
C7    C     C_R   0.639936 0.077458 0.527620 0.031297
C8    C     C_R   0.679328 0.001129 0.544777 0.050805
C9    C     C_R   0.533626 0.050012 0.519622 0.031973
C10   C     C_R   0.467499 0.946435 0.519690 0.031968
C11   C     C_R   0.510119 0.872568 0.537913 -0.138718
C12   C     C_3   0.044928 0.423994 0.073265 0.271736
C13   C     C_R   0.613985 0.899697 0.551025 -0.133673
C14   C     C_R   0.491421 0.122353 0.513282 -0.136992
C15   C     C_R   0.387616 0.095086 0.502135 -0.131702
C16   C     C_R   0.119645 0.687654 0.486142 0.543717
C17   C     C_R   0.321870 0.995271 0.495910 0.049976
C18   C     C_R   0.360935 0.920073 0.503581 0.032426
C19   C     C_R   0.217023 0.969682 0.482677 -0.132604
C20   C     C_R   0.150060 0.869830 0.477596 -0.138067
C21   C     C_R   0.291677 0.821017 0.494052 -0.131233
C22   C     C_R   0.717877 0.671739 0.358851 -0.156928
C23   C     C_3   0.000988 0.499752 0.083015 0.080352
C24   C     C_R   0.798465 0.640846 0.380342 0.042385
C25   C     C_R   0.713940 0.507980 0.487059 0.037863
C26   C     C_R   0.628760 0.535122 0.467902 0.003551
C27   C     C_R   0.633195 0.619726 0.402699 0.039655
C28   C     C_R   0.000340 0.499969 0.340352 0.551011
C29   C     C_R   0.540742 0.482730 0.511243 0.024083
C30   C     C_R   0.459354 0.517287 0.489036 0.024344
C31   C     C_R   0.468941 0.603181 0.424611 -0.134006
C32   C     C_R   0.553784 0.652660 0.382169 -0.121938
C33   C     C_R   0.531209 0.396924 0.575761 -0.144382
C34   C     C_3   0.065189 0.607055 0.039628 -0.198027
C35   C     C_R   0.446257 0.347306 0.618061 -0.133167
C36   C     C_R   0.366807 0.380197 0.597463 0.039528
C37   C     C_R   0.371289 0.464842 0.532298 0.005717
C38   C     C_R   0.282075 0.328168 0.641248 -0.158698
C39   C     C_R   0.201519 0.359127 0.619759 0.043052
C40   C     C_3   0.044612 0.424700 0.975314 -0.159314
C41   C     C_R   0.286077 0.491945 0.513040 0.043341
C42   C     C_3   0.890660 0.468084 0.936132 -0.238994
C43   C     C_3   0.891415 0.468039 0.033923 -0.276468
C44   C     C_1   0.001033 0.499798 0.250819 -0.015454
C45   C     C_3   0.064717 0.607079 0.941909 -0.220217
C46   C     C_3   0.999696 0.500015 0.917135 0.024962
C47   C     C_1   0.001191 0.499747 0.175275 -0.025593
C48   C     C_1   0.999071 0.500183 0.824790 -0.074712
C49   C     C_1   0.999028 0.500201 0.749192 -0.031750
C50   C     C_R   0.812690 0.204765 0.526130 -0.003450
Cu1   Cu    Cu3+1 0.081750 0.475690 0.522550 0.943337
Cu2   Cu    Cu3+1 0.918250 0.524310 0.477450 0.931716
F1    F     F_    0.142732 0.448709 0.117299 -0.642101
H1    H     H_    0.998088 0.346301 0.102622 0.118793
H2    H     H_    0.681925 0.239547 0.497594 0.121628
H3    H     H_    0.999194 0.347091 0.958631 0.073971
H4    H     H_    0.465538 0.792353 0.545168 0.105537
H5    H     H_    0.536560 0.200692 0.519436 0.101617
H6    H     H_    0.186860 0.026786 0.477426 0.109827
H7    H     H_    0.557478 0.718032 0.332900 0.113672
H8    H     H_    0.281464 0.553242 0.462897 0.120565
H9    H     H_    0.135547 0.318335 0.652785 0.123981
H10   H     H_    0.442535 0.281893 0.667289 0.108924
H11   H     H_    0.722109 0.736488 0.308751 0.092895
H12   H     H_    0.123037 0.446162 0.962612 0.168472
H13   H     H_    0.864416 0.681643 0.347291 0.125209
H14   H     H_    0.718536 0.446628 0.537146 0.116793
H15   H     H_    0.856696 0.521157 0.895073 0.131411
H16   H     H_    0.412046 0.634722 0.405339 0.096786
H17   H     H_    0.588253 0.365588 0.595239 0.088206
H18   H     H_    0.277800 0.263389 0.691325 0.091046
H19   H     H_    0.842408 0.391137 0.919044 0.120438
H20   H     H_    0.843340 0.391114 0.063697 0.108588
H21   H     H_    0.857888 0.521169 0.039753 0.128797
H22   H     H_    0.143686 0.631609 0.929183 0.131093
H23   H     H_    0.034231 0.662318 0.045354 0.098674
H24   H     H_    0.034125 0.662786 0.900846 0.118259
H25   H     H_    0.144405 0.632384 0.073674 0.172627
H26   H     H_    0.643306 0.840634 0.565033 0.112317
H27   H     H_    0.316942 0.762424 0.493373 0.115476
H28   H     H_    0.069496 0.851165 0.469757 0.127955
H29   H     H_    0.358628 0.152892 0.497962 0.119006
H30   H     H_    0.814527 0.968920 0.569147 0.105644
H31   H     H_    0.930967 0.146703 0.554408 0.127329
N1    N     N_R   0.795410 0.560790 0.443550 -0.232113
N2    N     N_R   0.204590 0.439170 0.556520 -0.232498
O1    O     O_R   0.977910 0.338120 0.529720 -0.506850
O2    O     O_R   0.839850 0.379180 0.491640 -0.511753
O3    O     O_R   0.069060 0.479460 0.639610 -0.495159
O4    O     O_R   0.931000 0.520530 0.601530 -0.498261
O5    O     O_R   0.160150 0.620820 0.508360 -0.512297
O6    O     O_R   0.022090 0.661880 0.470280 -0.507969
O7    O     O_R   0.069000 0.479470 0.398470 -0.484681
O8    O     O_R   0.930940 0.520540 0.360390 -0.499377

loop_
_geom_bond_atom_site_label_1
_geom_bond_atom_site_label_2
_ccdc_geom_bond_type
C43   H20   S    
C13   H26   S    
C1    O1    A    
C8    C13   A    
C18   C21   A    
Cu2   O4    S    
C19   C20   A    
C25   H14   S    
C41   H8    S    
C6    H2    S    
C7    C8    A    
C45   C46   S    
C40   C46   S    
C41   N2    A    
C12   C23   S    
C26   C27   A    
C36   C37   A    
C10   C18   A    
C30   C31   A    
C33   C35   A    
C29   C33   A    
C23   C43   S    
C28   O8    A    
C42   C46   S    
Cu1   O5    S    
C35   C36   A    
C40   H3    S    
Cu2   O8    S    
C2    C16   S    
C1    C50   S    
C34   H25   S    
C12   F1    S    
C44   C47   T    
C24   H13   S    
C43   H21   S    
C20   H28   S    
C42   H15   S    
Cu1   N2    S    
C42   H19   S    
C15   H29   S    
C4    O4    A    
C14   H5    S    
C46   C48   S    
C23   C47   S    
C2    C20   A    
Cu1   Cu2   S    
Cu2   O2    S    
C3    C8    A    
Cu1   O1    S    
C5    H31   S    
C24   N1    A    
C19   H6    S    
C25   C26   A    
C28   C44   S    
C30   C37   A    
C28   O7    A    
C12   C40   S    
C9    C14   A    
C29   C30   A    
C31   C32   A    
C23   C34   S    
C2    C21   A    
C25   N1    A    
C17   C18   A    
C34   C45   S    
C6    C50   A    
C33   H17   S    
Cu1   O7    S    
C48   C49   T    
C16   O6    A    
C22   C27   A    
C3    H30   S    
C22   C24   A    
C5    C50   A    
Cu2   O6    S    
C42   C43   S    
C32   H7    S    
C4    O3    A    
C9    C10   A    
C15   C17   A    
C39   H9    S    
C38   H18   S    
Cu2   N1    S    
C27   C32   A    
C3    C5    A    
C45   H24   S    
C6    C7    A    
C4    C49   S    
C45   H22   S    
C36   C38   A    
Cu1   O3    S    
C11   C13   A    
C38   C39   A    
C1    O2    A    
C21   H27   S    
C17   C19   A    
C37   C41   A    
C40   H12   S    
C10   C11   A    
C22   H11   S    
C7    C9    A    
C16   O5    A    
C31   H16   S    
C26   C29   A    
C14   C15   A    
C35   H10   S    
C39   N2    A    
C11   H4    S    
C12   H1    S    
C34   H23   S    
