data_mof_unit_10638.cif
_audit_creation_date              2013-03-05T15:53:31-0500
_audit_creation_method            fapswitch 2.2
_symmetry_space_group_name_H-M    P1
_symmetry_Int_Tables_number       1
_space_group_crystal_system       triclinic
_cell_length_a                    30.988346
_cell_length_b                    7.277923
_cell_length_c                    25.542045
_cell_angle_alpha                 91.84816
_cell_angle_beta                  112.290427
_cell_angle_gamma                 91.53226
_cell_volume                      5322.5468766

loop_
_atom_site_label
_atom_site_type_symbol
_atom_site_description
_atom_site_fract_x
_atom_site_fract_y
_atom_site_fract_z
_atom_type_partial_charge
O1    O     O_R   0.295360 0.592990 0.320420 -0.547302
O2    O     O_R   0.704640 0.407010 0.679580 -0.538801
O3    O     O_R   0.204640 0.092990 0.179580 -0.575256
O4    O     O_R   0.795360 0.907010 0.820420 -0.571208
O5    O     O_R   0.294060 0.265620 0.213230 -0.528778
O6    O     O_R   0.705940 0.734380 0.786770 -0.562814
O7    O     O_R   0.205940 0.765620 0.286770 -0.523959
O8    O     O_R   0.794060 0.234380 0.713230 -0.529564
C1    C     C_R   0.305300 0.431367 0.201093 1.108139
C2    C     C_R   0.695935 0.567701 0.800612 1.152387
C3    C     C_R   0.195806 0.931082 0.301077 1.081219
C4    C     C_R   0.804292 0.069262 0.698991 1.136951
O9    O     O_R   0.300850 0.263360 0.322080 -0.538653
O10   O     O_R   0.699150 0.736640 0.677920 -0.568790
O11   O     O_R   0.199150 0.763360 0.177920 -0.537928
O12   O     O_R   0.800850 0.236640 0.822080 -0.533627
O13   O     O_R   0.211480 0.091820 0.289210 -0.547194
O14   O     O_R   0.788520 0.908180 0.710790 -0.552733
O15   O     O_R   0.288520 0.591820 0.210790 -0.615326
O16   O     O_R   0.711480 0.408180 0.789210 -0.537119
C5    C     C_R   0.314262 0.437556 0.343466 1.075909
C6    C     C_R   0.686087 0.563049 0.656371 1.087973
C7    C     C_R   0.185256 0.928197 0.156877 0.938681
C8    C     C_R   0.813797 0.073242 0.843932 1.051691
O17   O     O_3   0.220670 0.426670 0.239090 -0.237614
O18   O     O_3   0.779330 0.573330 0.760910 -0.273081
O19   O     O_3   0.279330 0.926670 0.260910 -0.275924
O20   O     O_3   0.720670 0.073330 0.739090 -0.269295
V1    V     V_3+5 0.255440 0.152290 0.252020 1.360859
V2    V     V_3+5 0.744560 0.847710 0.747980 1.356807
V3    V     V_3+5 0.244560 0.652290 0.247980 1.381244
V4    V     V_3+5 0.755440 0.347710 0.752020 1.417368
C9    C     C_R   0.852411 0.078813 0.901349 -0.360313
C10   C     C_R   0.147274 0.928201 0.098920 -0.302590
C11   C     C_R   0.648337 0.538574 0.598184 -0.405477
C12   C     C_R   0.351402 0.466657 0.402119 -0.365771
C13   C     C_R   0.876629 0.106856 0.003503 0.257602
C14   C     C_R   0.125910 0.952687 0.997299 0.348574
C15   C     C_R   0.619117 0.429640 0.498116 0.294789
C16   C     C_R   0.374717 0.542094 0.503161 0.354696
C17   C     C_R   0.846844 0.159259 0.949415 0.376277
C18   C     C_R   0.158453 0.906554 0.050660 0.328859
C19   C     C_R   0.656344 0.450041 0.552398 0.360089
C20   C     C_R   0.339404 0.522765 0.448297 0.247896
C21   C     C_R   0.896270 0.008860 0.908795 -0.088136
C22   C     C_R   0.100429 0.958690 0.091334 -0.143658
C23   C     C_R   0.602493 0.586099 0.590131 -0.078794
C24   C     C_R   0.399305 0.470795 0.410648 -0.125616
C25   C     C_R   0.933642 0.022385 0.962708 0.119535
C26   C     C_R   0.064124 0.954240 0.036299 0.129319
C27   C     C_R   0.565639 0.577771 0.535842 0.127240
C28   C     C_R   0.434478 0.543319 0.462212 0.108061
C29   C     C_R   0.921350 0.043370 0.010382 -0.105801
C30   C     C_R   0.078037 0.962524 0.989417 -0.145894
C31   C     C_R   0.576362 0.514439 0.489372 -0.156468
C32   C     C_R   0.421666 0.573261 0.509198 -0.149177
C33   C     C_R   0.981984 0.003999 0.971309 -0.099415
C34   C     C_R   0.014914 0.959486 0.026297 -0.092390
C35   C     C_R   0.517478 0.614224 0.525670 -0.093123
C36   C     C_R   0.482552 0.575992 0.469841 -0.126348
C37   C     C_R   0.996651 0.926860 0.068706 0.449943
C38   C     C_R   0.999271 0.037417 0.928240 0.403863
C39   C     C_R   0.497913 0.579889 0.424365 0.497169
C40   C     C_R   0.501581 0.683465 0.567498 0.411233
C41   C     C_R   0.953265 0.992297 0.062840 -0.155366
C42   C     C_R   0.044266 0.991042 0.935728 -0.160397
C43   C     C_R   0.543983 0.540431 0.434460 -0.104047
C44   C     C_R   0.454925 0.651185 0.559994 -0.142742
H1    H     H_    0.943577 0.987487 0.099141 0.218733
H2    H     H_    0.053424 0.995602 0.899045 0.246115
H3    H     H_    0.554980 0.537414 0.398990 0.196236
H4    H     H_    0.443909 0.702305 0.592995 0.238930
H5    H     H_    0.092809 0.985742 0.128582 0.173975
H6    H     H_    0.901344 0.949178 0.872493 0.178421
H7    H     H_    0.408625 0.427824 0.375921 0.220355
H8    H     H_    0.596275 0.621719 0.627587 0.207739
C45   C     C_R   0.069357 0.844477 0.453003 0.658377
C46   C     C_R   0.927792 0.168161 0.542848 0.676138
C47   C     C_R   0.413787 0.446574 0.027528 0.649260
C48   C     C_R   0.595289 0.477415 0.983747 0.667324
N1    N     N_R   0.061008 0.958431 0.408982 -0.175470
N2    N     N_R   0.937610 0.059711 0.588340 -0.177028
N3    N     N_R   0.433260 0.474215 0.085335 -0.166261
N4    N     N_R   0.575759 0.509904 0.927233 -0.175653
C49   C     C_R   0.027902 0.087662 0.397985 0.644957
C50   C     C_R   0.971961 0.935600 0.600518 0.656332
C51   C     C_R   0.480699 0.497792 0.112636 0.609291
C52   C     C_R   0.528496 0.521843 0.900405 0.587150
C53   C     C_R   0.002253 0.111529 0.433316 -0.202545
C54   C     C_R   0.996156 0.906412 0.563816 -0.205035
C55   C     C_R   0.510513 0.484870 0.082055 -0.234399
C56   C     C_R   0.498590 0.497098 0.930363 -0.230343
C57   C     C_R   0.011295 0.997190 0.479971 0.028410
C58   C     C_R   0.987172 0.020786 0.517210 0.009890
C59   C     C_R   0.490211 0.480439 0.022144 -0.016342
C60   C     C_R   0.518941 0.486796 0.990039 -0.017233
C61   C     C_R   0.044619 0.859723 0.489526 -0.207881
C62   C     C_R   0.953797 0.157971 0.507657 -0.209686
C63   C     C_R   0.441107 0.468825 0.994369 -0.231336
C64   C     C_R   0.568023 0.481999 0.017532 -0.246974
C65   C     C_R   0.969374 0.250570 0.424797 0.269842
C66   C     C_R   0.028384 0.765240 0.571835 0.282396
C67   C     C_R   0.559734 0.481000 0.109415 0.251160
C68   C     C_R   0.449267 0.488404 0.902839 0.247346
C69   C     C_R   0.945958 0.275139 0.461926 0.257191
C70   C     C_R   0.052538 0.743119 0.535450 0.245580
C71   C     C_R   0.588160 0.478754 0.077488 0.248405
C72   C     C_R   0.420829 0.474492 0.934502 0.246203
O21   O     O_2   0.102683 0.720643 0.462163 -0.410188
O22   O     O_2   0.891561 0.279654 0.530555 -0.414853
O23   O     O_2   0.368243 0.394126 0.002418 -0.425527
O24   O     O_2   0.640900 0.439841 0.006755 -0.405462
O25   O     O_2   0.020901 0.194883 0.353662 -0.442746
O26   O     O_2   0.981983 0.839875 0.647730 -0.427632
O27   O     O_2   0.498735 0.537178 0.168936 -0.459903
O28   O     O_2   0.510833 0.560872 0.845188 -0.438648
C73   C     C_R   0.908985 0.197547 0.658035 -0.098088
C74   C     C_R   0.090148 0.812693 0.340875 -0.064554
C75   C     C_R   0.600701 0.402237 0.851055 -0.086344
C76   C     C_R   0.411709 0.349432 0.161781 -0.150013
H9    H     H_    0.936343 0.303603 0.667255 0.224585
H10   H     H_    0.062706 0.707310 0.332207 0.212217
H11   H     H_    0.574337 0.291772 0.841246 0.208700
H12   H     H_    0.441701 0.264187 0.172704 0.210387
C77   C     C_R   0.876558 0.205075 0.684446 0.501209
C78   C     C_R   0.123013 0.799754 0.315243 0.400245
C79   C     C_R   0.626994 0.421778 0.817229 0.478069
C80   C     C_R   0.381393 0.334898 0.191074 0.547235
C81   C     C_R   0.838594 0.069054 0.669435 -0.528215
C82   C     C_R   0.161231 0.933985 0.330103 -0.506877
C83   C     C_R   0.663933 0.558595 0.832348 -0.510781
C84   C     C_R   0.339485 0.434513 0.172367 -0.537662
C85   C     C_R   0.833884 0.938558 0.624117 0.377245
C86   C     C_R   0.165670 0.069092 0.374115 0.405673
C87   C     C_R   0.669580 0.686461 0.878410 0.380742
C88   C     C_R   0.325899 0.505192 0.118021 0.330734
C89   C     C_R   0.870121 0.924503 0.603410 0.249553
C90   C     C_R   0.128575 0.091033 0.392934 0.243378
C91   C     C_R   0.637723 0.679612 0.906180 0.262807
C92   C     C_R   0.361743 0.569006 0.100982 0.258481
C93   C     C_R   0.906518 0.057181 0.618704 -0.089941
C94   C     C_R   0.092198 0.957846 0.378690 -0.081497
C95   C     C_R   0.605539 0.529241 0.895326 -0.081773
C96   C     C_R   0.403304 0.470919 0.117660 -0.043474
S1    S     S_3+6 0.779168 0.839172 0.577735 0.096494
O29   O     O_2   0.761473 0.956033 0.527080 -0.199071
O30   O     O_2   0.785993 0.650851 0.557436 -0.166985
O31   O     O_3   0.738596 0.824103 0.605783 -0.488355
H13   H     H_    0.709015 0.795510 0.573007 0.375824
S2    S     S_3+6 0.221279 0.151907 0.423350 0.111386
O32   O     O_2   0.217832 0.332964 0.450989 -0.128924
O33   O     O_2   0.237565 0.015118 0.468837 -0.166159
O34   O     O_3   0.261341 0.175907 0.394854 -0.496666
H14   H     H_    0.291174 0.196600 0.427771 0.363757
S3    S     S_3+6 0.717588 0.849572 0.904605 0.061986
O35   O     O_2   0.706458 0.013651 0.868464 -0.199119
O36   O     O_2   0.727011 0.910952 0.964839 -0.164932
O37   O     O_3   0.765856 0.756654 0.902427 -0.519430
H15   H     H_    0.792141 0.820546 0.933699 0.362027
S4    S     S_3+6 0.283444 0.359371 0.065615 0.123472
O38   O     O_2   0.263318 0.451053 0.010207 -0.132947
O39   O     O_2   0.307229 0.191032 0.056542 -0.142352
O40   O     O_3   0.240808 0.291998 0.087307 -0.484291
H16   H     H_    0.211817 0.283074 0.052867 0.403418
N5    N     N_R   0.868477 0.781250 0.562902 0.276252
O41   O     O_R   0.858020 0.817224 0.510033 -0.260189
O42   O     O_R   0.881786 0.618420 0.580114 -0.255816
N6    N     N_R   0.129281 0.243612 0.430126 0.275865
O43   O     O_R   0.124433 0.408773 0.411317 -0.253356
O44   O     O_R   0.132568 0.217677 0.481644 -0.274502
N7    N     N_R   0.634910 0.833860 0.941055 0.264394
O45   O     O_R   0.623777 0.992805 0.918913 -0.328013
O46   O     O_R   0.647509 0.821406 0.995463 -0.261623
N8    N     N_R   0.354495 0.718989 0.063486 0.276074
O47   O     O_R   0.390072 0.814096 0.061781 -0.357656
O48   O     O_R   0.312972 0.779090 0.037526 -0.183939
S5    S     S_3+6 0.209060 0.788515 0.056553 0.074564
O49   O     O_2   0.209428 0.619285 0.088517 -0.307876
O50   O     O_2   0.208522 0.729170 0.999511 -0.096675
O51   O     O_3   0.257242 0.920690 0.092460 -0.417609
H17   H     H_    0.270561 0.871283 0.130740 0.355970
S6    S     S_3+6 0.814913 0.362094 0.943220 0.048519
O52   O     O_2   0.827510 0.488703 0.905417 -0.265144
O53   O     O_2   0.763470 0.314762 0.917790 -0.222272
O54   O     O_3   0.828443 0.474968 0.006311 -0.466564
H18   H     H_    0.801986 0.555122 0.001431 0.414186
S7    S     S_3+6 0.287358 0.643601 0.434457 0.087843
O55   O     O_2   0.246323 0.550967 0.387642 -0.194521
O56   O     O_2   0.275225 0.672885 0.485583 -0.104117
O57   O     O_3   0.297810 0.848561 0.412708 -0.493644
H19   H     H_    0.327921 0.895376 0.441969 0.334641
S8    S     S_3+6 0.710976 0.348989 0.564560 0.063751
O58   O     O_2   0.750472 0.441633 0.613361 -0.254392
O59   O     O_2   0.705850 0.153709 0.578642 -0.246722
O60   O     O_3   0.724745 0.353936 0.506949 -0.370446
H20   H     H_    0.756760 0.308461 0.519293 0.419280
S9    S     S_3+6 0.855859 0.101794 0.059762 0.102151
O61   O     O_2   0.805469 0.149446 0.040290 -0.104977
O62   O     O_2   0.860202 0.910739 0.081381 -0.211893
O63   O     O_3   0.888306 0.249225 0.113194 -0.406474
H21   H     H_    0.898952 0.349397 0.095043 0.378325
S10   S     S_3+6 0.145809 0.025405 0.943536 0.064619
O64   O     O_2   0.133229 0.876672 0.897386 -0.179878
O65   O     O_2   0.122323 0.198445 0.919042 -0.248871
O66   O     O_3   0.203743 0.071321 0.968669 -0.403762
H22   H     H_    0.210524 0.106186 0.935320 0.426683
S11   S     S_3+6 0.622068 0.277095 0.442758 0.107283
O67   O     O_2   0.648637 0.109674 0.466649 -0.134578
O68   O     O_2   0.574179 0.210504 0.402711 -0.218465
O69   O     O_3   0.648771 0.388249 0.405910 -0.364163
H23   H     H_    0.633064 0.506432 0.396764 0.354863
S12   S     S_3+6 0.360860 0.507517 0.563752 0.072524
O70   O     O_2   0.400049 0.414446 0.607952 -0.210504
O71   O     O_2   0.353878 0.690331 0.587864 -0.181096
O72   O     O_3   0.312048 0.372589 0.545863 -0.428094
H24   H     H_    0.305298 0.368851 0.580745 0.424512
S13   S     S_3+6 0.018494 0.765370 0.121706 0.008192
O73   O     O_2   0.052094 0.642305 0.109633 -0.218671
O74   O     O_2   0.041800 0.866699 0.178184 -0.316975
O75   O     O_3   0.973745 0.632622 0.123424 -0.463925
H25   H     H_    0.963809 0.693805 0.151965 0.391080
S14   S     S_3+6 0.973505 0.187571 0.872476 0.025084
O76   O     O_2   0.943571 0.078559 0.819550 -0.239659
O77   O     O_2   0.944907 0.324212 0.889058 -0.271909
O78   O     O_3   0.015375 0.303917 0.858695 -0.404379
H26   H     H_    0.031530 0.385162 0.892871 0.366472
S15   S     S_3+6 0.466849 0.685441 0.359850 -0.005887
O79   O     O_2   0.448655 0.540774 0.312561 -0.293490
O80   O     O_2   0.427041 0.791879 0.363341 -0.271736
O81   O     O_3   0.503972 0.831229 0.346204 -0.431414
H27   H     H_    0.494848 0.821702 0.304586 0.412416
S16   S     S_3+6 0.532214 0.858156 0.619688 0.009015
O82   O     O_2   0.551837 0.776136 0.676843 -0.222299
O83   O     O_2   0.570961 0.949527 0.606838 -0.297692
O84   O     O_3   0.494841 0.019002 0.621811 -0.409747
H28   H     H_    0.484654 0.074582 0.584346 0.348787
N9    N     N_R   0.960017 0.372804 0.379246 0.287102
O85   O     O_R   0.930961 0.320326 0.328676 -0.216275
O86   O     O_R   0.975140 0.543786 0.389855 -0.347317
N10   N     N_R   0.035909 0.637135 0.615651 0.285565
O87   O     O_R   0.004487 0.507666 0.610027 -0.321458
O88   O     O_R   0.076413 0.634462 0.657128 -0.231376
N11   N     N_R   0.581563 0.471737 0.169794 0.288569
O89   O     O_R   0.575974 0.323590 0.194113 -0.252727
O90   O     O_R   0.611072 0.601912 0.199614 -0.230233
N12   N     N_R   0.427215 0.488920 0.842299 0.291546
O91   O     O_R   0.428993 0.345300 0.811609 -0.232644
O92   O     O_R   0.400888 0.622879 0.818354 -0.229816
N13   N     N_R   0.915085 0.424495 0.453214 0.291567
O93   O     O_R   0.877628 0.426202 0.407289 -0.211856
O94   O     O_R   0.927553 0.569443 0.487498 -0.303046
N14   N     N_R   0.084216 0.596465 0.545130 0.293184
O95   O     O_R   0.128351 0.628711 0.575406 -0.196828
O96   O     O_R   0.067991 0.427449 0.531867 -0.328689
N15   N     N_R   0.637800 0.478705 0.107112 0.292102
O97   O     O_R   0.663134 0.627828 0.110970 -0.200083
O98   O     O_R   0.656812 0.338507 0.136315 -0.218855
N16   N     N_R   0.371132 0.474992 0.905090 0.290803
O99   O     O_R   0.348371 0.616444 0.911185 -0.219954
O100  O     O_R   0.349405 0.343816 0.867793 -0.225146
S17   S     S_3+6 0.883209 0.402628 0.730283 0.066921
O101  O     O_2   0.931706 0.487903 0.748496 -0.188092
O102  O     O_2   0.848851 0.540786 0.698444 -0.254065
O103  O     O_3   0.873517 0.350047 0.788451 -0.479472
H29   H     H_    0.872163 0.470317 0.806953 0.388719
S18   S     S_3+6 0.116596 0.598225 0.270778 0.091140
O104  O     O_2   0.151074 0.462388 0.303766 -0.214502
O105  O     O_2   0.068247 0.512288 0.253410 -0.182212
O106  O     O_3   0.126197 0.641014 0.211813 -0.425918
H30   H     H_    0.123429 0.775209 0.207729 0.307848
S19   S     S_3+6 0.608921 0.281473 0.753854 0.061260
O107  O     O_2   0.557676 0.231547 0.734530 -0.156034
O108  O     O_2   0.617386 0.381359 0.707906 -0.350115
O109  O     O_3   0.638498 0.087254 0.765932 -0.455546
H31   H     H_    0.627906 0.019668 0.728653 0.399770
S20   S     S_3+6 0.394032 0.167284 0.243110 0.047725
O110  O     O_2   0.445377 0.133183 0.266211 -0.209166
O111  O     O_2   0.380148 0.227410 0.290949 -0.311154
O112  O     O_3   0.364143 0.970639 0.212316 -0.519657
H32   H     H_    0.374533 0.879176 0.242027 0.387024

loop_
_geom_bond_atom_site_label_1
_geom_bond_atom_site_label_2
_geom_bond_distance
_ccdc_geom_bond_type
O17   V3    1.754807 S    
S19   O109  1.678148 S    
N3    C51   1.370350 A    
N7    O45   1.300978 A    
N15   O98   1.300945 A    
O1    C5    1.336454 A    
N5    O41   1.300951 A    
C51   C55   1.421219 A    
O12   V4    2.019830 S    
O19   V1    1.804846 S    
C9    C21   1.410554 A    
C72   N16   1.434870 S    
C59   C60   1.421712 A    
C76   C96   1.404807 A    
O1    V3    1.991516 S    
C85   C89   1.415750 A    
C48   N4    1.368479 A    
C11   C23   1.410425 A    
C89   N5    1.430975 S    
S1    O29   1.501908 D    
O54   H18   0.990323 S    
C87   S3    1.780281 S    
C33   C38   1.419029 A    
C5    C12   1.507429 S    
C42   H2    1.078309 S    
O66   H22   0.990432 S    
S13   O75   1.683907 S    
C87   C91   1.418080 A    
C6    C11   1.503971 S    
N7    O46   1.300118 A    
N13   O93   1.300859 A    
O57   H19   0.991385 S    
C62   C69   1.417975 A    
S10   O65   1.503846 D    
C36   C39   1.413288 A    
C40   C44   1.396760 A    
C90   N6    1.432101 S    
C37   S13   1.766966 S    
C23   H8    1.070570 S    
C14   C18   1.411483 A    
C83   C87   1.430161 A    
C75   C79   1.402270 A    
N3    C96   1.457920 S    
O4    C8    1.344108 A    
C59   C63   1.412876 A    
C44   H4    1.081803 S    
C43   H3    1.081983 S    
S3    O36   1.503242 D    
C78   C82   1.440232 A    
C18   S5    1.766714 S    
C21   C25   1.422149 A    
N11   O89   1.301226 A    
C86   S2    1.779294 S    
S16   O82   1.503147 D    
C56   C60   1.416796 A    
C75   C95   1.397152 A    
O2    V4    1.991515 S    
O109  H31   0.990160 S    
C74   H10   1.082470 S    
C70   N14   1.432803 S    
O3    V1    1.946906 S    
C73   H9    1.082484 S    
N8    O47   1.301540 A    
C80   S20   1.772925 S    
S7    O57   1.674140 S    
C50   C54   1.419500 A    
C28   C36   1.439337 A    
C2    C83   1.501548 S    
C91   C95   1.407660 A    
C88   C92   1.411039 A    
C1    O15   1.344217 A    
C15   C31   1.419258 A    
C67   C71   1.409264 A    
C52   C56   1.419424 A    
C2    O16   1.333891 A    
O63   H21   0.990067 S    
C16   C32   1.414829 A    
S2    O34   1.668365 S    
C10   C18   1.406628 A    
C46   C62   1.418163 A    
S11   O69   1.681979 S    
C67   N11   1.434670 S    
O84   H28   0.990784 S    
S20   O112  1.681847 S    
C45   C61   1.417970 A    
O14   V2    1.981992 S    
C13   S9    1.784446 S    
C23   C27   1.421375 A    
C11   C19   1.422851 A    
C16   C20   1.413080 A    
C53   C65   1.417950 A    
O8    C4    1.325359 A    
C13   C29   1.421137 A    
C7    C10   1.501652 S    
C34   C37   1.422846 A    
N6    O44   1.301117 A    
O15   V3    1.984558 S    
C35   C36   1.438671 A    
O12   C8    1.336085 A    
C79   S19   1.775309 S    
O106  H30   0.988112 S    
C48   C64   1.418599 A    
S3    O37   1.677030 S    
C13   C17   1.411186 A    
C24   H7    1.072031 S    
C16   S12   1.779417 S    
C82   C86   1.433072 A    
O10   V2    1.942021 S    
N2    C93   1.448104 S    
C80   C84   1.429125 A    
N10   O88   1.300775 A    
O75   H25   0.990539 S    
S1    O30   1.498297 D    
N1    C49   1.366029 A    
C54   C58   1.418589 A    
O5    V1    1.998405 S    
C65   C69   1.405666 A    
N12   O92   1.301014 A    
N13   O94   1.300353 A    
O7    V3    1.998442 S    
S10   O64   1.503250 D    
C38   C42   1.386222 A    
C65   N9    1.433099 S    
S11   O67   1.501801 D    
C26   C34   1.449242 A    
S8    O60   1.681520 S    
C92   C96   1.415045 A    
S12   O71   1.503329 D    
O31   H13   0.990364 S    
C4    C81   1.519382 S    
C55   C67   1.417968 A    
S17   O102  1.503033 D    
C49   C53   1.420437 A    
O18   V4    1.754808 S    
O103  H29   0.990745 S    
C39   S15   1.774835 S    
S14   O78   1.682636 S    
N11   O90   1.301016 A    
O3    C7    1.337117 A    
C32   C44   1.405021 A    
S10   O66   1.681245 S    
S16   O84   1.682448 S    
C25   C33   1.439877 A    
C15   S11   1.800686 S    
C21   H6    1.077700 S    
S6    O54   1.682580 S    
O8    V4    1.998449 S    
C52   O28   1.348307 S    
S9    O63   1.682789 S    
C73   C93   1.389255 A    
O72   H24   0.990410 S    
S4    O40   1.682605 S    
C39   C43   1.390898 A    
O2    C6    1.338439 A    
C63   C72   1.418208 A    
S2    O33   1.500776 D    
C77   C81   1.442950 A    
O81   H27   0.990432 S    
C46   N2    1.367302 A    
N14   O96   1.300571 A    
O7    C3    1.327105 A    
S15   O79   1.501653 D    
C14   C30   1.423549 A    
S12   O72   1.681784 S    
C45   N1    1.367450 A    
C84   C88   1.408187 A    
S5    O51   1.680277 S    
C48   O24   1.348640 S    
S16   O83   1.503991 D    
O78   H26   0.990758 S    
C35   C40   1.419808 A    
C47   C63   1.416222 A    
O9    C5    1.353999 A    
C46   O22   1.347319 S    
C57   C58   1.424313 A    
C26   C30   1.420689 A    
S12   O70   1.503786 D    
C45   O21   1.346686 S    
S6    O52   1.502609 D    
S18   O105  1.503518 D    
C10   C22   1.414462 A    
C61   C70   1.418908 A    
C92   N8    1.441031 S    
N6    O43   1.300153 A    
O6    V2    1.998405 S    
S20   O111  1.498012 D    
C19   S8    1.784905 S    
S5    O49   1.497378 D    
C68   N12   1.434235 S    
C49   O25   1.348110 S    
N9    O86   1.300869 A    
C90   C94   1.396552 A    
O37   H15   0.989913 S    
C25   C29   1.412163 A    
C81   C85   1.434125 A    
C17   S6    1.777008 S    
C12   C20   1.416291 A    
C27   C35   1.448026 A    
C4    O14   1.344605 A    
N15   O97   1.301049 A    
C3    C82   1.516825 S    
C57   C61   1.416585 A    
N16   O100  1.301019 A    
C68   C72   1.407879 A    
S1    O31   1.669394 S    
C29   C41   1.399306 A    
O51   H17   0.990018 S    
C40   S16   1.777841 S    
O16   V4    1.984555 S    
C1    C84   1.500161 S    
O9    V1    1.942021 S    
S19   O108  1.501007 D    
C89   C93   1.392947 A    
N12   O91   1.301171 A    
N1    C94   1.449199 S    
C64   C71   1.418928 A    
S15   O80   1.503284 D    
S14   O77   1.502801 D    
C51   O27   1.348184 S    
N4    C52   1.368005 A    
O5    C1    1.325190 A    
C74   C94   1.391756 A    
S18   O106  1.678990 S    
C3    O13   1.341823 A    
C86   C90   1.414907 A    
S17   O103  1.677215 S    
C31   C43   1.403349 A    
C76   C80   1.409455 A    
O11   V3    2.019827 S    
O6    C2    1.335434 A    
C30   C42   1.400038 A    
C75   H11   1.083122 S    
S13   O74   1.502997 D    
C22   C26   1.427640 A    
C66   N10   1.434247 S    
C8    C9    1.498870 S    
N4    C95   1.451442 S    
C47   O23   1.348213 S    
C50   O26   1.348182 S    
C88   S4    1.773881 S    
C9    C17   1.414038 A    
C91   N7    1.435602 S    
O10   C6    1.349705 A    
C79   C83   1.424714 A    
S9    O62   1.503210 D    
N16   O99   1.301296 A    
S13   O73   1.502334 D    
O112  H32   0.990644 S    
C69   N13   1.433908 S    
O20   V2    1.804846 S    
C54   C66   1.417136 A    
O13   V1    1.981986 S    
S8    O58   1.500212 D    
N2    C50   1.365335 A    
C33   C34   1.441760 A    
S17   O101  1.503755 D    
C28   C32   1.412302 A    
C41   H1    1.078781 S    
C60   C64   1.414884 A    
O11   C7    1.344296 A    
N10   O87   1.301042 A    
N8    O48   1.299328 A    
S5    O50   1.500066 D    
C71   N15   1.433832 S    
C12   C24   1.415558 A    
C27   C31   1.415526 A    
C38   S14   1.773362 S    
C37   C41   1.393878 A    
C53   C57   1.419222 A    
S9    O61   1.502297 D    
S4    O38   1.500238 D    
S6    O53   1.500846 D    
S7    O56   1.500283 D    
O40   H16   0.989357 S    
S18   O104  1.502042 D    
C56   C68   1.418138 A    
C20   S7    1.778455 S    
C55   C59   1.415605 A    
O60   H20   0.990055 S    
C47   N3    1.372282 A    
C76   H12   1.082511 S    
C24   C28   1.427101 A    
S15   O81   1.683259 S    
C85   S1    1.776780 S    
S20   O110  1.503234 D    
C15   C19   1.428066 A    
N5    O42   1.299975 A    
O69   H23   0.990142 S    
C14   S10   1.793836 S    
C66   C70   1.405090 A    
C77   S17   1.781258 S    
S3    O35   1.499565 D    
S11   O68   1.503838 D    
C58   C62   1.416173 A    
S2    O32   1.500313 D    
C78   S18   1.785020 S    
S7    O55   1.499988 D    
C74   C78   1.407708 A    
O34   H14   0.989431 S    
N9    O85   1.300949 A    
C73   C77   1.408067 A    
S14   O76   1.502515 D    
C22   H5    1.077272 S    
O4    V2    1.946909 S    
S19   O107  1.503434 D    
S4    O39   1.502504 D    
N14   O95   1.300933 A    
S8    O59   1.496250 D    
