data_mof_unit_55616.cif
_audit_creation_date              2012-12-10T19:01:19-0500
_audit_creation_method            fapswitch 2.2
_symmetry_space_group_name_H-M    P1
_symmetry_Int_Tables_number       1
_space_group_crystal_system       triclinic
_cell_length_a                    9.533124
_cell_length_b                    10.791203
_cell_length_c                    15.483557
_cell_angle_alpha                 89.7295
_cell_angle_beta                  74.417998
_cell_angle_gamma                 90.033178
_cell_volume                      1534.29145124

loop_
_atom_site_label
_atom_site_type_symbol
_atom_type_description
_atom_site_fract_x
_atom_site_fract_y
_atom_site_fract_z
_atom_type_partial_charge
C1    C     C_R   0.998643 0.262338 0.503096 0.837885
C2    C     C_R   0.672603 0.513501 0.907001 -0.020469
C3    C     C_R   0.771107 0.558029 0.954649 -0.088789
C4    C     C_R   0.522425 0.494611 0.952340 0.033379
C5    C     C_R   0.473530 0.515521 0.046064 0.014506
C6    C     C_R   0.576269 0.552637 0.091807 -0.323948
C7    C     C_R   0.720441 0.580765 0.047021 0.451293
C8    C     C_R   0.419683 0.454438 0.907112 -0.301251
C9    C     C_R   0.276346 0.425376 0.952868 0.459165
C10   C     C_R   0.226859 0.447458 0.044932 0.071156
C11   C     C_R   0.323841 0.495801 0.091779 0.039109
C12   C     C_R   0.918285 0.501545 0.672052 0.813377
C13   C     C_R   0.081084 0.421801 0.091141 -0.047479
C14   C     C_R   0.031344 0.441451 0.183091 -0.186112
C15   C     C_R   0.267173 0.522802 0.183327 -0.217098
C16   C     C_R   0.120963 0.063786 0.511264 0.012545
C17   C     C_R   0.993592 0.129598 0.515805 -0.153603
C18   C     C_R   0.860159 0.065622 0.537687 -0.293611
C19   C     C_R   0.858171 0.935892 0.540659 0.437830
C20   C     C_R   0.992079 0.870724 0.517481 -0.272926
C21   C     C_R   0.120319 0.936532 0.511984 0.046725
C22   C     C_3   0.266077 0.930274 0.445281 0.472608
C23   C     C_R   0.998111 0.737746 0.503916 0.821655
C24   C     C_3   0.266633 0.070986 0.444566 -0.474366
C25   C     C_R   0.592231 0.593265 0.458500 0.315441
C26   C     C_R   0.553412 0.414668 0.547961 -0.103087
C27   C     C_R   0.404581 0.414485 0.547690 -0.106938
C28   C     C_R   0.444886 0.592701 0.457894 0.375152
C29   C     C_3   0.484637 0.621972 0.360111 -0.532309
C30   C     C_3   0.642552 0.626603 0.361802 -0.504004
C31   C     C_R   0.081494 0.499371 0.327846 0.791525
C32   C     C_R   0.873047 0.512661 0.769871 -0.162345
C33   C     C_R   0.125314 0.490295 0.229743 -0.070257
C34   C     C_R   0.919117 0.578040 0.908533 0.654329
C35   C     C_R   0.968708 0.555991 0.816975 -0.246499
C36   C     C_R   0.728320 0.488323 0.815110 -0.242128
Cu1   Cu    Cu3+1 0.140670 0.499980 0.500000 0.949989
Cu2   Cu    Cu3+1 0.859330 0.500020 0.500000 0.945326
H1    H     H_    0.005649 0.384109 0.056746 0.175517
H2    H     H_    0.758011 0.115043 0.548666 0.176247
H3    H     H_    0.263889 0.887361 0.380518 0.042921
H4    H     H_    0.350477 0.112351 0.473694 0.221970
H5    H     H_    0.261276 0.111620 0.379387 0.149788
H6    H     H_    0.592792 0.344136 0.585429 0.144279
H7    H     H_    0.332431 0.343478 0.584201 0.151190
H8    H     H_    0.462149 0.542544 0.320685 0.199517
H9    H     H_    0.330168 0.570738 0.220564 0.135532
H10   H     H_    0.442025 0.712853 0.344902 0.217371
H11   H     H_    0.709916 0.553415 0.320176 0.215336
H12   H     H_    0.689836 0.721440 0.351585 0.213687
H13   H     H_    0.920456 0.416329 0.217817 0.154116
H14   H     H_    0.081510 0.575345 0.782656 0.186261
H15   H     H_    0.661886 0.449393 0.775998 0.163560
H16   H     H_    0.549718 0.558098 0.163556 0.147790
H17   H     H_    0.445372 0.444106 0.835627 0.151773
N1    N     N_R   0.648210 0.500930 0.499430 -0.206241
N2    N     N_R   0.352300 0.500890 0.499430 -0.201054
O1    O     O_R   0.118810 0.319640 0.500000 -0.578272
O2    O     O_R   0.881230 0.319680 0.499990 -0.589573
O3    O     O_R   0.055580 0.499970 0.629840 -0.586919
O4    O     O_R   0.818000 0.500010 0.629830 -0.592184
O5    O     O_R   0.118770 0.680320 0.500010 -0.564245
O6    O     O_R   0.881190 0.680360 0.500000 -0.535094
O7    O     O_R   0.182000 0.499990 0.370170 -0.585743
O8    O     O_R   0.944420 0.500030 0.370160 -0.585199
O9    O     O_3   0.816514 0.616638 0.095629 -0.568674
C37   C     C_3   0.780154 0.735515 0.133610 0.086683
H18   H     H_    0.831614 0.744653 0.189666 0.163607
H19   H     H_    0.661071 0.748443 0.163402 0.120492
C38   C     C_3   0.840960 0.838341 0.065003 -0.310366
H20   H     H_    0.960995 0.828196 0.039726 0.266665
H21   H     H_    0.792722 0.830700 0.007396 0.205716
C39   C     C_3   0.806824 0.966423 0.106687 -0.952552
H22   H     H_    0.687165 0.979895 0.131015 0.261458
H23   H     H_    0.852634 0.038724 0.055597 0.256251
H24   H     H_    0.856027 0.977356 0.163625 0.260118
O10   O     O_3   0.726165 0.874542 0.557327 -0.567199
C40   C     C_3   0.670838 0.859051 0.650981 0.080312
H25   H     H_    0.639042 0.950576 0.683358 0.127510
H26   H     H_    0.752989 0.814487 0.680655 0.124142
C41   C     C_3   0.536442 0.775329 0.670044 -0.294757
H27   H     H_    0.453947 0.816496 0.639604 0.265636
H28   H     H_    0.567977 0.683151 0.639393 0.229075
C42   C     C_3   0.469141 0.758034 0.770566 -0.917768
H29   H     H_    0.549713 0.716740 0.802406 0.264404
H30   H     H_    0.373828 0.694843 0.781914 0.275385
H31   H     H_    0.432036 0.848519 0.802495 0.256179
F1    F     F_    0.370345 0.881890 0.483158 -0.665280
O11   O     O_3   0.180611 0.384517 0.905726 -0.600644
C43   C     C_3   0.214865 0.261904 0.874805 0.019700
H32   H     H_    0.120797 0.201607 0.907368 0.159540
H33   H     H_    0.312663 0.221514 0.891239 0.123725
C44   C     C_3   0.237412 0.258643 0.773284 -0.338752
H34   H     H_    0.138668 0.295008 0.756632 0.234344
H35   H     H_    0.331146 0.319029 0.740556 0.200562
C45   C     C_3   0.267517 0.127340 0.736653 -0.905443
H36   H     H_    0.368184 0.090385 0.750374 0.250653
H37   H     H_    0.282586 0.128396 0.663003 0.263622
H38   H     H_    0.174530 0.065295 0.767881 0.261639
F2    F     F_    0.016843 0.621016 0.950777 -0.654088

loop_
_geom_bond_atom_site_label_1
_geom_bond_atom_site_label_2
_ccdc_geom_bond_type
C16   C21   A    
C24   H4    S    
C39   H22   S    
C19   C20   A    
C25   N1    A    
C15   H9    S    
C4    C8    A    
Cu1   O7    S    
C14   C33   A    
Cu1   O5    S    
C26   H6    S    
O10   C40   S    
C25   C28   A    
C26   C27   A    
C44   H34   S    
C32   C36   A    
C28   C29   S    
Cu1   Cu2   S    
C42   H30   S    
C5    C11   A    
C3    C7    A    
C1    O2    A    
C5    C6    A    
C40   H26   S    
C22   H3    S    
C45   H38   S    
C34   C35   A    
C19   O10   S    
C18   H2    S    
C36   H15   S    
C11   C15   A    
C23   O5    A    
C8    C9    A    
C45   H37   S    
C34   F2    S    
C42   H31   S    
C38   H20   S    
C22   F1    S    
C9    C10   A    
Cu1   O1    S    
Cu2   O4    S    
C27   H7    S    
C23   O6    A    
O9    C37   S    
C30   H12   S    
C16   C24   S    
C21   C22   S    
C12   C32   S    
C39   H23   S    
C6    H16   S    
C8    H17   S    
C41   H28   S    
C41   H27   S    
C29   H10   S    
C37   H18   S    
C32   C35   A    
C42   H29   S    
C27   N2    A    
C9    O11   S    
C40   H25   S    
C18   C19   A    
C3    C34   A    
C28   N2    A    
C20   C23   S    
C37   H19   S    
C2    C4    A    
C29   C30   S    
C43   H33   S    
C14   H13   S    
Cu2   O8    S    
C45   H36   S    
C38   C39   S    
C31   C33   S    
C17   C18   A    
C30   H11   S    
C44   C45   S    
C39   H24   S    
C22   C24   S    
C41   C42   S    
C43   C44   S    
Cu2   O6    S    
C2    C36   A    
C25   C30   S    
C31   O8    A    
C31   O7    A    
C4    C5    A    
C10   C13   A    
C26   N1    A    
C6    C7    A    
C1    C17   S    
C29   H8    S    
C37   C38   S    
C2    C3    A    
C1    O1    A    
C7    O9    S    
C12   O4    A    
C40   C41   S    
C43   H32   S    
C16   C17   A    
C13   H1    S    
Cu1   O3    S    
C10   C11   A    
Cu2   O2    S    
C12   O3    A    
Cu2   N1    S    
C20   C21   A    
C44   H35   S    
C35   H14   S    
C24   H5    S    
C38   H21   S    
O11   C43   S    
C13   C14   A    
C15   C33   A    
Cu1   N2    S    
