data_mof_unit_68403.cif
_audit_creation_date              2012-12-10T16:46:02-0500
_audit_creation_method            fapswitch 2.2
_symmetry_space_group_name_H-M    P1
_symmetry_Int_Tables_number       1
_space_group_crystal_system       triclinic
_cell_length_a                    10.875097
_cell_length_b                    8.751317
_cell_length_c                    7.613573
_cell_angle_alpha                 101.027309
_cell_angle_beta                  95.766303
_cell_angle_gamma                 93.427353
_cell_volume                      705.297777371

loop_
_atom_site_label
_atom_site_type_symbol
_atom_type_description
_atom_site_fract_x
_atom_site_fract_y
_atom_site_fract_z
_atom_type_partial_charge
C1    C     C_R   0.494742 0.202084 0.457544 0.800908
C2    C     C_3   0.878976 0.489693 0.509601 -0.556192
C3    C     C_3   0.936548 0.652251 0.482947 0.438613
C4    C     C_3   0.912311 0.360972 0.351815 -0.054197
C5    C     C_2   0.470999 0.038593 0.444904 -0.024632
C6    C     C_2   0.525966 0.965499 0.566936 -0.032181
C7    C     C_R   0.260699 0.493870 0.499855 0.993518
C8    C     C_R   0.505938 0.798867 0.544575 0.814527
C9    C     C_R   0.739516 0.493993 0.501437 0.924491
C10   C     C_3   0.087931 0.473587 0.695183 0.516334
C11   C     C_3   0.944052 0.446243 0.688365 0.528288
C12   C     C_3   0.075971 0.643568 0.455282 0.899020
C13   C     C_3   0.055001 0.348407 0.361876 1.064747
C14   C     C_3   0.122960 0.490128 0.503179 -0.616291
Cu1   Cu    Cu3+1 0.514070 0.517380 0.684380 1.161254
Cu2   Cu    Cu3+1 0.485930 0.482620 0.315620 1.189984
H1    H     H_    0.880330 0.395086 0.225437 0.208410
N1    N     N_2   0.464720 0.456420 0.038520 0.211822
N2    N     N_2   0.535280 0.543580 0.961480 0.001309
O1    O     O_R   0.509140 0.286130 0.619770 -0.529567
O2    O     O_R   0.485380 0.256770 0.308360 -0.555096
O3    O     O_R   0.329570 0.514650 0.655700 -0.536606
O4    O     O_R   0.305810 0.485300 0.344290 -0.499798
O5    O     O_R   0.514620 0.743230 0.691640 -0.577676
O6    O     O_R   0.490860 0.713870 0.380230 -0.602084
O7    O     O_R   0.694190 0.514700 0.655710 -0.592907
O8    O     O_R   0.670430 0.485350 0.344300 -0.568488
I1    I     I_    0.173207 0.669007 0.903427 0.095160
F1    F     F_    0.090269 0.645237 0.277599 -0.543149
F2    F     F_    0.874485 0.690725 0.332293 -0.580028
I2    I     I_    0.306945 0.948910 0.277946 0.119856
I3    I     I_    0.650304 0.078882 0.799259 -0.052872
F3    F     F_    0.406662 0.329356 0.929495 -0.447374
I4    I     I_    0.627513 0.754190 0.092828 -0.018591
F4    F     F_    0.140620 0.344842 0.744243 -0.458685
F5    F     F_    0.915699 0.288691 0.681926 -0.530550
I5    I     I_    0.882223 0.537456 0.943210 0.021777
F6    F     F_    0.147319 0.773680 0.554627 -0.617564
I6    I     I_    0.909485 0.848237 0.690389 0.063809
F7    F     F_    0.091091 0.345352 0.191629 -0.548625
F8    F     F_    0.085823 0.209815 0.411165 -0.523487
I7    I     I_    0.810552 0.135072 0.312312 0.012811

loop_
_geom_bond_atom_site_label_1
_geom_bond_atom_site_label_2
_ccdc_geom_bond_type
C3    F2    S    
C6    I3    S    
C11   I5    S    
C1    O2    A    
Cu2   O2    S    
C12   F1    S    
C7    O3    A    
C2    C4    S    
Cu2   O8    S    
C13   F8    S    
C2    C3    S    
C3    I6    S    
C13   C14   S    
Cu1   N2    S    
C8    O6    A    
C10   F4    S    
C4    I7    S    
C1    C5    S    
C4    H1    S    
Cu1   O5    S    
C8    O5    A    
C12   C14   S    
C9    O7    A    
Cu2   O4    S    
C7    C14   S    
C12   F6    S    
Cu1   O1    S    
N1    F3    S    
C7    O4    A    
C10   C11   S    
C2    C11   S    
Cu1   Cu2   S    
C13   F7    S    
Cu2   O6    S    
C9    O8    A    
Cu2   N1    S    
N1    N2    D    
C10   C14   S    
C10   I1    S    
C4    C13   S    
C5    C6    D    
C11   F5    S    
Cu1   O7    S    
C6    C8    S    
C3    C12   S    
C5    I2    S    
C2    C9    S    
Cu1   O3    S    
C1    O1    A    
N2    I4    S    
