data_mof_unit_16111.cif
_audit_creation_date              2012-12-10T18:57:08-0500
_audit_creation_method            fapswitch 2.2
_symmetry_space_group_name_H-M    P1
_symmetry_Int_Tables_number       1
_space_group_crystal_system       triclinic
_cell_length_a                    10.724897
_cell_length_b                    9.833334
_cell_length_c                    10.71958
_cell_angle_alpha                 90.723846
_cell_angle_beta                  90.1217
_cell_angle_gamma                 89.388132
_cell_volume                      1130.34601505

loop_
_atom_site_label
_atom_site_type_symbol
_atom_type_description
_atom_site_fract_x
_atom_site_fract_y
_atom_site_fract_z
_atom_type_partial_charge
C1    C     C_R   0.260267 0.500548 0.493815 0.901113
C2    C     C_R   0.430134 0.589000 0.936093 0.057269
C3    C     C_R   0.501776 0.493516 0.127428 -0.280267
C4    C     C_R   0.509573 0.501514 0.871141 -0.272099
C5    C     C_R   0.567044 0.389217 0.062308 0.385325
C6    C     C_R   0.582253 0.403409 0.932979 0.364130
C7    C     C_3   0.423428 0.740993 0.933702 -0.424875
C8    C     C_3   0.421883 0.738512 0.074936 -0.453209
C9    C     C_R   0.065730 0.382065 0.447337 0.445567
C10   C     C_R   0.939640 0.375163 0.469861 0.388689
C11   C     C_R   0.873285 0.496985 0.494029 -0.204997
C12   C     C_R   0.740367 0.498914 0.498849 0.913815
C13   C     C_R   0.128355 0.501711 0.481522 -0.225024
C14   C     C_R   0.935358 0.620362 0.509438 -0.272492
C15   C     C_R   0.062941 0.621741 0.508922 -0.269028
C16   C     C_3   0.591857 0.153684 0.082017 0.163022
C17   C     C_3   0.449764 0.127657 0.076985 -0.434187
C18   C     C_3   0.399625 0.117122 0.943671 -0.874051
C19   C     C_3   0.789753 0.355388 0.894757 0.035923
C20   C     C_3   0.826854 0.492771 0.839396 -0.385893
C21   C     C_3   0.967050 0.501436 0.816411 -0.938382
C22   C     C_3   0.159771 0.295979 0.269819 0.130746
C23   C     C_R   0.555805 0.072604 0.594435 -0.077443
C24   C     C_3   0.048677 0.327199 0.182043 -0.402650
C25   C     C_3   0.029281 0.480112 0.163139 -0.919251
C26   C     C_3   0.892920 0.189674 0.583187 0.124850
C27   C     C_3   0.883180 0.035204 0.572097 -0.306889
C28   C     C_3   0.879238 0.971600 0.701540 -1.033143
C29   C     C_R   0.441169 0.071385 0.407688 -0.027714
C30   C     C_R   0.556038 0.928644 0.594327 -0.095977
C31   C     C_R   0.441449 0.927535 0.407305 -0.091090
C32   C     C_R   0.501807 0.498674 0.259898 0.939716
C33   C     C_R   0.504586 0.500879 0.739531 0.946982
C34   C     C_R   0.429051 0.587278 0.063359 0.042407
H1    H     H_    0.509168 0.787098 0.895091 0.194008
H2    H     H_    0.394072 0.872754 0.333456 0.122321
H3    H     H_    0.632797 0.079205 0.148001 0.124223
H4    H     H_    0.638477 0.129068 0.992236 0.169268
H5    H     H_    0.429814 0.030279 0.123907 0.184550
H6    H     H_    0.397731 0.208914 0.127904 0.218046
H7    H     H_    0.403811 0.216659 0.896724 0.275274
H8    H     H_    0.300633 0.085238 0.945889 0.244241
H9    H     H_    0.453788 0.040548 0.888680 0.253098
H10   H     H_    0.850219 0.273529 0.855024 0.160889
H11   H     H_    0.807917 0.354713 0.996786 0.168593
H12   H     H_    0.331804 0.774130 0.115481 0.191884
H13   H     H_    0.777759 0.508031 0.749608 0.227468
H14   H     H_    0.797604 0.576248 0.904177 0.202165
H15   H     H_    0.020680 0.477062 0.901664 0.270313
H16   H     H_    0.990748 0.605909 0.787131 0.275085
H17   H     H_    0.995510 0.428977 0.741435 0.251018
H18   H     H_    0.205161 0.201723 0.233575 0.113880
H19   H     H_    0.231911 0.376154 0.265073 0.126712
H20   H     H_    0.067328 0.280037 0.089003 0.183181
H21   H     H_    0.961796 0.281366 0.217858 0.267768
H22   H     H_    0.014084 0.535185 0.252298 0.275675
H23   H     H_    0.334512 0.778722 0.892599 0.202654
H24   H     H_    0.111606 0.523660 0.115945 0.255540
H25   H     H_    0.945337 0.498179 0.105150 0.258991
H26   H     H_    0.815522 0.229272 0.642378 0.169713
H27   H     H_    0.983359 0.211691 0.630984 0.114384
H28   H     H_    0.797993 0.007784 0.519025 0.232356
H29   H     H_    0.965171 0.993966 0.520208 0.230232
H30   H     H_    0.967472 0.991901 0.752641 0.270884
H31   H     H_    0.867296 0.860066 0.693430 0.268199
H32   H     H_    0.799856 0.014115 0.756436 0.259673
H33   H     H_    0.506778 0.783266 0.117973 0.203446
H34   H     H_    0.885729 0.715040 0.526039 0.199222
H35   H     H_    0.109826 0.716255 0.530540 0.200311
H36   H     H_    0.600640 0.127551 0.669794 0.163641
H37   H     H_    0.393014 0.125663 0.335143 0.116076
H38   H     H_    0.601379 0.874625 0.669401 0.133625
N1    N     N_R   0.500000 0.857200 0.500000 -0.075740
N2    N     N_R   0.500000 0.142810 0.500000 -0.074474
O1    O     O_R   0.316770 0.614620 0.499990 -0.626566
O2    O     O_3   0.664795 0.322091 0.865011 -0.661233
O3    O     O_3   0.124746 0.269237 0.394886 -0.615678
O4    O     O_3   0.883360 0.249182 0.463817 -0.603762
O5    O     O_R   0.683230 0.614620 0.500010 -0.637443
O6    O     O_R   0.316800 0.385290 0.500000 -0.596103
O7    O     O_R   0.683200 0.385290 0.500000 -0.572257
O8    O     O_R   0.500000 0.614690 0.316780 -0.633503
O9    O     O_R   0.500000 0.614690 0.683220 -0.637578
O10   O     O_R   0.500020 0.385360 0.316780 -0.594527
O11   O     O_R   0.499980 0.385360 0.683220 -0.598546
O12   O     O_3   0.624491 0.284828 0.128287 -0.630396
Zn1   Zn    Zn3+2 0.500000 0.653120 0.500000 0.932148
Zn2   Zn    Zn3+2 0.500000 0.346880 0.500000 0.996154

loop_
_geom_bond_atom_site_label_1
_geom_bond_atom_site_label_2
_ccdc_geom_bond_type
O9    Zn1   S    
C28   H32   S    
C19   C20   S    
C25   H22   S    
C21   H15   S    
C10   O4    S    
C7    C8    S    
C24   H21   S    
C26   C27   S    
C26   O4    S    
C19   O2    S    
C26   H27   S    
C18   H8    S    
C5    C6    A    
C11   C14   A    
C31   N1    A    
C24   H20   S    
O8    Zn1   S    
C12   O5    A    
C17   H5    S    
C33   O11   A    
N1    Zn1   S    
C9    C13   A    
C2    C7    S    
C16   C17   S    
C9    C10   A    
C16   H3    S    
C2    C34   A    
C16   O12   S    
C23   H36   S    
C15   H35   S    
O5    Zn1   S    
C21   H16   S    
C22   H19   S    
C32   O10   A    
O7    Zn2   S    
C23   C30   A    
C24   C25   S    
C4    C6    A    
C18   H7    S    
C30   N1    A    
C8    C34   S    
C29   N2    A    
C3    C34   A    
C17   H6    S    
C1    O1    A    
C2    C4    A    
C27   H28   S    
C17   C18   S    
C9    O3    S    
C33   O9    A    
C20   H14   S    
C27   H29   S    
C5    O12   S    
C28   H30   S    
O1    Zn1   S    
C13   C15   A    
C22   C24   S    
C1    C13   S    
C25   H24   S    
C23   N2    A    
C21   H17   S    
C19   H10   S    
C22   H18   S    
O11   Zn2   S    
C4    C33   S    
C31   H2    S    
C7    H1    S    
O10   Zn2   S    
C22   O3    S    
C3    C5    A    
C30   H38   S    
C11   C12   S    
C19   H11   S    
C6    O2    S    
C32   O8    A    
C28   H31   S    
C29   C31   A    
C18   H9    S    
C12   O7    A    
C3    C32   S    
C8    H12   S    
C20   H13   S    
C10   C11   A    
C20   C21   S    
C8    H33   S    
O6    Zn2   S    
C27   C28   S    
C1    O6    A    
C14   H34   S    
C14   C15   A    
C25   H25   S    
N2    Zn2   S    
C26   H26   S    
C7    H23   S    
C16   H4    S    
C29   H37   S    
