data_mof_unit_56400.cif
_audit_creation_date              2012-12-10T17:23:12-0500
_audit_creation_method            fapswitch 2.2
_symmetry_space_group_name_H-M    P1
_symmetry_Int_Tables_number       1
_space_group_crystal_system       triclinic
_cell_length_a                    15.858421
_cell_length_b                    10.783376
_cell_length_c                    9.614994
_cell_angle_alpha                 90.096715
_cell_angle_beta                  90.004989
_cell_angle_gamma                 92.731893
_cell_volume                      1642.36328433

loop_
_atom_site_label
_atom_site_type_symbol
_atom_type_description
_atom_site_fract_x
_atom_site_fract_y
_atom_site_fract_z
_atom_type_partial_charge
C1    C     C_R   0.496001 0.262544 0.499905 0.892641
C2    C     C_3   0.082909 0.502189 0.500492 0.091927
C3    C     C_3   0.974984 0.584717 0.590394 0.683977
C4    C     C_3   0.917224 0.501278 0.499552 0.070515
C5    C     C_3   0.031882 0.615501 0.464105 -0.226504
C6    C     C_3   0.973117 0.530507 0.371976 -0.227790
C7    C     C_1   0.174634 0.501828 0.500328 -0.020726
C8    C     C_1   0.825473 0.501327 0.499906 0.019016
C9    C     C_R   0.353469 0.115922 0.631053 0.558585
C10   C     C_R   0.290200 0.044007 0.697597 -0.179205
C11   C     C_R   0.293254 0.915605 0.700566 -0.229934
C12   C     C_R   0.339980 0.500417 0.499968 0.885183
C13   C     C_R   0.359395 0.857685 0.636177 -0.181115
C14   C     C_R   0.425306 0.928065 0.569858 0.036485
C15   C     C_R   0.423169 0.059398 0.568222 -0.018557
C16   C     C_R   0.489343 0.128225 0.499216 -0.098291
C17   C     C_R   0.552046 0.068167 0.427113 -0.196682
C18   C     C_R   0.553038 0.940363 0.427194 -0.166496
C19   C     C_R   0.491746 0.870424 0.500408 -0.044496
C20   C     C_R   0.611959 0.665821 0.144105 -0.248878
C21   C     C_R   0.666387 0.747334 0.072182 -0.290073
C22   C     C_R   0.666372 0.747461 0.928812 0.641223
C23   C     C_R   0.498050 0.737117 0.500120 0.752537
C24   C     C_R   0.611858 0.666024 0.856503 -0.228524
C25   C     C_R   0.554914 0.581650 0.925413 0.121717
C26   C     C_R   0.554932 0.581569 0.074878 0.223053
C27   C     C_R   0.447747 0.422312 0.073675 -0.055863
C28   C     C_R   0.447769 0.422342 0.925908 -0.034833
C29   C     C_R   0.660043 0.500463 0.500031 0.796601
C30   C     C_3   0.968546 0.388303 0.535884 -0.226052
C31   C     C_3   0.025793 0.417383 0.408158 -0.112907
C32   C     C_1   0.250224 0.501228 0.500091 -0.140948
C33   C     C_1   0.749848 0.501024 0.500032 -0.134702
C34   C     C_3   0.027283 0.472927 0.628423 -0.216886
Cu1   Cu    Cu3+1 0.499990 0.499990 0.640660 0.981526
Cu2   Cu    Cu3+1 0.500010 0.500010 0.359340 0.955080
H1    H     H_    0.048197 0.348149 0.332781 0.153002
H2    H     H_    0.243235 0.860399 0.750717 0.176071
H3    H     H_    0.357127 0.757450 0.637003 0.160117
H4    H     H_    0.603168 0.895749 0.372531 0.139398
H5    H     H_    0.404884 0.358538 0.128557 0.143040
H6    H     H_    0.617634 0.673030 0.253749 0.219853
H7    H     H_    0.709059 0.810696 0.128564 0.182756
H8    H     H_    0.617306 0.673230 0.746852 0.219621
H9    H     H_    0.404922 0.358573 0.870764 0.176607
H10   H     H_    0.941402 0.295113 0.564840 0.171877
H11   H     H_    0.949697 0.553674 0.266811 0.173291
H12   H     H_    0.058809 0.709036 0.436037 0.159048
H13   H     H_    0.050456 0.450523 0.733962 0.158356
H14   H     H_    0.601739 0.120916 0.372784 0.153584
H15   H     H_    0.237461 0.088206 0.745065 0.167468
N1    N     N_R   0.500800 0.501210 0.147910 -0.186782
N2    N     N_R   0.500830 0.501290 0.852040 -0.186177
O1    O     O_R   0.499990 0.319640 0.618810 -0.536639
O2    O     O_R   0.500000 0.319660 0.381240 -0.587744
O3    O     O_R   0.379070 0.499980 0.618770 -0.546104
O4    O     O_R   0.379080 0.500000 0.381190 -0.582265
O5    O     O_R   0.500000 0.680340 0.618760 -0.604868
O6    O     O_R   0.500010 0.680360 0.381190 -0.596157
O7    O     O_R   0.620920 0.500000 0.618810 -0.585547
O8    O     O_R   0.620930 0.500020 0.381230 -0.595167
F1    F     F_    0.719832 0.826926 0.858691 -0.634089
F2    F     F_    0.947255 0.670994 0.684364 -0.639189
F3    F     F_    0.342901 0.239533 0.623745 -0.703964

loop_
_geom_bond_atom_site_label_1
_geom_bond_atom_site_label_2
_ccdc_geom_bond_type
C17   H14   S    
Cu1   O3    S    
C23   O5    A    
C19   C23   S    
C28   N2    A    
C29   O8    A    
C24   C25   A    
C26   N1    A    
C22   F1    S    
C9    F3    S    
C9    C10   A    
C27   H5    S    
C20   H6    S    
C2    C7    S    
Cu2   N1    S    
C29   O7    A    
C30   C31   S    
C4    C8    S    
Cu2   O6    S    
C2    C34   S    
C17   C18   A    
C1    O2    A    
C1    C16   S    
C21   H7    S    
C13   C14   A    
C12   C32   S    
Cu1   O1    S    
C23   O6    A    
C11   C13   A    
C12   O3    A    
C20   C26   A    
C1    O1    A    
C12   O4    A    
C25   N2    A    
C18   C19   A    
C3    F2    S    
C8    C33   T    
Cu1   O5    S    
C9    C15   A    
C5    C6    S    
C24   H8    S    
C5    H12   S    
C22   C24   A    
C28   H9    S    
C13   H3    S    
C2    C5    S    
Cu1   N2    S    
C10   C11   A    
C10   H15   S    
Cu2   O8    S    
C6    C31   S    
C29   C33   S    
C20   C21   A    
C27   N1    A    
C4    C6    S    
Cu2   O4    S    
C6    H11   S    
C27   C28   A    
Cu2   O2    S    
C30   C34   S    
C14   C15   A    
C2    C31   S    
C11   H2    S    
C18   H4    S    
C7    C32   T    
C3    C34   S    
C3    C5    S    
C25   C26   A    
C21   C22   A    
C14   C19   A    
C30   H10   S    
C4    C30   S    
C3    C4    S    
C15   C16   A    
C16   C17   A    
C31   H1    S    
Cu1   O7    S    
C34   H13   S    
Cu1   Cu2   S    
