data_mof_unit_63697.cif
_audit_creation_date              2013-03-05T16:03:22-0500
_audit_creation_method            fapswitch 2.2
_symmetry_space_group_name_H-M    P1
_symmetry_Int_Tables_number       1
_space_group_crystal_system       triclinic
_cell_length_a                    18.338966
_cell_length_b                    18.336695
_cell_length_c                    43.101659
_cell_angle_alpha                 90.00178
_cell_angle_beta                  89.957721
_cell_angle_gamma                 89.999478
_cell_volume                      14494.0506556

loop_
_atom_site_label
_atom_site_type_symbol
_atom_site_description
_atom_site_fract_x
_atom_site_fract_y
_atom_site_fract_z
_atom_type_partial_charge
Zn1   Zn    Zn3+2 0.500000 0.086800 0.724180 0.997446
Zn2   Zn    Zn3+2 0.500000 0.913200 0.275820 0.997380
Zn3   Zn    Zn3+2 0.913200 0.500000 0.724180 0.998250
Zn4   Zn    Zn3+2 0.086800 0.500000 0.275820 0.997947
Zn5   Zn    Zn3+2 0.500000 0.913200 0.724180 0.997721
Zn6   Zn    Zn3+2 0.500000 0.086800 0.275820 0.997790
Zn7   Zn    Zn3+2 0.086800 0.500000 0.724180 0.998329
Zn8   Zn    Zn3+2 0.913200 0.500000 0.275820 0.996939
Zn9   Zn    Zn3+2 1.000000 0.586800 0.224180 0.997458
Zn10  Zn    Zn3+2 1.000000 0.413200 0.775820 0.996947
Zn11  Zn    Zn3+2 0.413200 0.000000 0.224180 0.997467
Zn12  Zn    Zn3+2 0.586800 0.000000 0.775820 0.997266
Zn13  Zn    Zn3+2 1.000000 0.413200 0.224180 0.996663
Zn14  Zn    Zn3+2 1.000000 0.586800 0.775820 0.996550
Zn15  Zn    Zn3+2 0.586800 0.000000 0.224180 0.997422
Zn16  Zn    Zn3+2 0.413200 0.000000 0.775820 0.997448
C1    C     C_R   0.011702 0.564943 0.884656 -0.227783
C2    C     C_R   0.988250 0.564930 0.115346 -0.227851
C3    C     C_R   0.435393 0.986350 0.884657 -0.227920
C4    C     C_R   0.434800 0.009715 0.115339 -0.227702
C5    C     C_R   0.988299 0.435062 0.884662 -0.227782
C6    C     C_R   0.011743 0.435065 0.115337 -0.227831
C7    C     C_R   0.564487 0.013694 0.884624 -0.227807
C8    C     C_R   0.565322 0.990312 0.115308 -0.227793
C9    C     C_R   0.500479 0.934012 0.384682 -0.227841
C10   C     C_R   0.499518 0.065989 0.615319 -0.227863
C11   C     C_R   0.056689 0.456762 0.383226 -0.233731
C12   C     C_R   0.945580 0.475447 0.613814 -0.231605
C13   C     C_R   0.499448 0.065996 0.384682 -0.226802
C14   C     C_R   0.500396 0.934004 0.615318 -0.227382
C15   C     C_R   0.938766 0.514098 0.385579 -0.229566
C16   C     C_R   0.059770 0.540895 0.617153 -0.227228
H1    H     H_    0.020464 0.615353 0.872096 0.209647
H2    H     H_    0.979453 0.615335 0.127907 0.209645
H3    H     H_    0.385300 0.976014 0.872101 0.209266
H4    H     H_    0.384125 0.016873 0.127902 0.209988
H5    H     H_    0.979537 0.384651 0.872107 0.209648
H6    H     H_    0.020540 0.384660 0.127891 0.209657
H7    H     H_    0.614590 0.024032 0.872046 0.209290
H8    H     H_    0.615984 0.983155 0.127848 0.209970
H9    H     H_    0.501523 0.882820 0.372152 0.210560
H10   H     H_    0.498550 0.117182 0.627848 0.210627
H11   H     H_    0.097999 0.429593 0.369451 0.203781
H12   H     H_    0.900704 0.447851 0.625203 0.202657
H13   H     H_    0.498420 0.117187 0.372154 0.210782
H14   H     H_    0.501379 0.882811 0.627845 0.210692
H15   H     H_    0.890222 0.533057 0.373771 0.210317
H16   H     H_    0.102011 0.566016 0.631097 0.201713
C17   C     C_R   0.011339 0.566066 0.917094 0.330024
C18   C     C_R   0.988611 0.566053 0.082907 0.330028
C19   C     C_R   0.434261 0.986624 0.917096 0.330191
C20   C     C_R   0.433691 0.009268 0.082903 0.329812
C21   C     C_R   0.988662 0.433940 0.917100 0.330015
C22   C     C_R   0.011381 0.433942 0.082899 0.330020
C23   C     C_R   0.565605 0.013416 0.917061 0.330064
C24   C     C_R   0.566449 0.990755 0.082868 0.329937
C25   C     C_R   0.501361 0.933003 0.417110 0.329948
C26   C     C_R   0.498586 0.066998 0.582890 0.329389
C27   C     C_R   0.055017 0.446412 0.415438 0.319138
C28   C     C_R   0.948957 0.477170 0.581279 0.328639
C29   C     C_R   0.498516 0.067007 0.417112 0.329797
C30   C     C_R   0.501278 0.932992 0.582888 0.329582
C31   C     C_R   0.938624 0.506748 0.417994 0.322873
C32   C     C_R   0.062933 0.547029 0.584858 0.334922
O1    O     O_3   0.500000 0.000000 0.750000 -0.493019
O2    O     O_3   0.500000 0.000000 0.250000 -0.492970
O3    O     O_3   0.000000 0.500000 0.750000 -0.493783
O4    O     O_3   0.000000 0.500000 0.250000 -0.493420
O5    O     O_R   0.439140 0.000000 0.819450 -0.638981
O6    O     O_R   0.560860 0.000000 0.180550 -0.639277
O7    O     O_R   0.000000 0.439140 0.819450 -0.638966
O8    O     O_R   1.000000 0.560860 0.180550 -0.639034
O9    O     O_R   0.560860 0.000000 0.819450 -0.638815
O10   O     O_R   0.439140 0.000000 0.180550 -0.639156
O11   O     O_R   0.000000 0.560860 0.819450 -0.638935
O12   O     O_R   1.000000 0.439140 0.180550 -0.638960
O13   O     O_R   0.939140 0.500000 0.319450 -0.637832
O14   O     O_R   0.060860 0.500000 0.680550 -0.634568
O15   O     O_R   0.500000 0.939140 0.319450 -0.639573
O16   O     O_R   0.500000 0.060860 0.680550 -0.639528
O17   O     O_R   0.060860 0.500000 0.319450 -0.633276
O18   O     O_R   0.939140 0.500000 0.680550 -0.632822
O19   O     O_R   0.500000 0.060860 0.319450 -0.639342
O20   O     O_R   0.500000 0.939140 0.680550 -0.639371
O21   O     O_R   0.646030 0.085480 0.768310 -0.643856
O22   O     O_R   0.353970 0.914520 0.231690 -0.643483
O23   O     O_R   0.914520 0.646030 0.768310 -0.643686
O24   O     O_R   0.085480 0.353970 0.231690 -0.643592
O25   O     O_R   0.353970 0.914520 0.768310 -0.643922
O26   O     O_R   0.646030 0.085480 0.231690 -0.643583
O27   O     O_R   0.085480 0.353970 0.768310 -0.643693
O28   O     O_R   0.914520 0.646030 0.231690 -0.643605
O29   O     O_R   0.646030 0.914520 0.231690 -0.643589
O30   O     O_R   0.353970 0.085480 0.768310 -0.643349
O31   O     O_R   0.914520 0.353970 0.231690 -0.643477
O32   O     O_R   0.085480 0.646030 0.768310 -0.643595
O33   O     O_R   0.353970 0.085480 0.231690 -0.643541
O34   O     O_R   0.646030 0.914520 0.768310 -0.643306
O35   O     O_R   0.085480 0.646030 0.231690 -0.643557
O36   O     O_R   0.914520 0.353970 0.768310 -0.643655
O37   O     O_R   0.146030 0.585480 0.268310 -0.642084
O38   O     O_R   0.853970 0.414520 0.731690 -0.643949
O39   O     O_R   0.414520 0.146030 0.268310 -0.643551
O40   O     O_R   0.585480 0.853970 0.731690 -0.643751
O41   O     O_R   0.853970 0.414520 0.268310 -0.643083
O42   O     O_R   0.146030 0.585480 0.731690 -0.644562
O43   O     O_R   0.585480 0.853970 0.268310 -0.643739
O44   O     O_R   0.414520 0.146030 0.731690 -0.643698
O45   O     O_R   0.146030 0.414520 0.731690 -0.641577
O46   O     O_R   0.853970 0.585480 0.268310 -0.643671
O47   O     O_R   0.414520 0.853970 0.731690 -0.642861
O48   O     O_R   0.585480 0.146030 0.268310 -0.643173
O49   O     O_R   0.853970 0.585480 0.731690 -0.642254
O50   O     O_R   0.146030 0.414520 0.268310 -0.644775
O51   O     O_R   0.585480 0.146030 0.731690 -0.643056
O52   O     O_R   0.414520 0.853970 0.268310 -0.643205
C33   C     C_R   0.000001 0.500002 0.868341 -0.122739
C34   C     C_R   0.999997 0.499998 0.131659 -0.122729
C35   C     C_R   0.499945 0.000019 0.868328 -0.122184
C36   C     C_R   0.500055 0.000012 0.131647 -0.123055
C37   C     C_R   0.499978 0.000003 0.368354 -0.124366
C38   C     C_R   0.499973 0.999997 0.631646 -0.124228
C39   C     C_R   0.999991 0.493631 0.368277 -0.121812
C40   C     C_R   0.001522 0.505520 0.631737 -0.115965
C41   C     C_R   0.933372 0.499858 0.983785 0.377673
C42   C     C_R   0.066624 0.499908 0.016215 0.377654
C43   C     C_R   0.497845 0.066611 0.983748 0.377677
C44   C     C_R   0.502402 0.933418 0.016213 0.377647
C45   C     C_R   0.066625 0.500145 0.983744 0.377669
C46   C     C_R   0.933371 0.500090 0.016256 0.377645
C47   C     C_R   0.502100 0.933412 0.983742 0.377733
C48   C     C_R   0.497669 0.066603 0.016219 0.377571
C49   C     C_R   0.564773 0.015316 0.483748 0.377090
C50   C     C_R   0.435071 0.984689 0.516252 0.377176
C51   C     C_R   0.974704 0.561663 0.482423 0.350106
C52   C     C_R   0.069794 0.475563 0.517296 0.367500
C53   C     C_R   0.435073 0.984692 0.483787 0.377262
C54   C     C_R   0.564774 0.015306 0.516212 0.377311
C55   C     C_R   0.076325 0.479409 0.484953 0.361516
C56   C     C_R   0.969715 0.561742 0.514953 0.390184
C57   C     C_R   0.499922 0.999996 0.532421 -0.168763
C58   C     C_R   0.499924 0.000008 0.467579 -0.168868
C59   C     C_R   0.014041 0.514529 0.532368 -0.167807
C60   C     C_R   0.018199 0.508457 0.467138 -0.180059
C61   C     C_R   0.999997 0.499998 0.032426 -0.169245
C62   C     C_R   0.999999 0.500003 0.967575 -0.169265
C63   C     C_R   0.500066 0.000010 0.032407 -0.169186
C64   C     C_R   0.499941 0.000012 0.967556 -0.169357
C65   C     C_R   0.499978 0.000003 0.834233 0.858288
C66   C     C_R   0.500022 0.000002 0.165758 0.858652
C67   C     C_R   0.000001 0.500001 0.834238 0.858854
C68   C     C_R   0.999999 0.499999 0.165762 0.858687
C69   C     C_R   0.999956 0.499451 0.334244 0.853288
C70   C     C_R   0.000151 0.500620 0.665770 0.848812
C71   C     C_R   0.499998 0.000001 0.334243 0.858874
C72   C     C_R   0.499995 0.999999 0.665757 0.858631
C73   C     C_R   0.640098 0.140110 0.749998 0.800016
C74   C     C_R   0.359901 0.859891 0.250003 0.799917
C75   C     C_R   0.859901 0.640110 0.750003 0.799275
C76   C     C_R   0.140096 0.359888 0.249999 0.798782
C77   C     C_R   0.359885 0.859892 0.750001 0.800575
C78   C     C_R   0.640115 0.140107 0.249999 0.800075
C79   C     C_R   0.140115 0.359893 0.749999 0.799950
C80   C     C_R   0.859885 0.640106 0.250001 0.800101
C81   C     C_R   0.640113 0.859892 0.249998 0.800130
C82   C     C_R   0.359886 0.140107 0.750002 0.799897
C83   C     C_R   0.859887 0.359891 0.250002 0.799606
C84   C     C_R   0.140112 0.640110 0.749997 0.798829
C85   C     C_R   0.359900 0.140109 0.250004 0.800116
C86   C     C_R   0.640099 0.859891 0.749996 0.799473
C87   C     C_R   0.140100 0.640108 0.249996 0.799932
C88   C     C_R   0.859900 0.359891 0.750003 0.798874
C89   C     C_R   0.309754 0.256259 0.730012 -0.162092
C90   C     C_R   0.690330 0.743824 0.270038 -0.161524
C91   C     C_R   0.743859 0.309651 0.729969 -0.161822
C92   C     C_R   0.256240 0.690251 0.269973 -0.161201
C93   C     C_R   0.690304 0.743719 0.730015 -0.162386
C94   C     C_R   0.309556 0.256142 0.270068 -0.160531
C95   C     C_R   0.256141 0.690422 0.729918 -0.161048
C96   C     C_R   0.743733 0.309702 0.270007 -0.161748
C97   C     C_R   0.309708 0.743711 0.269977 -0.161533
C98   C     C_R   0.690389 0.256193 0.729965 -0.160652
C99   C     C_R   0.743789 0.690357 0.270040 -0.161480
C100  C     C_R   0.256295 0.309727 0.730010 -0.160705
C101  C     C_R   0.690274 0.256235 0.270005 -0.161158
C102  C     C_R   0.309602 0.743887 0.729921 -0.159422
C103  C     C_R   0.256083 0.309598 0.270066 -0.160610
C104  C     C_R   0.743774 0.690261 0.730019 -0.160994
C105  C     C_R   0.809662 0.756167 0.229956 -0.160265
C106  C     C_R   0.190248 0.243741 0.769989 -0.162548
C107  C     C_R   0.243766 0.809745 0.230024 -0.162214
C108  C     C_R   0.756133 0.190356 0.770037 -0.160465
C109  C     C_R   0.190427 0.243843 0.229942 -0.160338
C110  C     C_R   0.809700 0.756285 0.769982 -0.162702
C111  C     C_R   0.756275 0.190289 0.229999 -0.162509
C112  C     C_R   0.243845 0.809589 0.770073 -0.160616
C113  C     C_R   0.809604 0.243814 0.770040 -0.160459
C114  C     C_R   0.190297 0.756286 0.230020 -0.162450
C115  C     C_R   0.243706 0.190274 0.769991 -0.162422
C116  C     C_R   0.756203 0.809635 0.229954 -0.160358
C117  C     C_R   0.190385 0.756123 0.770071 -0.160161
C118  C     C_R   0.809735 0.243755 0.230001 -0.162274
C119  C     C_R   0.756229 0.809743 0.769979 -0.162279
C120  C     C_R   0.243899 0.190386 0.229945 -0.160157
H17   H     H_    0.355669 0.261968 0.714378 0.176614
H18   H     H_    0.644486 0.738185 0.285713 0.176530
H19   H     H_    0.738246 0.355480 0.714297 0.177035
H20   H     H_    0.261935 0.644340 0.285596 0.176918
H21   H     H_    0.644436 0.737991 0.714386 0.176488
H22   H     H_    0.355315 0.261762 0.285762 0.176839
H23   H     H_    0.261755 0.644648 0.714212 0.177758
H24   H     H_    0.738016 0.355578 0.285652 0.176788
H25   H     H_    0.355583 0.737978 0.285602 0.176764
H26   H     H_    0.644595 0.261845 0.714293 0.177265
H27   H     H_    0.738126 0.644536 0.285716 0.176703
H28   H     H_    0.262031 0.355620 0.714377 0.177687
H29   H     H_    0.644377 0.261929 0.285650 0.176943
H30   H     H_    0.355400 0.738293 0.714217 0.177762
H31   H     H_    0.261658 0.355392 0.285760 0.176938
H32   H     H_    0.738086 0.644355 0.714392 0.177216
H33   H     H_    0.855506 0.761805 0.214280 0.176995
H34   H     H_    0.144332 0.238031 0.785622 0.176060
H35   H     H_    0.238071 0.855655 0.214400 0.176096
H36   H     H_    0.761746 0.144527 0.785709 0.176980
H37   H     H_    0.144668 0.238224 0.214248 0.177037
H38   H     H_    0.855568 0.762014 0.785611 0.176050
H39   H     H_    0.761992 0.144413 0.214354 0.176054
H40   H     H_    0.238229 0.855365 0.785778 0.176967
H41   H     H_    0.855398 0.238162 0.785713 0.176972
H42   H     H_    0.144421 0.762019 0.214395 0.176081
H43   H     H_    0.237971 0.144381 0.785624 0.176017
H44   H     H_    0.761866 0.855456 0.214278 0.177006
H45   H     H_    0.144588 0.761717 0.785775 0.177028
H46   H     H_    0.855632 0.238061 0.214357 0.176116
H47   H     H_    0.761917 0.855649 0.785606 0.176072
H48   H     H_    0.238322 0.144590 0.214252 0.177111
C121  C     C_R   0.196264 0.303746 0.749998 -0.007170
C122  C     C_R   0.803735 0.696251 0.250000 -0.007653
C123  C     C_R   0.696247 0.196264 0.749999 -0.007780
C124  C     C_R   0.303752 0.803738 0.250003 -0.006689
C125  C     C_R   0.803752 0.696264 0.750003 -0.006679
C126  C     C_R   0.196241 0.303731 0.250001 -0.007523
C127  C     C_R   0.303734 0.803748 0.750000 -0.008347
C128  C     C_R   0.696265 0.196252 0.250000 -0.006866
C129  C     C_R   0.196252 0.696260 0.249995 -0.006865
C130  C     C_R   0.803748 0.303741 0.750006 -0.007690
C131  C     C_R   0.696259 0.803743 0.249995 -0.007599
C132  C     C_R   0.303738 0.196254 0.750002 -0.006776
C133  C     C_R   0.803741 0.303742 0.250004 -0.006816
C134  C     C_R   0.196256 0.696260 0.749994 -0.008132
C135  C     C_R   0.303746 0.196258 0.250007 -0.007841
C136  C     C_R   0.696251 0.803740 0.749995 -0.006547
C137  C     C_R   0.000000 0.500003 0.933463 -0.020219
C138  C     C_R   0.999996 0.499997 0.066537 -0.020228
C139  C     C_R   0.499932 0.000016 0.933445 -0.020313
C140  C     C_R   0.500072 0.000009 0.066519 -0.020148
C141  C     C_R   0.499929 0.000006 0.433471 -0.020267
C142  C     C_R   0.499924 0.999995 0.566529 -0.020053
C143  C     C_R   0.004460 0.487297 0.433424 -0.014516
C144  C     C_R   0.008325 0.513063 0.566605 -0.022712
Cl1   Cl    Cl    0.849823 0.500496 0.963342 -0.385733
Cl2   Cl    Cl    0.150173 0.500609 0.036658 -0.385929
Cl3   Cl    Cl    0.494331 0.150103 0.963282 -0.385899
Cl4   Cl    Cl    0.504595 0.849877 0.036677 -0.385823
Cl5   Cl    Cl    0.150176 0.499511 0.963249 -0.385810
Cl6   Cl    Cl    0.849821 0.499387 0.036751 -0.385993
Cl7   Cl    Cl    0.505546 0.849922 0.963269 -0.385935
Cl8   Cl    Cl    0.495544 0.150143 0.036688 -0.385823
Cl9   Cl    Cl    0.646449 0.033092 0.463271 -0.388811
Cl10  Cl    Cl    0.353394 0.966919 0.536728 -0.386572
Cl11  Cl    Cl    0.939252 0.637740 0.462103 -0.385084
Cl12  Cl    Cl    0.133508 0.423622 0.538737 -0.378448
Cl13  Cl    Cl    0.353400 0.966920 0.463359 -0.387848
Cl14  Cl    Cl    0.646453 0.033062 0.536639 -0.388354
Cl15  Cl    Cl    0.165915 0.474726 0.469850 -0.352963
Cl16  Cl    Cl    0.910019 0.623005 0.533908 -0.374686
N1    N     N_R   0.022825 0.634456 0.932871 0.240675
O53   O     O_R   0.988541 0.649479 0.958526 -0.288932
O54   O     O_R   0.061949 0.685256 0.919911 -0.300399
N2    N     N_R   0.977075 0.634434 0.067133 0.240684
O55   O     O_R   0.011349 0.649483 0.041478 -0.288866
O56   O     O_R   0.937911 0.685204 0.080093 -0.300586
N3    N     N_R   0.366282 0.972930 0.932892 0.240701
O57   O     O_R   0.316765 0.932211 0.919946 -0.300470
O58   O     O_R   0.350178 0.006646 0.958560 -0.288740
N4    N     N_R   0.364971 0.018519 0.067143 0.240654
O59   O     O_R   0.312922 0.055974 0.080106 -0.300521
O60   O     O_R   0.351059 0.983713 0.041515 -0.289062
N5    N     N_R   0.977176 0.365551 0.932882 0.240664
O61   O     O_R   0.011462 0.350527 0.958515 -0.288959
O62   O     O_R   0.938049 0.314752 0.919947 -0.300350
N6    N     N_R   0.022917 0.365561 0.067115 0.240679
O63   O     O_R   0.062079 0.314789 0.080050 -0.300544
O64   O     O_R   0.988645 0.350513 0.041481 -0.288878
N7    N     N_R   0.633578 0.027113 0.932819 0.240626
O65   O     O_R   0.683067 0.067895 0.919859 -0.300488
O66   O     O_R   0.649713 0.993326 0.958455 -0.288889
N8    N     N_R   0.635176 0.981505 0.067070 0.240730
O67   O     O_R   0.687247 0.944114 0.080018 -0.300484
O68   O     O_R   0.649067 0.016242 0.041416 -0.288917
N9    N     N_R   0.503623 0.863723 0.432903 0.240534
O69   O     O_R   0.540803 0.855683 0.458375 -0.286928
O70   O     O_R   0.474819 0.806280 0.420089 -0.302280
N10   N     N_R   0.496374 0.136280 0.567098 0.240514
O71   O     O_R   0.525263 0.193692 0.579902 -0.299511
O72   O     O_R   0.459160 0.144358 0.541637 -0.286966
N11   N     N_R   0.091047 0.383142 0.427847 0.248652
O73   O     O_R   0.149000 0.357051 0.414366 -0.294525
O74   O     O_R   0.059623 0.344753 0.449462 -0.288118
N12   N     N_R   0.892329 0.441662 0.563697 0.243082
O75   O     O_R   0.826989 0.435684 0.575225 -0.294326
O76   O     O_R   0.907119 0.408408 0.537775 -0.296252
N13   N     N_R   0.496225 0.136289 0.432906 0.241111
O77   O     O_R   0.525034 0.193736 0.420081 -0.300474
O78   O     O_R   0.459016 0.144324 0.458394 -0.285176
N14   N     N_R   0.503459 0.863709 0.567093 0.240449
O79   O     O_R   0.474568 0.806305 0.579919 -0.297795
O80   O     O_R   0.540644 0.855622 0.541601 -0.287782
N15   N     N_R   0.870054 0.509793 0.434272 0.246498
O81   O     O_R   0.859011 0.468471 0.458378 -0.281064
O82   O     O_R   0.815199 0.545552 0.422627 -0.286794
N16   N     N_R   0.121797 0.587840 0.571070 0.242527
O83   O     O_R   0.184794 0.591336 0.584877 -0.296388
O84   O     O_R   0.110684 0.628293 0.546725 -0.304413

loop_
_geom_bond_atom_site_label_1
_geom_bond_atom_site_label_2
_geom_bond_distance
_ccdc_geom_bond_type
C35   C65   1.469538 S    
N16   O84   1.301216 A    
C111  C128  1.401752 A    
C112  H40   1.083148 S    
C109  C126  1.401736 A    
O47   C77   1.279623 A    
C91   H19   1.083141 S    
N9    O69   1.301196 A    
C54   Cl14  1.768284 S    
C41   C62   1.407092 A    
C28   N12   1.441461 S    
C47   Cl7   1.768122 S    
Zn11  O22   1.934166 S    
C6    H6    1.083162 S    
C115  H43   1.083144 S    
C5    C33   1.399538 A    
Zn2   O52   1.934561 S    
C14   C38   1.399865 A    
O6    C66   1.285431 A    
C57   C142  1.470116 S    
O32   C84   1.279622 A    
C2    C34   1.399536 A    
Zn10  O7    1.939733 S    
Zn16  O25   1.934418 S    
Zn12  O9    1.939422 S    
C104  C125  1.401877 A    
C106  C121  1.401835 A    
Zn6   O48   1.934184 S    
C81   C131  1.456108 S    
C106  C115  1.386487 A    
C104  H32   1.083142 S    
C99   H27   1.083147 S    
N12   O76   1.301269 A    
C8    C36   1.399652 A    
O45   C79   1.279754 A    
C9    H9    1.083100 S    
O46   C80   1.279751 A    
O27   C79   1.279633 A    
C42   C45   1.399535 A    
Zn15  O2    1.941595 S    
C12   H12   1.083392 S    
C13   H13   1.083098 S    
N14   O79   1.301513 A    
C118  H46   1.083146 S    
C51   Cl11  1.771083 S    
Zn7   O42   1.934416 S    
C52   Cl12  1.768625 S    
C21   N5    1.442047 S    
C97   C124  1.401739 A    
Zn10  O27   1.934157 S    
C61   C138  1.470279 S    
N8    O67   1.301614 A    
C107  H35   1.083143 S    
C4    C36   1.399675 A    
C6    C34   1.399535 A    
O44   C82   1.279631 A    
Zn6   O19   1.939762 S    
Zn11  O10   1.939422 S    
C44   C63   1.407105 A    
C7    C23   1.398251 A    
C8    C24   1.398383 A    
Zn16  O30   1.934416 S    
C111  H39   1.083146 S    
C82   C132  1.456103 S    
C92   H20   1.083140 S    
N6    O64   1.301138 A    
C109  H37   1.083147 S    
C120  H48   1.083145 S    
C3    H3    1.083244 S    
C50   C57   1.407172 A    
N4    O60   1.301119 A    
O20   C72   1.285282 A    
C28   C144  1.420419 A    
C25   C141  1.416802 A    
O23   C75   1.280189 A    
O24   C76   1.280186 A    
C77   C127  1.456122 S    
O15   C71   1.285283 A    
O41   C83   1.279724 A    
C90   H18   1.083145 S    
Zn16  O1    1.941594 S    
Zn1   O51   1.934560 S    
C76   C126  1.456191 S    
C9    C37   1.399862 A    
C53   C58   1.407162 A    
O43   C81   1.279636 A    
O36   C88   1.280195 A    
Zn9   O8    1.939733 S    
Zn8   O41   1.934418 S    
C27   N11   1.438483 S    
C6    C22   1.398312 A    
C95   C102  1.386496 A    
C102  H30   1.083148 S    
C49   C58   1.407159 A    
C93   C104  1.386516 A    
C26   C142  1.416804 A    
C52   C59   1.406022 A    
C31   C143  1.424224 A    
C106  H34   1.083146 S    
C20   N4    1.442110 S    
N13   O78   1.301198 A    
O19   C71   1.285284 A    
C114  C129  1.401740 A    
C18   N2    1.442048 S    
O17   C69   1.285745 A    
C94   H22   1.083147 S    
C55   C60   1.418026 A    
C96   H24   1.083143 S    
O13   C69   1.285175 A    
C89   C100  1.386487 A    
O11   C67   1.285181 A    
Zn1   O1    1.942135 S    
Zn14  O3    1.942076 S    
C79   C121  1.456108 S    
C23   N7    1.442057 S    
N10   O72   1.301200 A    
N1    O53   1.301139 A    
C22   C138  1.417131 A    
C55   Cl15  1.768892 S    
C9    C25   1.397968 A    
C103  C126  1.401879 A    
Zn9   O28   1.934158 S    
C42   C61   1.407094 A    
C98   C123  1.401741 A    
C101  C128  1.401833 A    
C12   C28   1.404012 A    
C13   C29   1.397971 A    
Zn4   O17   1.939422 S    
C112  C127  1.401756 A    
C15   C31   1.403634 A    
N2    O55   1.301139 A    
C16   C32   1.397701 A    
C1    C17   1.398311 A    
Zn4   O4    1.942938 S    
Zn5   O20   1.939762 S    
C93   C136  1.401734 A    
C4    H4    1.083188 S    
O52   C74   1.280197 A    
Zn8   O46   1.934416 S    
C2    H2    1.083164 S    
C17   N1    1.442048 S    
N5    O61   1.301138 A    
C86   C136  1.456197 S    
C33   C67   1.469883 S    
O49   C75   1.280004 A    
C34   C68   1.469870 S    
O50   C76   1.280000 A    
C115  C132  1.401747 A    
C89   C132  1.401833 A    
C24   C140  1.417159 A    
Zn8   O13   1.940102 S    
C78   C128  1.456114 S    
C44   C47   1.399560 A    
C10   H10   1.083099 S    
O40   C86   1.280186 A    
C107  C124  1.401876 A    
Zn15  O6    1.940102 S    
C30   C142  1.416802 A    
N10   O71   1.301512 A    
C48   C63   1.407103 A    
C14   H14   1.083101 S    
Zn2   O2    1.942134 S    
O31   C83   1.279624 A    
C12   C40   1.398039 A    
C113  H41   1.083145 S    
C50   Cl10  1.768280 S    
C84   C134  1.456109 S    
C95   C134  1.401756 A    
Zn11  O33   1.934132 S    
N8    O68   1.301119 A    
Zn3   O38   1.934166 S    
Zn7   O3    1.941595 S    
O34   C86   1.280004 A    
C118  C133  1.401831 A    
C41   Cl1   1.768110 S    
N3    O57   1.301620 A    
O39   C85   1.280188 A    
C97   H25   1.083148 S    
C112  C117  1.386492 A    
C26   N10   1.441869 S    
Zn13  O4    1.942080 S    
C110  C125  1.401735 A    
C107  C114  1.386523 A    
C29   C141  1.416806 A    
C19   C139  1.417215 A    
O30   C82   1.279750 A    
C50   C53   1.399291 A    
N15   O82   1.301773 A    
C21   C137  1.417126 A    
C31   N15   1.440625 S    
Zn4   O50   1.934133 S    
C99   C122  1.401747 A    
C102  C127  1.401839 A    
C100  H28   1.083141 S    
O12   C68   1.285181 A    
N14   O80   1.301196 A    
Zn14  O32   1.934184 S    
C60   C143  1.525182 S    
Zn2   O15   1.939733 S    
C22   N6    1.442047 S    
C120  C135  1.401882 A    
O7    C67   1.285177 A    
C94   C135  1.401741 A    
O8    C68   1.285177 A    
C13   C37   1.399864 A    
C56   C59   1.405228 A    
Zn12  O34   1.934133 S    
Zn11  O2    1.942942 S    
C1    C33   1.399535 A    
C43   C64   1.407064 A    
C29   N13   1.441877 S    
N16   O83   1.301526 A    
C3    C35   1.399417 A    
C49   C54   1.399278 A    
C15   H15   1.083088 S    
C46   C61   1.407092 A    
O38   C88   1.280032 A    
C16   H16   1.083597 S    
C27   C143  1.421821 A    
C51   C56   1.404982 A    
C1    H1    1.083160 S    
C52   C55   1.400879 A    
C25   N9    1.441874 S    
C105  C122  1.401841 A    
C116  C131  1.401750 A    
O25   C77   1.279730 A    
C90   C131  1.401836 A    
N9    O70   1.301511 A    
C92   C97   1.386520 A    
Zn16  O5    1.940102 S    
N11   O73   1.301957 A    
C108  H36   1.083145 S    
N7    O66   1.301105 A    
N7    O65   1.301620 A    
O14   C70   1.283175 A    
C58   C141  1.470107 S    
C119  H47   1.083141 S    
C113  C130  1.401749 A    
C18   C138  1.417127 A    
C117  H45   1.083149 S    
C88   C130  1.456216 S    
Zn4   O37   1.934164 S    
C108  C113  1.386526 A    
Zn10  O36   1.934561 S    
C10   C26   1.397962 A    
C45   C62   1.407094 A    
C94   C103  1.386520 A    
O26   C78   1.279728 A    
C14   C30   1.397969 A    
C62   C137  1.470284 S    
C80   C122  1.456105 S    
O21   C73   1.280024 A    
C54   C57   1.407172 A    
C100  C121  1.401749 A    
C45   Cl5   1.768110 S    
C2    C18   1.398303 A    
C39   C69   1.470742 S    
N12   O75   1.301488 A    
C37   C71   1.470240 S    
O9    C65   1.285134 A    
C38   C72   1.470241 S    
C90   C99   1.386487 A    
Zn15  O29   1.934418 S    
C92   C129  1.401880 A    
Zn12  O1    1.942938 S    
C36   C66   1.470227 S    
O5    C65   1.285245 A    
Zn14  O11   1.939762 S    
C110  H38   1.083145 S    
C20   C140  1.417098 A    
C7    C35   1.399437 A    
N13   O77   1.301512 A    
C43   Cl3   1.768131 S    
O37   C87   1.280031 A    
C44   Cl4   1.768137 S    
C87   C129  1.456223 S    
Zn7   O14   1.940102 S    
N15   O81   1.301719 A    
C46   Cl6   1.768110 S    
C11   H11   1.083493 S    
C5    H5    1.083159 S    
Zn1   O16   1.939733 S    
C89   H17   1.083149 S    
C10   C38   1.399863 A    
C75   C125  1.456200 S    
C32   N16   1.441401 S    
C40   C70   1.469793 S    
N3    O58   1.301110 A    
C16   C40   1.398583 A    
C111  C118  1.386491 A    
C103  H31   1.083146 S    
Zn10  O3    1.942134 S    
C109  C120  1.386517 A    
C101  H29   1.083149 S    
Zn12  O21   1.934164 S    
O51   C73   1.280202 A    
N6    O63   1.301524 A    
N2    O56   1.301522 A    
Zn14  O23   1.934557 S    
N4    O59   1.301613 A    
C105  H33   1.083149 S    
O35   C87   1.280198 A    
C95   H23   1.083152 S    
Zn2   O43   1.934157 S    
O33   C85   1.280007 A    
C42   Cl2   1.768106 S    
C93   H21   1.083147 S    
C43   C48   1.399547 A    
C8    H8    1.083187 S    
C41   C46   1.399534 A    
C73   C123  1.456216 S    
C91   C130  1.401876 A    
O28   C80   1.279632 A    
Zn5   O40   1.934555 S    
O29   C81   1.279748 A    
Zn9   O35   1.934560 S    
C19   N3    1.442061 S    
O16   C72   1.285281 A    
Zn5   O1    1.942080 S    
Zn3   O49   1.934132 S    
C11   C39   1.397990 A    
C108  C123  1.401880 A    
Zn5   O47   1.934186 S    
C24   N8    1.442116 S    
Zn6   O39   1.934557 S    
C23   C139  1.417153 A    
Zn7   O45   1.934418 S    
N11   O74   1.301837 A    
O42   C84   1.279720 A    
C48   Cl8   1.768142 S    
C17   C137  1.417129 A    
C96   C133  1.401758 A    
C49   Cl9   1.768281 S    
Zn13  O12   1.939762 S    
Zn3   O18   1.939422 S    
C47   C64   1.407065 A    
O22   C74   1.280024 A    
C91   C98   1.386521 A    
C105  C116  1.386493 A    
C51   C60   1.421710 A    
Zn8   O4    1.941594 S    
N1    O54   1.301519 A    
C63   C140  1.470297 S    
Zn3   O3    1.942942 S    
C59   C144  1.479554 S    
C114  H42   1.083145 S    
O48   C78   1.279619 A    
C83   C133  1.456115 S    
C56   Cl16  1.768209 S    
Zn9   O4    1.942135 S    
C15   C39   1.398724 A    
C4    C20   1.398266 A    
C11   C27   1.401590 A    
Zn15  O26   1.934416 S    
C5    C21   1.398305 A    
C7    H7    1.083247 S    
C110  C119  1.386516 A    
Zn13  O24   1.934555 S    
C53   Cl13  1.768276 S    
N5    O62   1.301519 A    
C96   C101  1.386495 A    
Zn1   O44   1.934158 S    
C119  C136  1.401878 A    
O18   C70   1.287182 A    
C3    C19   1.398365 A    
Zn6   O2    1.942076 S    
C116  H44   1.083149 S    
Zn13  O31   1.934186 S    
C64   C139  1.470228 S    
C30   N14   1.441866 S    
C117  C134  1.401835 A    
C98   H26   1.083148 S    
O10   C66   1.285320 A    
C85   C135  1.456207 S    
C32   C144  1.418059 A    
C74   C124  1.456211 S    
