data_mof_unit_18455.cif
_audit_creation_date              2013-03-05T15:42:46-0500
_audit_creation_method            fapswitch 2.2
_symmetry_space_group_name_H-M    P1
_symmetry_Int_Tables_number       1
_space_group_crystal_system       triclinic
_cell_length_a                    9.724852
_cell_length_b                    11.011879
_cell_length_c                    13.491003
_cell_angle_alpha                 90.489128
_cell_angle_beta                  73.176124
_cell_angle_gamma                 90.588352
_cell_volume                      1382.8040898

loop_
_atom_site_label
_atom_site_type_symbol
_atom_site_description
_atom_site_fract_x
_atom_site_fract_y
_atom_site_fract_z
_atom_type_partial_charge
O1    O     O_R   0.382960 0.678040 0.499980 -0.557323
O2    O     O_R   0.617100 0.678080 0.500020 -0.520750
C1    C     C_R   0.498424 0.733238 0.505335 0.886516
O3    O     O_R   0.325800 0.499940 0.650950 -0.616022
O4    O     O_R   0.559930 0.499980 0.650990 -0.568077
C2    C     C_R   0.424899 0.486050 0.698721 0.839601
Cu1   Cu    Cu3+1 0.361370 0.499980 0.499980 1.007655
Cu2   Cu    Cu3+1 0.638630 0.500020 0.500020 1.087661
O5    O     O_R   0.382900 0.321920 0.499980 -0.583200
O6    O     O_R   0.617040 0.321960 0.500020 -0.564814
O7    O     O_R   0.440070 0.500020 0.349010 -0.587091
O8    O     O_R   0.674200 0.500060 0.349050 -0.526163
C3    C     C_R   0.499778 0.266126 0.499205 0.872520
C4    C     C_R   0.576970 0.502818 0.300297 0.848845
C5    C     C_R   0.798135 0.543891 0.019149 -0.139562
H1    H     H_    0.852517 0.459482 0.821771 0.110090
C6    C     C_R   0.621649 0.507067 0.186409 -0.172662
C7    C     C_R   0.241040 0.437872 0.864399 -0.171357
C8    C     C_R   0.199299 0.421333 0.970894 -0.030951
C9    C     C_R   0.298733 0.434012 0.026704 -0.102968
C10   C     C_R   0.446603 0.452173 0.975329 0.074429
C11   C     C_R   0.491014 0.448433 0.865602 0.088034
C12   C     C_R   0.552340 0.475432 0.028179 0.094915
C13   C     C_R   0.697601 0.497304 0.970307 0.038970
C14   C     C_R   0.740332 0.465593 0.865498 -0.189978
C15   C     C_R   0.639139 0.435186 0.815674 -0.075604
C16   C     C_R   0.518052 0.479610 0.136092 -0.254570
C17   C     C_R   0.761839 0.541876 0.128293 0.343846
C18   C     C_R   0.385970 0.456047 0.810483 -0.076785
H2    H     H_    0.411381 0.457724 0.183263 0.176527
H3    H     H_    0.159382 0.436315 0.824241 0.134045
H4    H     H_    0.255813 0.428466 0.109557 0.162882
H5    H     H_    0.087434 0.404117 0.011118 0.177397
H6    H     H_    0.680743 0.398928 0.738480 0.197647
C19   C     C_2   0.595046 0.062213 0.509914 -0.049814
C20   C     C_2   0.503819 0.136652 0.483052 -0.232805
H7    H     H_    0.431625 0.100127 0.441517 0.165144
C21   C     C_2   0.593555 0.937038 0.475501 0.123147
C22   C     C_2   0.490351 0.860997 0.530221 0.094157
C23   C     C_2   0.055740 0.574617 0.556188 -0.093177
N1    N     N_2   0.152660 0.501340 0.501130 -0.332352
H8    H     H_    0.127901 0.452240 0.443393 0.209403
C24   C     C_2   0.905145 0.584279 0.545282 0.392694
N2    N     N_2   0.846520 0.501370 0.501160 -0.325918
H9    H     H_    0.903578 0.423505 0.475700 0.178930
N3    N     N_R   0.867039 0.574188 0.179714 0.166056
O9    O     O_R   0.952139 0.491879 0.196980 -0.379844
O10   O     O_R   0.875791 0.685012 0.211428 -0.209451
N4    N     N_R   0.693005 0.902451 0.377877 0.157709
O11   O     O_R   0.817207 0.956956 0.345964 -0.277958
O12   O     O_R   0.649284 0.835809 0.312617 -0.328881
N5    N     N_R   0.384717 0.898175 0.624431 0.136039
O13   O     O_R   0.299714 0.988642 0.624537 -0.299691
O14   O     O_R   0.356661 0.828284 0.705280 -0.308218
C25   C     C_2   0.091769 0.655010 0.633291 0.588831
H10   H     H_    0.115045 0.617258 0.700220 0.041848
O15   O     O_2   0.091238 0.765109 0.624043 -0.429977
N6    N     N_R   0.822651 0.688012 0.590802 0.163089
O16   O     O_R   0.742804 0.683845 0.686454 -0.356133
O17   O     O_R   0.852345 0.792751 0.545396 -0.304483
C26   C     C_2   0.932663 0.605506 0.956081 0.418550
H11   H     H_    0.953179 0.616573 0.873486 0.060116
O18   O     O_2   0.019695 0.650408 0.995399 -0.446080
C27   C     C_2   0.686411 0.093747 0.577747 0.486624
H12   H     H_    0.780707 0.039777 0.573367 0.139477
O19   O     O_2   0.653297 0.174130 0.642974 -0.550735

loop_
_geom_bond_atom_site_label_1
_geom_bond_atom_site_label_2
_geom_bond_distance
_ccdc_geom_bond_type
O4    Cu2   1.957478 S    
C24   N2    1.299759 D    
O6    C3    1.292786 A    
C13   C14   1.395846 A    
C23   N1    1.300518 D    
C19   C27   1.485404 S    
C11   C18   1.430407 A    
C12   C16   1.396776 A    
N1    H8    1.027489 S    
C8    C9    1.392241 A    
C19   C20   1.340321 D    
Cu2   O8    1.964723 S    
C23   C25   1.475586 S    
C27   H12   1.084820 S    
C26   H11   1.081399 S    
C25   H10   1.079813 S    
Cu1   N1    2.025446 S    
C22   N5    1.443010 S    
C5    C26   1.497707 S    
C1    C22   1.441217 S    
Cu1   Cu2   2.696465 S    
C7    C18   1.399593 A    
O1    Cu1   1.969839 S    
C10   C11   1.417332 A    
N5    O13   1.300756 A    
C16   H2    1.074492 S    
Cu1   O7    1.957479 S    
C4    C6    1.471744 S    
C17   N3    1.433048 S    
C5    C17   1.411652 A    
C21   C22   1.348274 D    
O3    Cu1   1.964723 S    
O3    C2    1.315960 A    
C5    C13   1.417758 A    
C14   C15   1.380098 A    
N5    O14   1.301633 A    
O2    C1    1.292975 A    
C25   O15   1.220075 D    
C10   C12   1.430805 A    
C8    H5    1.081510 S    
O4    C2    1.292535 A    
O7    C4    1.303198 A    
N3    O10   1.299878 A    
C12   C13   1.421593 A    
N6    O17   1.300667 A    
C6    C16   1.397614 A    
Cu1   O5    1.974060 S    
C2    C18   1.483712 S    
C7    C8    1.388334 A    
C9    C10   1.416963 A    
C3    C20   1.439689 S    
Cu2   O6    1.969839 S    
N4    O11   1.301155 A    
C9    H4    1.076067 S    
H1    C14   1.082149 S    
C21   N4    1.441073 S    
O5    C3    1.294933 A    
C19   C21   1.452015 S    
C20   H7    1.089375 S    
C11   C15   1.411022 A    
C7    H3    1.083067 S    
C24   N6    1.430817 S    
N4    O12   1.301422 A    
N6    O16   1.300199 A    
N3    O9    1.300495 A    
C6    C17   1.412790 A    
C15   H6    1.077022 S    
C26   O18   1.220249 D    
O2    Cu2   1.974058 S    
N2    H9    1.027374 S    
Cu2   N2    2.026106 S    
O8    C4    1.299436 A    
O1    C1    1.291398 A    
C23   C24   1.518547 S    
C27   O19   1.220693 D    
