data_mof_unit_10180.cif
_audit_creation_date              2012-12-10T17:31:22-0500
_audit_creation_method            fapswitch 2.2
_symmetry_space_group_name_H-M    P1
_symmetry_Int_Tables_number       1
_space_group_crystal_system       triclinic
_cell_length_a                    19.166924
_cell_length_b                    18.755357
_cell_length_c                    12.329265
_cell_angle_alpha                 90.06294
_cell_angle_beta                  128.927627
_cell_angle_gamma                 89.909373
_cell_volume                      3447.94751848

loop_
_atom_site_label
_atom_site_type_symbol
_atom_type_description
_atom_site_fract_x
_atom_site_fract_y
_atom_site_fract_z
_atom_type_partial_charge
C1    C     C_R   0.611064 0.897870 0.652139 0.783546
C2    C     C_R   0.611220 0.101940 0.652462 0.783164
C3    C     C_R   0.111082 0.397882 0.652164 0.783547
C4    C     C_R   0.111224 0.601938 0.652465 0.783204
C5    C     C_R   0.249125 0.769460 0.050817 0.051696
C6    C     C_R   0.249202 0.230526 0.050608 0.050612
C7    C     C_R   0.749073 0.269503 0.050753 0.051797
C8    C     C_R   0.749071 0.730401 0.050395 0.050694
C9    C     C_R   0.677030 0.257405 0.054171 0.108389
C10   C     C_R   0.676834 0.742506 0.053514 0.108503
C11   C     C_R   0.177077 0.757371 0.054221 0.108403
C12   C     C_R   0.176946 0.242606 0.053685 0.108485
C13   C     C_R   0.600893 0.221707 0.943072 -0.250854
C14   C     C_R   0.600526 0.778035 0.942156 -0.248625
C15   C     C_R   0.100927 0.721692 0.943101 -0.250685
C16   C     C_R   0.100629 0.278118 0.942312 -0.248484
C17   C     C_R   0.597144 0.195667 0.834204 -0.211028
C18   C     C_R   0.596712 0.804017 0.833274 -0.205336
C19   C     C_R   0.097169 0.695669 0.834216 -0.211037
C20   C     C_R   0.096802 0.304069 0.833404 -0.205410
C21   C     C_R   0.316914 0.816737 0.148392 -0.261416
C22   C     C_R   0.318364 0.184768 0.150864 -0.289519
C23   C     C_R   0.816856 0.316786 0.148313 -0.261277
C24   C     C_R   0.818247 0.684663 0.150677 -0.289797
C25   C     C_R   0.251445 0.830769 0.261781 -0.239464
C26   C     C_R   0.251558 0.169696 0.261915 -0.238707
C27   C     C_R   0.751400 0.330812 0.261718 -0.239474
C28   C     C_R   0.751509 0.669656 0.261839 -0.238725
C29   C     C_R   0.675527 0.158977 0.741327 -0.105980
C30   C     C_R   0.674864 0.840215 0.740007 -0.108782
C31   C     C_R   0.175544 0.658967 0.741339 -0.105947
C32   C     C_R   0.174938 0.340272 0.740116 -0.108728
C33   C     C_R   0.680670 0.000862 0.281660 -0.322838
C34   C     C_R   0.180665 0.500950 0.281654 -0.323006
C35   C     C_R   0.344556 0.000713 0.622506 0.045219
C36   C     C_R   0.844556 0.500712 0.622502 0.045228
C37   C     C_R   0.307079 0.999623 0.687902 -0.289073
C38   C     C_R   0.807077 0.499591 0.687890 -0.289118
C39   C     C_R   0.385970 0.099532 0.344409 0.811071
C40   C     C_R   0.385601 0.900854 0.343813 0.810213
C41   C     C_R   0.885954 0.599521 0.344387 0.811057
C42   C     C_R   0.885588 0.400865 0.343795 0.810203
C43   C     C_R   0.360996 0.997506 0.833603 0.016874
C44   C     C_R   0.860988 0.497443 0.833591 0.016901
C45   C     C_R   0.457317 0.998554 0.917501 -0.061302
C46   C     C_R   0.957312 0.498520 0.917497 -0.061363
C47   C     C_R   0.491495 0.999553 0.841496 0.258068
C48   C     C_R   0.991493 0.499546 0.841495 0.258073
C49   C     C_R   0.522112 0.998686 0.069348 -0.029519
C50   C     C_R   0.022109 0.498666 0.069345 -0.029524
C51   C     C_R   0.615566 0.999858 0.136008 0.168864
C52   C     C_R   0.115562 0.499894 0.136004 0.169125
C53   C     C_R   0.644802 0.000133 0.058087 -0.279730
C54   C     C_R   0.144798 0.500175 0.058085 -0.279603
C55   C     C_R   0.584350 0.999915 0.914837 -0.156115
C56   C     C_R   0.084347 0.499926 0.914836 -0.156114
C57   C     C_R   0.500851 0.998320 0.160707 -0.015100
C58   C     C_R   0.000851 0.498269 0.160708 -0.014646
C59   C     C_R   0.654413 0.001096 0.363477 0.025421
C60   C     C_R   0.154410 0.501172 0.363472 0.025317
C61   C     C_R   0.680349 0.286505 0.163582 0.006495
C62   C     C_R   0.680293 0.713805 0.163266 0.005189
C63   C     C_R   0.180403 0.786459 0.163641 0.006402
C64   C     C_R   0.180380 0.213882 0.163392 0.005110
C65   C     C_R   0.317687 0.847709 0.251601 -0.070587
C66   C     C_R   0.318456 0.153219 0.252931 -0.072078
C67   C     C_R   0.817644 0.347745 0.251543 -0.070611
C68   C     C_R   0.818396 0.653170 0.252837 -0.072106
C69   C     C_R   0.747064 0.169755 0.739238 -0.185793
C70   C     C_R   0.745832 0.828606 0.736763 -0.186295
C71   C     C_R   0.247088 0.669733 0.739260 -0.185791
C72   C     C_R   0.245939 0.328704 0.736937 -0.186300
C73   C     C_R   0.318715 0.712431 0.838253 -0.156435
C74   C     C_R   0.317160 0.285302 0.834918 -0.145840
C75   C     C_R   0.818668 0.212481 0.838193 -0.156571
C76   C     C_R   0.816997 0.785130 0.834633 -0.145788
C77   C     C_R   0.321124 0.744161 0.942213 -0.200459
C78   C     C_R   0.319909 0.253846 0.939308 -0.196300
C79   C     C_R   0.821064 0.244223 0.942129 -0.200484
C80   C     C_R   0.819730 0.753650 0.938990 -0.196209
C81   C     C_R   0.748728 0.237241 0.945592 0.076981
C82   C     C_R   0.748017 0.761601 0.943853 0.085755
C83   C     C_R   0.248773 0.737206 0.945645 0.077036
C84   C     C_R   0.248158 0.261740 0.944087 0.085724
C85   C     C_R   0.673078 0.196674 0.839524 0.083098
C86   C     C_R   0.672457 0.802524 0.838156 0.087104
C87   C     C_R   0.173105 0.696662 0.839547 0.083159
C88   C     C_R   0.172557 0.302605 0.838313 0.087134
Cu1   Cu    Cu3+1 0.526340 0.000000 0.421010 0.906264
Cu2   Cu    Cu3+1 0.026340 0.500000 0.421010 0.906257
Cu3   Cu    Cu3+1 0.473640 0.000000 0.578990 0.913355
Cu4   Cu    Cu3+1 0.973640 0.500000 0.578990 0.913367
H1    H     H_    0.253554 0.853652 0.344641 0.162228
H2    H     H_    0.253355 0.146625 0.344284 0.162439
H3    H     H_    0.753531 0.353685 0.344605 0.162190
H4    H     H_    0.753359 0.646626 0.344284 0.162405
H5    H     H_    0.715869 0.000746 0.108649 0.150346
H6    H     H_    0.215865 0.500817 0.108646 0.150343
H7    H     H_    0.751638 0.001721 0.331941 0.139338
H8    H     H_    0.251632 0.501866 0.331932 0.139315
H9    H     H_    0.433716 0.996469 0.124541 0.165194
H10   H     H_    0.933718 0.496353 0.124538 0.165059
H11   H     H_    0.301376 0.001483 0.509854 0.135899
H12   H     H_    0.801378 0.501492 0.509850 0.135855
H13   H     H_    0.234495 0.999361 0.623369 0.152768
H14   H     H_    0.734491 0.499316 0.623349 0.152710
H15   H     H_    0.613657 0.000252 0.864734 0.212078
H16   H     H_    0.113654 0.500262 0.864734 0.212077
H17   H     H_    0.541918 0.216675 0.936193 0.152437
H18   H     H_    0.541587 0.783246 0.935374 0.151274
H19   H     H_    0.041950 0.716665 0.936218 0.152462
H20   H     H_    0.041682 0.283315 0.935518 0.151306
H21   H     H_    0.367676 0.833596 0.141954 0.163147
H22   H     H_    0.370450 0.168911 0.146867 0.161660
H23   H     H_    0.867613 0.333648 0.141871 0.163186
H24   H     H_    0.870323 0.668793 0.146664 0.161651
H25   H     H_    0.749772 0.142615 0.664340 0.153429
H26   H     H_    0.748449 0.855612 0.661758 0.153754
H27   H     H_    0.249787 0.642596 0.664350 0.153359
H28   H     H_    0.248538 0.355695 0.661903 0.153684
H29   H     H_    0.380990 0.773890 0.017585 0.153470
H30   H     H_    0.379826 0.223977 0.014323 0.147152
H31   H     H_    0.880903 0.273992 0.017443 0.153475
H32   H     H_    0.879608 0.723716 0.013910 0.147026
H33   H     H_    0.374495 0.719095 0.837400 0.140974
H34   H     H_    0.372540 0.278050 0.833205 0.139045
H35   H     H_    0.874438 0.219164 0.837322 0.141002
H36   H     H_    0.872350 0.777841 0.832865 0.139050
H37   H     H_    0.532569 0.176479 0.744805 0.181826
H38   H     H_    0.532194 0.823500 0.744070 0.180556
H39   H     H_    0.032588 0.676498 0.744800 0.181802
H40   H     H_    0.032265 0.323504 0.744163 0.180552
H41   H     H_    0.704040 0.002079 0.475935 0.129379
H42   H     H_    0.204036 0.502205 0.475928 0.129352
N1    N     N_R   0.566260 0.000000 0.302220 -0.206519
N2    N     N_R   0.066260 0.500000 0.302220 -0.206347
N3    N     N_R   0.434410 0.000000 0.697680 -0.210210
N4    N     N_R   0.934410 0.500000 0.697680 -0.210196
O1    O     O_R   0.608610 0.924520 0.551740 -0.591518
O2    O     O_R   0.608610 0.075480 0.551740 -0.592512
O3    O     O_R   0.108610 0.424520 0.551740 -0.591632
O4    O     O_R   0.108610 0.575480 0.551740 -0.592575
O5    O     O_R   0.564110 0.924510 0.685150 -0.604703
O6    O     O_R   0.564110 0.075490 0.685150 -0.604541
O7    O     O_R   0.064110 0.424510 0.685150 -0.604672
O8    O     O_R   0.064110 0.575490 0.685150 -0.604526
O9    O     O_R   0.435880 0.075470 0.314850 -0.596375
O10   O     O_R   0.435880 0.924530 0.314850 -0.597738
O11   O     O_R   0.935880 0.575470 0.314850 -0.596375
O12   O     O_R   0.935880 0.424530 0.314850 -0.597726
O13   O     O_R   0.391380 0.075460 0.448260 -0.597677
O14   O     O_R   0.391380 0.924540 0.448260 -0.597350
O15   O     O_R   0.891380 0.575460 0.448260 -0.597680
O16   O     O_R   0.891380 0.424540 0.448260 -0.597344
C89   C     C_R   0.307945 0.991502 0.882283 0.075865
C90   C     C_R   0.265567 0.926491 0.864380 -0.161741
C91   C     C_R   0.198182 0.923222 0.877189 -0.116879
C92   C     C_R   0.173639 0.984312 0.910450 -0.122771
C93   C     C_R   0.214286 0.049335 0.926211 -0.122616
C94   C     C_R   0.280742 0.053286 0.911123 -0.152104
H43   H     H_    0.281058 0.879495 0.832143 0.144877
H44   H     H_    0.162722 0.873929 0.856736 0.143353
H45   H     H_    0.121092 0.981714 0.919557 0.120214
H46   H     H_    0.191271 0.096846 0.944466 0.148116
H47   H     H_    0.308647 0.104442 0.916578 0.133108
C95   C     C_R   0.807927 0.491343 0.882244 0.075857
C96   C     C_R   0.765449 0.426337 0.864009 -0.161815
C97   C     C_R   0.698038 0.423011 0.876753 -0.116873
C98   C     C_R   0.673577 0.484032 0.910311 -0.122736
C99   C     C_R   0.714313 0.549056 0.926386 -0.122674
C100  C     C_R   0.780779 0.553070 0.911323 -0.152014
H48   H     H_    0.780871 0.379401 0.831538 0.144939
H49   H     H_    0.662500 0.373728 0.856032 0.143326
H50   H     H_    0.621023 0.481388 0.919396 0.120260
H51   H     H_    0.691352 0.596525 0.944854 0.148135
H52   H     H_    0.808738 0.604235 0.916992 0.132983
C101  C     C_R   0.614062 0.271279 0.184925 0.093425
C102  C     C_R   0.610773 0.203123 0.228282 -0.161444
C103  C     C_R   0.566687 0.192899 0.284045 -0.153715
C104  C     C_R   0.525385 0.250273 0.296137 -0.131463
C105  C     C_R   0.524493 0.317447 0.246682 -0.125321
C106  C     C_R   0.568833 0.328075 0.191535 -0.163180
H53   H     H_    0.646820 0.159124 0.226817 0.148065
H54   H     H_    0.566893 0.141080 0.321971 0.189732
H55   H     H_    0.493929 0.242663 0.343610 0.134075
H56   H     H_    0.491631 0.361695 0.254674 0.129354
H57   H     H_    0.571824 0.381256 0.160467 0.120406
C107  C     C_R   0.613887 0.729178 0.184426 0.093429
C108  C     C_R   0.610534 0.797378 0.227815 -0.160775
C109  C     C_R   0.566361 0.807769 0.283451 -0.152295
C110  C     C_R   0.524990 0.750541 0.295365 -0.131611
C111  C     C_R   0.524367 0.683269 0.246227 -0.124731
C112  C     C_R   0.568779 0.672471 0.191166 -0.163818
H58   H     H_    0.646562 0.841296 0.226403 0.148073
H59   H     H_    0.566524 0.859611 0.321378 0.190182
H60   H     H_    0.493173 0.758365 0.342264 0.133581
H61   H     H_    0.491494 0.639113 0.254133 0.130022
H62   H     H_    0.571873 0.619241 0.160189 0.120458
C113  C     C_R   0.114070 0.771280 0.184892 0.093394
C114  C     C_R   0.110936 0.703220 0.228732 -0.161149
C115  C     C_R   0.066630 0.693094 0.284159 -0.153730
C116  C     C_R   0.024977 0.750487 0.295461 -0.131659
C117  C     C_R   0.023965 0.817558 0.245563 -0.125195
C118  C     C_R   0.068528 0.828087 0.190754 -0.163249
H63   H     H_    0.147205 0.659228 0.227796 0.147937
H64   H     H_    0.066903 0.641342 0.322376 0.189657
H65   H     H_    0.993327 0.742971 0.342649 0.134171
H66   H     H_    0.990810 0.861808 0.252915 0.129403
H67   H     H_    0.071388 0.881198 0.159283 0.120459
C119  C     C_R   0.113957 0.229244 0.184501 0.093396
C120  C     C_R   0.110843 0.297356 0.228433 -0.160517
C121  C     C_R   0.066566 0.307675 0.283915 -0.152149
C122  C     C_R   0.024870 0.250455 0.295155 -0.131776
C123  C     C_R   0.024034 0.183279 0.245497 -0.124798
C124  C     C_R   0.068548 0.172556 0.190583 -0.163945
H68   H     H_    0.147120 0.341247 0.227547 0.147930
H69   H     H_    0.066894 0.359449 0.322228 0.190144
H70   H     H_    0.992969 0.258210 0.341939 0.133594
H71   H     H_    0.990892 0.139137 0.252846 0.130119
H72   H     H_    0.071456 0.119389 0.159173 0.120534

loop_
_geom_bond_atom_site_label_1
_geom_bond_atom_site_label_2
_ccdc_geom_bond_type
C28   H4    S    
C26   H2    S    
Cu1   O10   S    
C83   C87   A    
C117  C118  A    
C61   C101  S    
C109  C110  A    
Cu1   N1    S    
C2    O6    A    
C98   C99   A    
C14   C18   A    
C53   C55   A    
C27   H3    S    
C3    O3    A    
C48   C56   A    
Cu2   O12   S    
Cu4   N4    S    
C102  C103  A    
C32   C72   A    
C105  C106  A    
C15   C19   A    
C18   C86   A    
C2    C29   S    
C9    C61   A    
C62   C107  S    
C90   C91   A    
C28   C68   A    
C5    C11   A    
C35   H11   S    
C123  H71   S    
C4    O4    A    
Cu3   O14   S    
C12   C64   A    
C73   H33   S    
C41   O11   A    
C121  H69   S    
C77   C83   A    
C101  C106  A    
C6    C22   A    
C114  H63   S    
C39   O13   A    
C71   C73   A    
C49   C57   A    
C40   O14   A    
C14   H18   S    
C26   C64   A    
C25   C63   A    
C23   C67   A    
C9    C13   A    
C110  H60   S    
C56   H16   S    
C13   H17   S    
C27   C61   A    
Cu3   N3    S    
C11   C15   A    
C108  H58   S    
C91   C92   A    
C22   C66   A    
C12   C16   A    
C44   C46   A    
C114  C115  A    
Cu1   O1    S    
C118  H67   S    
C50   C52   A    
C98   H50   S    
Cu4   O15   S    
C58   H10   S    
Cu1   Cu3   S    
C60   N2    A    
C29   C85   A    
C102  H53   S    
C1    O1    A    
C74   C78   A    
C21   C65   A    
C31   C71   A    
C120  H68   S    
Cu4   O7    S    
C95   C100  A    
C33   C59   A    
C34   C60   A    
C64   C119  S    
C95   C96   A    
C10   C62   A    
C20   H40   S    
Cu2   O11   S    
C43   C89   S    
C17   C85   A    
C6    C12   A    
C30   C70   A    
C52   C54   A    
C38   C44   A    
C41   C68   S    
C29   C69   A    
C99   H51   S    
C45   C47   A    
C19   H39   S    
C97   H49   S    
C48   N4    A    
C54   C56   A    
C6    C84   A    
C116  C117  A    
C40   O10   A    
Cu4   O8    S    
C110  C111  A    
C26   C66   A    
C15   H19   S    
C31   C87   A    
C72   C74   A    
C10   C14   A    
C96   C97   A    
C79   C81   A    
C77   H29   S    
Cu3   O5    S    
C49   C51   A    
C122  C123  A    
C79   H31   S    
C59   H41   S    
C55   H15   S    
C107  C108  A    
C33   H7    S    
C50   C58   A    
C92   C93   A    
C37   C43   A    
C100  H52   S    
C120  C121  A    
C37   H13   S    
C1    O5    A    
C78   C84   A    
Cu2   N2    S    
C78   H30   S    
C34   H8    S    
C93   C94   A    
C45   C49   A    
C25   H1    S    
C16   C20   A    
Cu1   O2    S    
C4    O8    A    
C38   H14   S    
C47   N3    A    
C25   C65   A    
C112  H62   S    
C44   C95   S    
C111  H61   S    
C43   C45   A    
Cu2   O4    S    
Cu3   O6    S    
C109  H59   S    
C101  C102  A    
C92   H45   S    
C21   H21   S    
C97   C98   A    
C7    C81   A    
C107  C112  A    
C3    O7    A    
C72   H28   S    
C70   C76   A    
C42   C67   S    
C76   H36   S    
C39   C66   S    
C8    C82   A    
C18   H38   S    
C30   C86   A    
C36   C38   A    
C60   H42   S    
C104  C105  A    
C16   H20   S    
C47   C55   A    
C103  H54   S    
C80   H32   S    
C35   C37   A    
C108  C109  A    
Cu1   O9    S    
C41   O15   A    
C42   O16   A    
C89   C94   A    
C123  C124  A    
C59   N1    A    
C54   H6    S    
C76   C80   A    
C90   H43   S    
C105  H56   S    
C5    C83   A    
C24   H24   S    
C96   H48   S    
C71   H27   S    
C33   C51   A    
C57   H9    S    
C117  H66   S    
C46   C50   A    
C22   H22   S    
C34   C52   A    
C115  C116  A    
C13   C17   A    
C116  H65   S    
C122  H70   S    
C53   H5    S    
C111  C112  A    
C94   H47   S    
Cu2   Cu4   S    
C19   C87   A    
C2    O2    A    
C82   C86   A    
C124  H72   S    
C35   N3    A    
Cu3   O13   S    
C58   N2    A    
C36   H12   S    
C74   H34   S    
C84   C88   A    
C75   C79   A    
C113  C118  A    
C70   H26   S    
C7    C23   A    
Cu2   O3    S    
C20   C88   A    
C69   H25   S    
C1    C30   S    
C8    C24   A    
C80   C82   A    
C63   C113  S    
C69   C75   A    
C115  H64   S    
C75   H35   S    
C106  H57   S    
C3    C32   S    
C42   O12   A    
C40   C65   S    
C4    C31   S    
C27   C67   A    
C104  H55   S    
C24   C68   A    
C23   H23   S    
C103  C104  A    
C46   C48   A    
C7    C9    A    
C113  C114  A    
C5    C21   A    
C121  C122  A    
C8    C10   A    
C119  C120  A    
C99   C100  A    
C39   O9    A    
C89   C90   A    
C73   C77   A    
C93   H46   S    
C57   N1    A    
Cu4   O16   S    
C51   C53   A    
C11   C63   A    
C36   N4    A    
C91   H44   S    
C17   H37   S    
C81   C85   A    
C119  C124  A    
C28   C62   A    
C32   C88   A    
