data_mof_unit_34746.cif
_audit_creation_date              2012-12-11T15:48:38-0500
_audit_creation_method            fapswitch 2.2
_symmetry_space_group_name_H-M    P1
_symmetry_Int_Tables_number       1
_space_group_crystal_system       triclinic
_cell_length_a                    10.989074
_cell_length_b                    10.984535
_cell_length_c                    18.781668
_cell_angle_alpha                 90.409272
_cell_angle_beta                  90.232757
_cell_angle_gamma                 60.065067
_cell_volume                      1964.63008325

loop_
_atom_site_label
_atom_site_type_symbol
_atom_type_description
_atom_site_fract_x
_atom_site_fract_y
_atom_site_fract_z
_atom_type_partial_charge
C1    C     C_R   0.239745 0.645554 0.610362 0.534211
C2    C     C_3   0.674662 0.548795 0.800031 -0.253512
C3    C     C_3   0.698235 0.673794 0.812392 0.052420
C4    C     C_3   0.669745 0.647772 0.676390 0.058848
C5    C     C_3   0.812728 0.637652 0.690064 -0.250463
C6    C     C_3   0.661191 0.531621 0.719756 -0.211565
C7    C     C_R   0.682131 0.151810 0.822238 0.016945
C8    C     C_R   0.778035 0.175382 0.785014 -0.007072
C9    C     C_R   0.772347 0.184463 0.710886 0.013629
C10   C     C_R   0.579839 0.139218 0.709377 -0.180672
C11   C     C_R   0.575892 0.145664 0.782551 -0.170199
C12   C     C_R   0.653626 0.622018 0.600979 0.536351
C13   C     C_3   0.933572 0.095234 0.786484 -0.272153
C14   C     C_3   0.928806 0.102894 0.705861 -0.281656
C15   C     C_R   0.674780 0.163721 0.672000 0.015260
C16   C     C_R   0.180548 0.667331 0.835114 0.013754
C17   C     C_R   0.154172 0.576215 0.794076 0.019562
C18   C     C_R   0.162941 0.573893 0.720249 -0.005363
C19   C     C_R   0.212896 0.763330 0.725876 -0.170853
C20   C     C_R   0.212654 0.759682 0.799817 -0.179109
C21   C     C_3   0.227827 0.419921 0.797608 -0.283050
C22   C     C_3   0.235137 0.417991 0.717051 -0.271338
C23   C     C_R   0.630244 0.225695 0.601789 0.533968
C24   C     C_R   0.194925 0.665583 0.684735 0.013431
C25   C     C_R   0.645256 0.669518 0.165364 0.015483
C26   C     C_R   0.706498 0.536908 0.196825 0.019613
C27   C     C_R   0.706833 0.524761 0.269712 0.044216
C28   C     C_R   0.562684 0.774430 0.283168 -0.182236
C29   C     C_R   0.562225 0.787664 0.208850 -0.164868
C30   C     C_3   0.848890 0.408808 0.189958 -0.275417
C31   C     C_3   0.850736 0.399504 0.270307 -0.274185
C32   C     C_R   0.644536 0.642417 0.314575 0.014008
C33   C     C_R   0.656485 0.166103 0.174082 0.020955
C34   C     C_R   0.219245 0.651728 0.402486 0.549196
C35   C     C_R   0.524995 0.237734 0.205774 0.009648
C36   C     C_R   0.515817 0.246363 0.278615 0.042878
C37   C     C_R   0.767198 0.130440 0.290495 -0.177738
C38   C     C_R   0.777474 0.122520 0.216867 -0.161273
C39   C     C_3   0.398853 0.220628 0.198792 -0.280370
C40   C     C_3   0.393415 0.222683 0.279262 -0.264387
C41   C     C_R   0.635659 0.187833 0.321861 0.026880
C42   C     C_R   0.103834 0.697818 0.191920 -0.023145
C43   C     C_R   0.105043 0.807571 0.228597 0.011761
C44   C     C_R   0.116913 0.806847 0.300557 -0.027140
C45   C     C_R   0.639652 0.619630 0.390593 0.528581
C46   C     C_R   0.093256 0.600244 0.306663 0.229976
C47   C     C_R   0.084342 0.600235 0.231669 -0.134199
C48   C     C_3   0.188990 0.878020 0.216266 -0.265554
C49   C     C_3   0.203155 0.878416 0.296145 -0.260950
C50   C     C_R   0.133554 0.690915 0.339023 0.017865
C51   C     C_R   0.701975 0.099817 0.895317 0.541753
C52   C     C_R   0.722965 0.687906 0.888378 0.542843
C53   C     C_R   0.118930 0.705551 0.906065 0.539533
C54   C     C_R   0.675975 0.107121 0.103699 0.551656
C55   C     C_R   0.694506 0.689663 0.096848 0.550734
C56   C     C_R   0.616041 0.229315 0.395201 0.541420
C57   C     C_R   0.082744 0.715051 0.115712 0.551330
C58   C     C_3   0.569052 0.808414 0.782967 -0.233458
C59   C     C_3   0.552728 0.793492 0.702691 -0.237807
C60   C     C_3   0.830599 0.649553 0.770425 -0.215278
Cr1   Cr    Cr6+3 0.392960 0.397920 0.502240 1.018714
Cr2   Cr    Cr6+3 0.398340 0.708480 0.501250 0.996896
Cr3   Cr    Cr6+3 0.708670 0.393570 0.496460 0.995716
Cr4   Cr    Cr6+3 0.937650 0.938540 0.007610 1.003217
Cr5   Cr    Cr6+3 0.625330 0.937370 0.994520 1.000272
Cr6   Cr    Cr6+3 0.937940 0.625230 0.001190 1.003771
H1    H     H_    0.583884 0.899616 0.792088 0.143736
H2    H     H_    0.748853 0.427777 0.703206 0.148847
H3    H     H_    0.922848 0.550218 0.788402 0.143382
H4    H     H_    0.900056 0.535858 0.670025 0.129875
H5    H     H_    0.499527 0.126770 0.682177 0.128430
H6    H     H_    0.493831 0.133788 0.807471 0.137234
H7    H     H_    0.972342 0.988279 0.807399 0.174916
H8    H     H_    0.978677 0.155843 0.811651 0.126953
H9    H     H_    0.972415 0.167161 0.684268 0.131905
H10   H     H_    0.967004 0.999575 0.679109 0.145004
H11   H     H_    0.232292 0.840513 0.701195 0.133014
H12   H     H_    0.471732 0.828882 0.811238 0.115502
H13   H     H_    0.227679 0.836498 0.829128 0.129106
H14   H     H_    0.159619 0.380448 0.818586 0.131957
H15   H     H_    0.331307 0.376852 0.824367 0.143133
H16   H     H_    0.342935 0.373409 0.696138 0.179969
H17   H     H_    0.169648 0.379335 0.691097 0.122602
H18   H     H_    0.503895 0.867181 0.315935 0.116666
H19   H     H_    0.508082 0.891353 0.186326 0.131685
H20   H     H_    0.932068 0.428354 0.169778 0.159928
H21   H     H_    0.844205 0.321032 0.162917 0.138332
H22   H     H_    0.853585 0.304642 0.290710 0.152634
H23   H     H_    0.447970 0.805914 0.692503 0.138345
H24   H     H_    0.929440 0.420977 0.294795 0.191220
H25   H     H_    0.861128 0.092425 0.322698 0.121242
H26   H     H_    0.881453 0.071720 0.194081 0.149174
H27   H     H_    0.420303 0.119208 0.175533 0.154961
H28   H     H_    0.308894 0.314167 0.174230 0.135705
H29   H     H_    0.298649 0.313552 0.301024 0.216155
H30   H     H_    0.419448 0.119860 0.302722 0.128435
H31   H     H_    0.065851 0.523475 0.205144 0.127320
H32   H     H_    0.126000 0.985089 0.193729 0.135125
H33   H     H_    0.558229 0.878191 0.673339 0.112048
H34   H     H_    0.289747 0.808609 0.188474 0.149142
H35   H     H_    0.313100 0.810952 0.313641 0.181069
H36   H     H_    0.148332 0.985724 0.319848 0.131314
H37   H     H_    0.851879 0.737127 0.781009 0.126185
H38   H     H_    0.818621 0.723130 0.661619 0.112460
H39   H     H_    0.764051 0.450705 0.821786 0.130986
H40   H     H_    0.577560 0.566993 0.827738 0.119055
H41   H     H_    0.560774 0.533164 0.708577 0.128076
O1    O     O_R   0.507380 0.255700 0.581440 -0.536671
O2    O     O_R   0.524480 0.695810 0.424040 -0.506909
O3    O     O_R   0.736390 0.504290 0.414790 -0.537944
O4    O     O_R   0.691300 0.277290 0.422170 -0.506337
O5    O     O_3   0.499990 0.499990 0.499980 -0.249241
O6    O     O_R   0.089400 0.825690 0.930570 -0.530895
O7    O     O_R   0.818460 0.054440 0.929850 -0.500870
O8    O     O_R   0.606060 0.077150 0.915510 -0.535940
O9    O     O_R   0.646550 0.806680 0.917570 -0.511325
O10   O     O_R   0.837170 0.593410 0.915250 -0.528817
O11   O     O_R   0.065200 0.635530 0.931570 -0.499181
O12   O     O_R   0.280320 0.527350 0.578930 -0.509106
O13   O     O_R   0.068260 0.828890 0.091840 -0.519530
O14   O     O_R   0.798870 0.057410 0.079340 -0.516267
O15   O     O_R   0.584930 0.080350 0.076780 -0.523262
O16   O     O_R   0.626960 0.809650 0.067060 -0.507818
O17   O     O_R   0.816040 0.596610 0.076510 -0.526735
O18   O     O_R   0.045610 0.638500 0.081060 -0.511294
O19   O     O_3   0.833640 0.833710 0.001100 -0.249083
O20   O     O_R   0.260510 0.739590 0.584590 -0.534596
O21   O     O_R   0.532300 0.695080 0.573820 -0.508786
O22   O     O_R   0.744840 0.503500 0.576370 -0.535530
O23   O     O_R   0.699120 0.276560 0.571960 -0.501229
O24   O     O_R   0.498940 0.256500 0.419860 -0.513634
O25   O     O_R   0.272500 0.528080 0.429150 -0.466549
O26   O     O_R   0.252060 0.740380 0.423010 -0.536106
O27   O     O_3   0.083220 0.498813 0.345216 -0.606618
C61   C     C_3   0.981586 0.563209 0.399431 -0.105650
H42   H     H_    0.878435 0.642088 0.376944 0.116401
H43   H     H_    0.013095 0.613739 0.441262 0.117319
H44   H     H_    0.970455 0.480135 0.426545 0.167097

loop_
_geom_bond_atom_site_label_1
_geom_bond_atom_site_label_2
_ccdc_geom_bond_type
C44   C49   S    
C61   H44   S    
C8    C13   S    
Cr1   O12   S    
C59   H33   S    
C32   C45   S    
C19   C20   A    
C9    C14   S    
C7    C8    A    
C41   C56   S    
C7    C11   A    
C28   C32   A    
C26   C27   A    
C5    H4    S    
C18   C24   A    
C22   H16   S    
Cr2   O26   S    
C28   C29   A    
C10   C15   A    
C57   O18   A    
C30   C31   S    
C45   O2    A    
C28   H18   S    
Cr4   O14   S    
C38   H26   S    
C4    C59   S    
C59   H23   S    
Cr3   O23   S    
Cr3   O5    S    
C19   H11   S    
Cr1   O1    S    
C16   C53   S    
C39   H27   S    
Cr1   O25   S    
C55   O17   A    
C35   C36   A    
C16   C17   A    
Cr6   O10   S    
C6    H41   S    
C31   H22   S    
C30   H20   S    
C60   H37   S    
C43   C48   S    
C56   O4    A    
C29   H19   S    
C20   H13   S    
C3    C60   S    
C15   C23   S    
C54   O15   A    
C5    H38   S    
C34   O25   A    
C21   C22   S    
C37   C41   A    
Cr5   O8    S    
C36   C41   A    
C2    C6    S    
C40   H30   S    
C42   C57   S    
C53   O6    A    
C52   O9    A    
C25   C29   A    
C48   H34   S    
C55   O16   A    
C34   C50   S    
C51   O7    A    
Cr4   O7    S    
C12   O22   A    
C37   H25   S    
C27   C31   S    
C1    O20   A    
C61   H42   S    
C4    C6    S    
C49   H36   S    
C58   H12   S    
C11   H6    S    
C8    C9    A    
C34   O26   A    
C25   C26   A    
C2    H40   S    
C51   O8    A    
Cr6   O19   S    
C23   O23   A    
C14   H10   S    
C35   C39   S    
C43   C44   A    
C39   H28   S    
C1    O12   A    
C37   C38   A    
C46   O27   S    
C36   C40   S    
C16   C20   A    
C31   H24   S    
C45   O3    A    
C17   C18   A    
Cr5   O15   S    
C57   O13   A    
C53   O11   A    
C48   C49   S    
C54   O14   A    
C13   H7    S    
C26   C30   S    
Cr4   O19   S    
Cr5   O9    S    
Cr6   O17   S    
C4    C12   S    
C42   C43   A    
C40   H29   S    
C39   C40   S    
C49   H35   S    
C44   C50   A    
C33   C54   S    
C61   H43   S    
C46   C47   A    
Cr4   O6    S    
C5    C60   S    
C27   C32   A    
C18   C22   S    
Cr5   O16   S    
C25   C55   S    
C21   H15   S    
C4    C5    S    
C47   H31   S    
C3    C52   S    
O27   C61   S    
C12   O21   A    
C48   H32   S    
C46   C50   A    
C2    H39   S    
C33   C38   A    
Cr4   O13   S    
Cr6   O18   S    
Cr5   O19   S    
Cr3   O3    S    
C19   C24   A    
C58   C59   S    
C7    C51   S    
C14   H9    S    
C22   H17   S    
Cr2   O21   S    
Cr2   O20   S    
Cr2   O2    S    
C60   H3    S    
C23   O1    A    
C21   H14   S    
C6    H2    S    
C33   C35   A    
C2    C3    S    
C42   C47   A    
Cr3   O22   S    
Cr3   O4    S    
C17   C21   S    
C56   O24   A    
C10   C11   A    
Cr1   O24   S    
C10   H5    S    
C3    C58   S    
C58   H1    S    
Cr2   O5    S    
C13   H8    S    
C1    C24   S    
Cr6   O11   S    
C52   O10   A    
C30   H21   S    
C13   C14   S    
Cr1   O5    S    
C9    C15   A    
