data_mof_unit_11550.cif
_audit_creation_date              2012-12-11T17:04:52-0500
_audit_creation_method            fapswitch 2.2
_symmetry_space_group_name_H-M    P1
_symmetry_Int_Tables_number       1
_space_group_crystal_system       triclinic
_cell_length_a                    17.342563
_cell_length_b                    24.208827
_cell_length_c                    14.914516
_cell_angle_alpha                 89.452765
_cell_angle_beta                  125.41265
_cell_angle_gamma                 89.605998
_cell_volume                      5102.50643936

loop_
_atom_site_label
_atom_site_type_symbol
_atom_type_description
_atom_site_fract_x
_atom_site_fract_y
_atom_site_fract_z
_atom_type_partial_charge
C1    C     C_R   0.807630 0.623885 0.906515 -0.147056
C2    C     C_R   0.039744 0.503035 0.713539 0.030665
C3    C     C_R   0.770474 0.045730 0.254520 -0.069410
C4    C     C_R   0.810653 0.376844 0.909381 -0.087483
C5    C     C_R   0.149858 0.348513 0.092193 -0.138695
C6    C     C_R   0.310644 0.876854 0.909385 -0.087749
C7    C     C_R   0.649796 0.848498 0.092201 -0.139087
C8    C     C_R   0.900291 0.625276 0.090382 -0.119047
C9    C     C_R   0.062514 0.651871 0.909191 -0.124451
C10   C     C_R   0.400231 0.125245 0.090344 -0.118440
C11   C     C_R   0.562530 0.151866 0.909197 -0.124901
C12   C     C_R   0.809403 0.637774 0.997687 0.068486
C13   C     C_R   0.575454 0.001740 0.372900 0.030567
C14   C     C_R   0.128245 0.681707 0.000824 0.103602
C15   C     C_R   0.309323 0.137703 0.997616 0.064680
C16   C     C_R   0.628273 0.181697 0.000834 0.103858
C17   C     C_3   0.531389 0.460975 0.643461 -0.386153
C18   C     C_3   0.435105 0.448222 0.620176 -0.289792
C19   C     C_3   0.442894 0.437046 0.725963 -0.849347
C20   C     C_3   0.462946 0.384573 0.415795 -0.451468
C21   C     C_3   0.547573 0.346210 0.493896 -0.231470
C22   C     C_3   0.518965 0.285694 0.471688 -0.923335
C23   C     C_3   0.031471 0.961514 0.643809 -0.390011
C24   C     C_R   0.539777 0.003044 0.713563 0.029350
C25   C     C_3   0.935303 0.948505 0.620637 -0.288657
C26   C     C_3   0.943089 0.937965 0.726595 -0.850214
C27   C     C_3   0.962744 0.884577 0.416494 -0.453473
C28   C     C_3   0.047204 0.846237 0.495177 -0.232122
C29   C     C_3   0.018535 0.785725 0.473250 -0.922675
C30   C     C_3   0.093792 0.396476 0.351765 -0.461278
C31   C     C_3   0.200698 0.389415 0.409889 -0.269875
C32   C     C_3   0.237420 0.335559 0.477106 -0.926974
C33   C     C_3   0.975652 0.402783 0.670144 -0.457726
C34   C     C_3   0.913922 0.412438 0.544815 -0.256561
C35   C     C_R   0.695626 0.501757 0.636457 0.065517
C36   C     C_3   0.884113 0.357681 0.484269 -0.898490
C37   C     C_3   0.593880 0.896494 0.351826 -0.463249
C38   C     C_3   0.700791 0.889451 0.409908 -0.265590
C39   C     C_3   0.737570 0.835612 0.477172 -0.934749
C40   C     C_3   0.475923 0.902734 0.670360 -0.464569
C41   C     C_3   0.414275 0.912244 0.544993 -0.230424
C42   C     C_3   0.385381 0.857404 0.484737 -0.944922
C43   C     C_R   0.325669 0.498483 0.281134 0.099535
C44   C     C_R   0.195701 0.001748 0.636376 0.060663
C45   C     C_R   0.825673 0.998467 0.281178 0.099760
C46   C     C_3   0.522118 0.479090 0.538387 0.143105
C47   C     C_3   0.488623 0.445966 0.435036 0.151521
C48   C     C_3   0.022140 0.979265 0.538534 0.162019
C49   C     C_R   0.152806 0.651180 0.092274 -0.038878
C50   C     C_3   0.988545 0.945955 0.435364 0.145862
C51   C     C_3   0.461503 0.529347 0.469225 -0.140041
C52   C     C_3   0.570025 0.468807 0.431617 -0.249431
C53   C     C_3   0.961581 0.029471 0.469105 -0.174062
C54   C     C_3   0.069958 0.968602 0.431759 -0.254522
C55   C     C_3   0.427088 0.496175 0.364829 0.020758
C56   C     C_3   0.602603 0.501684 0.535032 0.057105
C57   C     C_3   0.927086 0.996127 0.364893 0.034956
C58   C     C_3   0.102636 0.001674 0.534995 0.077962
C59   C     C_3   0.507023 0.519232 0.360418 -0.121162
C60   C     C_R   0.307586 0.123811 0.906490 -0.147032
C61   C     C_3   0.542607 0.552043 0.466140 -0.041102
C62   C     C_3   0.007034 0.018997 0.360309 -0.105929
C63   C     C_3   0.042701 0.051996 0.465853 -0.078941
C64   C     C_R   0.775430 0.307630 0.107459 0.085354
C65   C     C_R   0.105118 0.231300 0.901449 0.119573
C66   C     C_R   0.275509 0.807591 0.107462 0.090350
C67   C     C_R   0.604831 0.731116 0.901615 0.151404
C68   C     C_R   0.744285 0.335958 0.009056 0.112315
C69   C     C_R   0.138490 0.257377 0.000781 0.060361
C70   C     C_R   0.244296 0.835961 0.009079 0.111819
C71   C     C_R   0.652821 0.151174 0.092282 -0.036120
C72   C     C_R   0.638339 0.757313 0.000893 0.051018
C73   C     C_R   0.656617 0.321609 0.912721 -0.194516
C74   C     C_R   0.201852 0.227435 0.098759 -0.187519
C75   C     C_R   0.156571 0.821652 0.912773 -0.195299
C76   C     C_R   0.701953 0.727482 0.098942 -0.191114
C77   C     C_R   0.898270 0.383627 0.091393 -0.165830
C78   C     C_R   0.054748 0.347682 0.910580 -0.137976
C79   C     C_R   0.398277 0.883630 0.091402 -0.165784
C80   C     C_R   0.554668 0.847647 0.910605 -0.138305
C81   C     C_R   0.112644 0.772895 0.910855 -0.163165
C82   C     C_R   0.811599 0.367520 0.001760 0.073761
C83   C     C_R   0.748452 0.680572 0.096645 -0.155793
C84   C     C_R   0.612695 0.272856 0.910814 -0.163240
C85   C     C_R   0.248212 0.180464 0.096413 -0.151474
C86   C     C_R   0.157918 0.737933 0.004477 0.092934
C87   C     C_R   0.732320 0.664233 0.996519 -0.015272
C88   C     C_R   0.657930 0.237926 0.004478 0.092185
C89   C     C_R   0.232182 0.164173 0.996313 -0.006944
C90   C     C_R   0.236517 0.757660 0.102883 -0.072825
C91   C     C_R   0.649240 0.684279 0.898671 0.102868
C92   C     C_R   0.736463 0.257692 0.102900 -0.069795
C93   C     C_R   0.119311 0.316219 0.001901 0.077756
C94   C     C_R   0.149263 0.184354 0.898413 0.070161
C95   C     C_3   0.329715 0.731376 0.191698 0.454213
C96   C     C_3   0.625525 0.701052 0.787709 0.397216
C97   C     C_3   0.829647 0.231455 0.191873 0.454893
C98   C     C_3   0.125873 0.201269 0.787629 0.474349
C99   C     C_3   0.872157 0.287409 0.201526 -0.635123
C100  C     C_3   0.081411 0.253484 0.794318 -0.659173
C101  C     C_3   0.372261 0.787319 0.201384 -0.644912
C102  C     C_3   0.580587 0.753131 0.794132 -0.716872
C103  C     C_R   0.071073 0.557261 0.598534 0.181094
C104  C     C_R   0.311594 0.867533 0.001768 0.073853
C105  C     C_R   0.081114 0.556809 0.513874 0.183403
C106  C     C_R   0.571071 0.057276 0.598530 0.181255
C107  C     C_R   0.581102 0.056824 0.513861 0.182101
C108  C     C_R   0.085034 0.508668 0.657487 0.033610
C109  C     C_R   0.105925 0.507755 0.486605 0.038408
C110  C     C_R   0.585086 0.008690 0.657526 0.034050
C111  C     C_R   0.605956 0.007778 0.486621 0.038515
C112  C     C_R   0.135345 0.464962 0.651895 -0.188023
C113  C     C_R   0.145689 0.464417 0.565655 -0.235625
C114  C     C_R   0.635443 0.965001 0.651959 -0.188534
C115  C     C_R   0.619187 0.816175 0.001929 0.080939
C116  C     C_R   0.645777 0.964457 0.565706 -0.236480
C117  C     C_3   0.997844 0.595380 0.444890 -0.527543
C118  C     C_3   0.987394 0.595818 0.538427 -0.520973
C119  C     C_3   0.497797 0.095368 0.444856 -0.527053
C120  C     C_3   0.487356 0.095806 0.538401 -0.520917
C121  C     C_R   0.054863 0.546616 0.305104 -0.200442
C122  C     C_R   0.017056 0.547829 0.750095 -0.160143
C123  C     C_R   0.554865 0.046623 0.305100 -0.201899
C124  C     C_R   0.517060 0.047833 0.750100 -0.159853
C125  C     C_R   0.743785 0.455435 0.697113 -0.186177
C126  C     C_R   0.075427 0.501728 0.372887 0.030541
C127  C     C_R   0.268153 0.453450 0.248864 -0.184837
C128  C     C_R   0.243816 0.955431 0.697089 -0.189130
C129  C     C_R   0.768146 0.953444 0.248846 -0.185340
C130  C     C_R   0.059029 0.455045 0.310031 0.150769
C131  C     C_R   0.004218 0.456003 0.732714 0.153759
C132  C     C_R   0.559064 0.955053 0.310053 0.151882
C133  C     C_R   0.504251 0.956010 0.732734 0.154459
C134  C     C_R   0.742724 0.547278 0.695953 -0.063816
C135  C     C_R   0.270460 0.545737 0.254458 -0.067252
C136  C     C_R   0.242802 0.047267 0.695879 -0.060525
H1    H     H_    0.748864 0.625968 0.821886 0.148670
H2    H     H_    0.224820 0.243508 0.177903 0.125334
H3    H     H_    0.954428 0.161643 0.501915 0.356843
H4    H     H_    0.228924 0.336534 0.545354 0.264757
H5    H     H_    0.198244 0.299901 0.423756 0.272425
H6    H     H_    0.313589 0.329589 0.512610 0.243563
H7    H     H_    0.215377 0.387580 0.347092 0.196127
H8    H     H_    0.239491 0.424926 0.463362 0.197945
H9    H     H_    0.070996 0.383347 0.404468 0.197703
H10   H     H_    0.061713 0.367271 0.282986 0.187910
H11   H     H_    0.947442 0.333112 0.506540 0.277239
H12   H     H_    0.842433 0.333456 0.505497 0.264761
H13   H     H_    0.127799 0.844128 0.836308 0.115409
H14   H     H_    0.839606 0.365771 0.394071 0.241856
H15   H     H_    0.849437 0.436656 0.519862 0.195393
H16   H     H_    0.952330 0.435976 0.518505 0.213865
H17   H     H_    0.039336 0.377480 0.696854 0.190123
H18   H     H_    0.930652 0.379963 0.687700 0.189507
H19   H     H_    0.729100 0.836596 0.545441 0.263398
H20   H     H_    0.698412 0.799939 0.423863 0.272322
H21   H     H_    0.813737 0.829664 0.512650 0.244787
H22   H     H_    0.715421 0.887595 0.347073 0.195970
H23   H     H_    0.739610 0.924970 0.463349 0.197539
H24   H     H_    0.725021 0.743614 0.178079 0.127076
H25   H     H_    0.571131 0.883370 0.404577 0.196393
H26   H     H_    0.561779 0.867278 0.283063 0.187918
H27   H     H_    0.449113 0.833265 0.507077 0.262695
H28   H     H_    0.344175 0.832804 0.506154 0.266040
H29   H     H_    0.340705 0.865377 0.394501 0.250228
H30   H     H_    0.349410 0.936112 0.519773 0.193368
H31   H     H_    0.452430 0.936071 0.518696 0.212099
H32   H     H_    0.539726 0.877502 0.697285 0.188606
H33   H     H_    0.430917 0.879890 0.687866 0.189764
H34   H     H_    0.048949 0.760461 0.833914 0.115803
H35   H     H_    0.805487 0.662633 0.174504 0.125853
H36   H     H_    0.549048 0.260397 0.833851 0.115973
H37   H     H_    0.305102 0.162427 0.174251 0.124063
H38   H     H_    0.334225 0.718858 0.266505 0.031654
H39   H     H_    0.687139 0.710292 0.785693 0.017537
H40   H     H_    0.834056 0.218971 0.266633 0.022765
H41   H     H_    0.189707 0.665518 0.175754 0.058597
H42   H     H_    0.187619 0.210312 0.785756 0.002955
H43   H     H_    0.925510 0.287123 0.182825 0.223199
H44   H     H_    0.003892 0.257846 0.730872 0.249519
H45   H     H_    0.425526 0.787040 0.182545 0.224799
H46   H     H_    0.502990 0.757200 0.730932 0.242057
H47   H     H_    0.896198 0.308353 0.279543 0.175539
H48   H     H_    0.122601 0.290811 0.804354 0.165193
H49   H     H_    0.396429 0.808222 0.279479 0.172403
H50   H     H_    0.621296 0.790595 0.803606 0.176868
H51   H     H_    0.156746 0.428959 0.705222 0.137388
H52   H     H_    0.248784 0.125818 0.821878 0.148598
H53   H     H_    0.176336 0.427990 0.557588 0.162300
H54   H     H_    0.656895 0.929009 0.705319 0.136564
H55   H     H_    0.676473 0.928045 0.557661 0.161959
H56   H     H_    0.937065 0.575878 0.369758 0.204047
H57   H     H_    0.002744 0.636700 0.578360 0.200023
H58   H     H_    0.437035 0.075846 0.369741 0.204161
H59   H     H_    0.502670 0.136694 0.578305 0.200054
H60   H     H_    0.915982 0.387450 0.172987 0.117716
H61   H     H_    0.001503 0.330845 0.832303 0.110714
H62   H     H_    0.416019 0.887430 0.173014 0.118153
H63   H     H_    0.689721 0.165509 0.175763 0.054570
H64   H     H_    0.501374 0.830795 0.832368 0.112543
H65   H     H_    0.018683 0.636133 0.430843 0.197839
H66   H     H_    0.920922 0.576445 0.517322 0.201031
H67   H     H_    0.518598 0.136127 0.430777 0.197661
H68   H     H_    0.420904 0.076413 0.517316 0.200954
H69   H     H_    0.074372 0.588879 0.330665 0.121793
H70   H     H_    0.031896 0.590531 0.746000 0.128075
H71   H     H_    0.574358 0.088889 0.330645 0.120893
H72   H     H_    0.531891 0.090537 0.746001 0.128114
H73   H     H_    0.730288 0.413235 0.669312 0.095849
H74   H     H_    0.498393 0.535421 0.285161 0.185541
H75   H     H_    0.287419 0.410566 0.257190 0.101787
H76   H     H_    0.230303 0.913225 0.669325 0.096020
H77   H     H_    0.787405 0.910561 0.257097 0.101665
H78   H     H_    0.728570 0.589771 0.667065 0.110574
H79   H     H_    0.294026 0.587892 0.274131 0.137106
H80   H     H_    0.228705 0.089755 0.666965 0.111505
H81   H     H_    0.794052 0.087882 0.274253 0.125061
H82   H     H_    0.753605 0.369188 0.824810 0.085380
H83   H     H_    0.188284 0.334314 0.176760 0.087981
H84   H     H_    0.253586 0.869201 0.824816 0.085476
H85   H     H_    0.566754 0.595432 0.480620 0.188618
H86   H     H_    0.688201 0.834316 0.176776 0.088111
H87   H     H_    0.927152 0.630082 0.175625 0.094222
H88   H     H_    0.017950 0.667143 0.825228 0.081565
H89   H     H_    0.427059 0.130065 0.175576 0.094169
H90   H     H_    0.517964 0.167139 0.825235 0.081934
H91   H     H_    0.416469 0.554703 0.484163 0.175434
H92   H     H_    0.617855 0.445007 0.418969 0.133966
H93   H     H_    0.916486 0.054823 0.483939 0.154548
H94   H     H_    0.117718 0.944648 0.419213 0.133723
H95   H     H_    0.489747 0.400726 0.770770 0.249042
H96   H     H_    0.998395 0.035017 0.284947 0.182780
H97   H     H_    0.471424 0.473650 0.779791 0.278921
H98   H     H_    0.371661 0.428251 0.705579 0.247280
H99   H     H_    0.385078 0.483486 0.575581 0.211586
H100  H     H_    0.406205 0.411207 0.568379 0.198355
H101  H     H_    0.578727 0.424236 0.681249 0.159334
H102  H     H_    0.564682 0.494759 0.703746 0.249278
H103  H     H_    0.463031 0.277409 0.484506 0.259706
H104  H     H_    0.492223 0.275265 0.385956 0.259322
H105  H     H_    0.581321 0.258790 0.529076 0.255665
H106  H     H_    0.604933 0.352991 0.482898 0.193641
H107  H     H_    0.066940 0.095369 0.480145 0.174414
H108  H     H_    0.575620 0.354740 0.580508 0.188581
H109  H     H_    0.405736 0.376645 0.426326 0.179036
H110  H     H_    0.436799 0.375005 0.329888 0.195504
H111  H     H_    0.990746 0.902085 0.772591 0.249390
H112  H     H_    0.970693 0.974999 0.779281 0.279215
H113  H     H_    0.872006 0.928781 0.706310 0.247121
H114  H     H_    0.884775 0.983453 0.575081 0.211446
H115  H     H_    0.907016 0.911135 0.569813 0.198488
H116  H     H_    0.079241 0.924985 0.682278 0.158693
H117  H     H_    0.064299 0.995588 0.703488 0.250166
H118  H     H_    0.627913 0.344041 0.836231 0.115165
H119  H     H_    0.962302 0.777615 0.485645 0.259590
H120  H     H_    0.992165 0.775106 0.387719 0.259404
H121  H     H_    0.080767 0.758837 0.531078 0.255444
H122  H     H_    0.104844 0.852853 0.484599 0.193732
H123  H     H_    0.074878 0.854954 0.581613 0.188530
H124  H     H_    0.905297 0.876866 0.426708 0.179563
H125  H     H_    0.936875 0.874790 0.330766 0.195896
H126  H     H_    0.518925 0.703164 0.209049 0.346211
H127  H     H_    0.482185 0.717032 0.548094 0.339424
H128  H     H_    0.019128 0.203267 0.209887 0.347190
N1    N     N_R   0.892620 0.603790 0.941770 -0.049028
N2    N     N_R   0.973690 0.529110 0.793240 -0.054074
N3    N     N_R   0.526310 0.029110 0.206760 -0.047115
N4    N     N_R   0.473690 0.029110 0.793240 -0.054107
N5    N     N_R   0.818570 0.472310 0.793020 -0.038058
N6    N     N_R   0.181430 0.472310 0.206980 -0.043581
N7    N     N_R   0.318570 0.972310 0.793020 -0.037490
N8    N     N_R   0.681430 0.972310 0.206980 -0.043310
N9    N     N_R   0.026930 0.472300 0.207330 -0.056954
N10   N     N_R   0.973070 0.472300 0.792670 -0.060260
N11   N     N_R   0.526930 0.972300 0.207330 -0.056923
N12   N     N_R   0.107380 0.603790 0.058230 -0.041930
N13   N     N_R   0.473070 0.972300 0.792670 -0.060085
N14   N     N_R   0.817960 0.529130 0.792460 -0.046324
N15   N     N_R   0.182040 0.529130 0.207540 -0.051258
N16   N     N_R   0.317960 0.029130 0.792460 -0.046412
N17   N     N_R   0.682040 0.029130 0.207540 -0.050385
N18   N     N_R   0.894850 0.397640 0.943830 -0.039815
N19   N     N_R   0.105150 0.397640 0.056170 -0.034633
N20   N     N_R   0.394850 0.897640 0.943830 -0.039824
N21   N     N_R   0.605150 0.897640 0.056170 -0.034728
N22   N     N_R   0.950040 0.603780 0.055950 -0.045365
N23   N     N_R   0.392620 0.103790 0.941770 -0.048689
N24   N     N_R   0.049960 0.603780 0.944050 -0.041069
N25   N     N_R   0.450040 0.103780 0.055950 -0.045266
N26   N     N_R   0.549960 0.103780 0.944050 -0.041109
N27   N     N_R   0.607380 0.103790 0.058230 -0.041701
N28   N     N_R   0.952270 0.397640 0.058010 -0.041280
N29   N     N_R   0.047730 0.397640 0.941990 -0.042191
N30   N     N_R   0.452270 0.897640 0.058010 -0.041349
N31   N     N_R   0.547730 0.897640 0.941990 -0.042300
N32   N     N_R   0.026310 0.529110 0.206760 -0.047304
Ni1   Ni    Ni4+2 0.934160 0.565860 0.869070 0.211396
Ni2   Ni    Ni4+2 0.065840 0.565860 0.130930 0.214505
Ni3   Ni    Ni4+2 0.434160 0.065860 0.869070 0.212044
Ni4   Ni    Ni4+2 0.565840 0.065860 0.130930 0.212462
Ni5   Ni    Ni4+2 0.067260 0.435560 0.132230 0.208888
Ni6   Ni    Ni4+2 0.932740 0.435560 0.867770 0.209919
Ni7   Ni    Ni4+2 0.567260 0.935560 0.132230 0.208788
Ni8   Ni    Ni4+2 0.432740 0.935560 0.867770 0.209714
O1    O     O_2   0.334975 0.624697 0.137774 -0.289137
O2    O     O_2   0.079672 0.100166 0.696382 -0.358566
O3    O     O_2   0.952724 0.154817 0.679610 -0.287285
O4    O     O_3   0.009565 0.183352 0.558312 -0.546440
O5    O     O_2   0.350198 0.696904 0.033488 -0.281925
O6    O     O_3   0.493495 0.676052 0.235475 -0.522101
O7    O     O_2   0.579893 0.599175 0.700491 -0.332515
O8    O     O_2   0.451504 0.654757 0.677354 -0.278536
O9    O     O_3   0.511977 0.680265 0.558536 -0.538479
O10   O     O_2   0.835094 0.124757 0.138148 -0.291249
O11   O     O_2   0.850558 0.196940 0.034020 -0.280622
O12   O     O_3   0.993606 0.176134 0.236165 -0.524399
S1    S     S_3+6 0.375080 0.680532 0.145016 -0.030914
S2    S     S_3+6 0.539651 0.656626 0.680392 -0.066375
S3    S     S_3+6 0.875216 0.180594 0.145460 -0.035648
S4    S     S_3+6 0.039384 0.157392 0.679669 -0.073497

loop_
_geom_bond_atom_site_label_1
_geom_bond_atom_site_label_2
_ccdc_geom_bond_type
C114  H54   S    
C87   C91   A    
C44   C128  A    
C122  H70   S    
C23   H117  S    
C90   C95   S    
C45   C57   S    
C102  H50   S    
N15   Ni2   S    
C38   H23   S    
N4    Ni3   S    
C69   C93   S    
N5    Ni6   S    
C18   H100  S    
C106  C107  A    
C133  N13   A    
C89   C94   A    
C91   C96   S    
C36   H12   S    
C127  N6    A    
C83   H35   S    
N23   N25   A    
C6    C104  A    
C32   H6    S    
C81   C86   A    
C27   C50   S    
C8    N22   A    
N19   Ni5   S    
C48   C50   S    
C60   H52   S    
C21   C22   S    
C124  H72   S    
C16   C71   A    
C112  H51   S    
N10   Ni6   S    
C76   C83   A    
C40   H33   S    
C26   H112  S    
C49   H41   S    
C102  H46   S    
O9    S2    S    
C24   C110  S    
C86   C90   A    
C43   C127  A    
N4    N13   A    
C124  N4    A    
C29   H121  S    
N9    N32   A    
N6    N15   A    
C37   C38   S    
C26   H113  S    
C28   H123  S    
N3    N11   A    
N21   N31   A    
C2    C131  A    
C69   C74   A    
C130  N9    A    
C71   H63   S    
N30   Ni7   S    
C8    H87   S    
N18   N28   A    
C62   H96   S    
C95   S1    S    
C22   H103  S    
C34   H16   S    
C42   H27   S    
C50   C57   S    
N1    Ni1   S    
C84   C88   A    
C47   C52   S    
H128  O12   S    
C25   H115  S    
C36   H14   S    
C66   C70   A    
C77   C82   A    
C11   H90   S    
C2    C108  S    
C13   C132  A    
C51   C55   S    
C29   H119  S    
C31   H7    S    
C20   C47   S    
N18   Ni6   S    
C73   H118  S    
C20   C21   S    
C94   C98   S    
C22   H105  S    
C37   H26   S    
C96   H39   S    
O2    S4    D    
C15   C60   A    
C75   H13   S    
C5    H83   S    
C72   C115  S    
O12   S3    S    
C64   C68   A    
N26   N27   A    
C38   C39   S    
C42   H28   S    
O7    S2    D    
C97   S3    S    
C98   S4    S    
C67   C72   A    
C35   C125  A    
C118  H57   S    
C64   C99   S    
C4    N18   A    
C98   H42   S    
C110  C114  A    
C99   H47   S    
C42   H29   S    
N13   Ni8   S    
C79   H62   S    
C66   C101  S    
C118  H66   S    
C1    C12   A    
H126  O6    S    
C101  H49   S    
N17   Ni4   S    
C92   C97   S    
N6    Ni5   S    
C48   C53   S    
C59   C61   S    
C14   C86   S    
C125  H73   S    
C78   N29   A    
H3    O4    S    
C25   C26   S    
C46   C51   S    
C39   H19   S    
C15   C89   S    
C31   C32   S    
N20   N30   A    
C8    C12   A    
C41   H30   S    
C17   C18   S    
N28   Ni5   S    
C103  C105  A    
N27   Ni4   S    
C6    H84   S    
C43   C55   S    
C20   H109  S    
C28   H122  S    
C120  H68   S    
O8    S2    D    
C100  H44   S    
C19   H98   S    
C1    H1    S    
C122  N2    A    
C30   H9    S    
O10   S3    D    
C105  C109  A    
C40   C41   S    
C35   C56   S    
C107  C111  A    
C84   H36   S    
C114  C116  A    
C59   H74   S    
O6    S1    S    
C4    H82   S    
C68   C82   S    
C13   C111  S    
C117  C118  S    
C53   C63   S    
C9    H88   S    
N19   N29   A    
C34   C36   S    
C74   C85   A    
C129  H77   S    
C109  C126  S    
C46   C56   S    
C70   C75   A    
C54   H94   S    
C95   C101  S    
C44   C136  A    
C83   C87   A    
C45   C129  A    
C41   C42   S    
C121  H69   S    
C77   N28   A    
C101  H45   S    
C66   C90   A    
C27   H124  S    
C74   H2    S    
C50   C54   S    
N23   Ni3   S    
N21   Ni7   S    
C135  N15   A    
C28   C29   S    
C136  N16   A    
C32   H4    S    
C106  C110  A    
C30   C31   S    
C13   C123  A    
C70   C104  S    
C96   C102  S    
C126  C130  A    
C35   C134  A    
C18   C19   S    
C52   H92   S    
C76   H24   S    
C44   C58   S    
C10   H89   S    
N24   Ni1   S    
C111  C116  A    
C12   C87   S    
C17   H102  S    
N32   Ni2   S    
N2    Ni1   S    
C105  C117  S    
N7    Ni8   S    
C107  C119  S    
C22   H104  S    
C2    C122  A    
C120  H59   S    
C134  N14   A    
C119  H67   S    
C38   H22   S    
C131  N10   A    
C85   C89   A    
C18   H99   S    
C54   C62   S    
C30   C130  S    
C132  N11   A    
C3    C45   A    
C108  C112  A    
C9    C14   A    
C99   H43   S    
C62   C63   S    
C7    N21   A    
C25   H114  S    
C80   N31   A    
N12   Ni2   S    
C80   C115  A    
C67   C91   A    
C81   H34   S    
C32   H5    S    
N7    N16   A    
C116  H55   S    
C98   C100  S    
O4    S4    S    
C103  C118  S    
C64   C92   A    
C96   S2    S    
C26   H111  S    
C37   H25   S    
N12   N24   A    
N8    N17   A    
C46   C47   S    
C53   C57   S    
C95   H38   S    
O3    S4    D    
C65   C100  S    
C119  C120  S    
C48   C58   S    
C113  H53   S    
O11   S3    D    
C134  H78   S    
C60   N23   A    
C129  N8    A    
C128  H76   S    
N2    N10   A    
C65   C69   A    
C33   H17   S    
C100  H48   S    
C61   H85   S    
N14   Ni1   S    
C123  N3    A    
C16   C88   S    
N16   Ni3   S    
C56   C61   S    
C53   H93   S    
C21   H106  S    
C27   H125  S    
C24   C133  A    
C51   C61   S    
C72   C76   A    
C57   C62   S    
C23   H116  S    
C117  H56   S    
C77   H60   S    
N9    Ni5   S    
C10   C15   A    
C79   N30   A    
N11   Ni7   S    
C14   C49   A    
C78   C93   A    
C80   H64   S    
C24   C124  A    
C11   C16   A    
C29   H120  S    
C7    C115  A    
C31   H8    S    
C36   H11   S    
O5    S1    D    
C135  H79   S    
C88   C92   A    
C49   N12   A    
C85   H37   S    
C103  C108  A    
C78   H61   S    
C73   C84   A    
C109  C113  A    
C33   C131  S    
C20   H110  S    
C97   H40   S    
C39   H21   S    
C71   N27   A    
C117  H65   S    
C19   H97   S    
N8    Ni7   S    
C112  C113  A    
C97   C99   S    
C30   H10   S    
C10   N25   A    
C11   N26   A    
O1    S1    D    
C17   C46   S    
C7    H86   S    
C33   H18   S    
C75   C81   A    
C68   C73   A    
C125  N5    A    
C52   C59   S    
C3    H81   S    
C63   H107  S    
C33   C34   S    
C123  H71   S    
N3    Ni4   S    
C43   C135  A    
N1    N22   A    
C21   H108  S    
C127  H75   S    
C65   C94   A    
C128  N7    A    
C79   C104  A    
C55   C59   S    
C47   C55   S    
C54   C58   S    
C58   C63   S    
N20   Ni8   S    
C23   C48   S    
C9    N24   A    
C106  C120  S    
C5    N19   A    
N25   Ni4   S    
C6    N20   A    
N26   Ni3   S    
C5    C93   A    
C34   H15   S    
C40   C133  S    
C37   C132  S    
C39   H20   S    
C119  H58   S    
C121  C126  A    
C51   H91   S    
C41   H31   S    
H127  O9    S    
N5    N14   A    
C23   C25   S    
C40   H32   S    
C3    N17   A    
C4    C82   A    
C27   C28   S    
C121  N32   A    
N22   Ni2   S    
C1    N1    A    
N29   Ni6   S    
C19   H95   S    
C52   C56   S    
C67   C102  S    
N31   Ni8   S    
C136  H80   S    
C17   H101  S    
