data_mof_unit_61889.cif
_audit_creation_date              2012-10-26T18:11:26-0400
_audit_creation_method            fapswitch 2.2
_symmetry_space_group_name_H-M    P1
_symmetry_Int_Tables_number       1
_space_group_crystal_system       triclinic
_cell_length_a                    18.711389
_cell_length_b                    18.617261
_cell_length_c                    18.908536
_cell_angle_alpha                 109.386694
_cell_angle_beta                  110.043012
_cell_angle_gamma                 108.839321
_cell_volume                      5079.19104373

loop_
_atom_site_label
_atom_site_type_symbol
_atom_type_description
_atom_site_fract_x
_atom_site_fract_y
_atom_site_fract_z
_atom_type_partial_charge
C1    C     C_R   0.618728 0.619153 0.500031 0.558433
C2    C     C_R   0.685305 0.686590 0.500267 -0.060130
C3    C     C_R   0.707276 0.540601 0.773105 -0.198314
C4    C     C_R   0.380378 0.500022 0.380671 0.551444
C5    C     C_R   0.770906 0.540092 0.837630 -0.209068
C6    C     C_R   0.817589 0.499671 0.817072 -0.001273
C7    C     C_R   0.800833 0.458713 0.731897 0.249323
C8    C     C_R   0.731385 0.452287 0.665280 0.242035
C9    C     C_R   0.687098 0.497351 0.686639 -0.019678
C10   C     C_R   0.266371 0.333974 0.537126 -0.190063
C11   C     C_R   0.200236 0.270042 0.535302 0.188014
C12   C     C_3   0.177945 0.421921 0.207690 -0.196744
C13   C     C_R   0.185380 0.184164 0.499606 0.009251
C14   C     C_R   0.234304 0.160918 0.464011 0.194602
C15   C     C_R   0.295766 0.223815 0.459332 0.234957
C16   C     C_R   0.381202 0.380361 0.499969 0.573317
C17   C     C_R   0.313834 0.311633 0.498836 -0.062487
C18   C     C_R   0.003255 0.619092 0.121724 0.558871
C19   C     C_R   0.123355 0.499572 0.122819 0.602049
C20   C     C_R   0.003222 0.380915 0.884645 0.598957
C21   C     C_R   0.884397 0.500655 0.884943 0.597761
C22   C     C_R   0.000791 0.880609 0.382150 0.584144
C23   C     C_3   0.224155 0.486812 0.306324 -0.132445
C24   C     C_R   0.881123 0.881392 0.500230 0.593172
C25   C     C_R   0.998442 0.118438 0.617847 0.567403
C26   C     C_R   0.118636 0.118355 0.499900 0.631076
C27   C     C_R   0.003475 0.758692 0.182104 -0.159770
C28   C     C_R   0.619702 0.499164 0.619757 0.575449
C29   C     C_R   0.000670 0.821189 0.244835 -0.174700
C30   C     C_R   0.002157 0.813541 0.316490 0.029504
C31   C     C_R   0.007384 0.743232 0.326066 0.241630
C32   C     C_R   0.004779 0.677907 0.259860 -0.104969
C33   C     C_R   0.004110 0.686384 0.188928 -0.010250
C34   C     C_3   0.312571 0.500273 0.312998 -0.036859
C35   C     C_R   0.076305 0.309699 0.828541 -0.213959
C36   C     C_R   0.074580 0.245272 0.763639 -0.192405
C37   C     C_R   0.996447 0.183959 0.684731 -0.029465
C38   C     C_R   0.918146 0.186055 0.671507 0.260052
C39   C     C_R   0.920427 0.252059 0.737227 0.278130
C40   C     C_3   0.326585 0.578514 0.296520 -0.106915
C41   C     C_R   0.999841 0.313206 0.815609 -0.020578
C42   C     C_3   0.237215 0.563236 0.287679 0.268075
C43   C     C_3   0.191105 0.499242 0.190553 0.084921
C44   C     C_3   0.279088 0.512024 0.198954 0.259831
C45   C     C_R   0.753482 0.761353 0.578884 -0.147088
C46   C     C_3   0.266846 0.434374 0.215234 -0.138208
C47   C     C_3   0.266218 0.677013 0.410220 -0.124976
C48   C     C_3   0.909738 0.472902 0.700531 0.019512
C49   C     C_3   0.965047 0.432222 0.684444 -0.351334
C50   C     C_3   0.656119 0.316008 0.547917 0.023716
C51   C     C_3   0.623536 0.265382 0.451457 -0.353654
C52   C     C_3   0.096503 0.310890 0.525738 -0.002970
C53   C     C_3   0.038397 0.322036 0.563348 -0.363688
C54   C     C_3   0.280939 0.066489 0.483663 0.007358
C55   C     C_3   0.258571 0.971062 0.444310 -0.369597
C56   C     C_R   0.818482 0.827133 0.580157 0.204903
C57   C     C_3   0.292088 0.159053 0.331682 0.022302
C58   C     C_3   0.348038 0.143882 0.292381 -0.370128
C59   C     C_3   0.085005 0.739614 0.446718 -0.111922
C60   C     C_3   0.802096 0.047695 0.591286 -0.104207
C61   C     C_3   0.789929 0.208525 0.735190 -0.073942
C62   C     C_3   0.386766 0.535387 0.162886 -0.110470
C63   C     C_3   0.865750 0.937189 0.717266 -0.021011
C64   C     C_3   0.936853 0.031676 0.783197 -0.366105
C65   C     C_3   0.778002 0.677732 0.320736 -0.101814
C66   C     C_R   0.814075 0.814979 0.500808 0.039961
C67   C     C_R   0.745498 0.739447 0.421774 0.215408
C68   C     C_R   0.681116 0.675848 0.422017 -0.132985
Cu1   Cu    Cu3+1 0.500500 0.438200 0.438680 0.928542
Cu2   Cu    Cu3+1 0.499500 0.561800 0.561320 0.898870
Cu3   Cu    Cu3+1 0.942090 0.438180 0.003770 0.923599
Cu4   Cu    Cu3+1 0.065710 0.561750 0.003750 0.973429
Cu5   Cu    Cu3+1 0.062280 0.999890 0.562170 0.966954
Cu6   Cu    Cu3+1 0.937720 0.999930 0.437650 0.984108
H1    H     H_    0.627723 0.618292 0.361012 0.135034
H2    H     H_    0.134887 0.244170 0.774629 0.160581
H3    H     H_    0.280295 0.381374 0.186319 0.124542
H4    H     H_    0.116406 0.358366 0.170235 0.125782
H5    H     H_    0.203256 0.476823 0.352189 0.110169
H6    H     H_    0.756680 0.766654 0.638755 0.122453
H7    H     H_    0.337452 0.708952 0.433370 0.120667
H8    H     H_    0.249958 0.635163 0.438962 0.112395
H9    H     H_    0.250486 0.729630 0.433698 0.121586
H10   H     H_    0.954034 0.539428 0.758942 0.128834
H11   H     H_    0.876851 0.478938 0.643084 0.163607
H12   H     H_    0.673093 0.573972 0.790844 0.153890
H13   H     H_    0.922367 0.364631 0.628123 0.181076
H14   H     H_    0.011145 0.471995 0.670570 0.075102
H15   H     H_    0.003203 0.430092 0.742615 0.177746
H16   H     H_    0.597956 0.304764 0.556223 0.134291
H17   H     H_    0.693054 0.289699 0.581242 0.181779
H18   H     H_    0.679804 0.273707 0.440812 0.158483
H19   H     H_    0.580639 0.194725 0.425305 0.093390
H20   H     H_    0.585565 0.289596 0.416214 0.159652
H21   H     H_    0.053732 0.256418 0.457063 0.137151
H22   H     H_    0.132130 0.372762 0.527364 0.120116
H23   H     H_    0.784837 0.572468 0.903899 0.126131
H24   H     H_    0.079271 0.374954 0.632320 0.158251
H25   H     H_    0.993216 0.339364 0.526134 0.089024
H26   H     H_    0.999297 0.260204 0.559619 0.186887
H27   H     H_    0.284283 0.087470 0.547701 0.137481
H28   H     H_    0.346328 0.105883 0.493797 0.167810
H29   H     H_    0.255080 0.948247 0.380360 0.165242
H30   H     H_    0.309560 0.963688 0.488086 0.081816
H31   H     H_    0.194583 0.929957 0.435312 0.169473
H32   H     H_    0.267767 0.200144 0.311153 0.124526
H33   H     H_    0.235403 0.094438 0.305468 0.166413
H34   H     H_    0.280079 0.401052 0.568174 0.153792
H35   H     H_    0.372507 0.102158 0.310777 0.151548
H36   H     H_    0.308562 0.110630 0.220532 0.086612
H37   H     H_    0.404642 0.207440 0.316260 0.156815
H38   H     H_    0.088984 0.746386 0.508681 0.139666
H39   H     H_    0.143359 0.797832 0.463232 0.109160
H40   H     H_    0.086503 0.678736 0.414043 0.116640
H41   H     H_    0.838616 0.011973 0.583395 0.144253
H42   H     H_    0.734819 0.005819 0.534463 0.140249
H43   H     H_    0.797133 0.056529 0.650224 0.068947
H44   H     H_    0.759734 0.243567 0.762766 0.143709
H45   H     H_    0.002816 0.765452 0.127169 0.128559
H46   H     H_    0.821137 0.188685 0.781451 0.084129
H47   H     H_    0.736424 0.149643 0.672182 0.125366
H48   H     H_    0.390128 0.477102 0.163762 0.110522
H49   H     H_    0.436287 0.595362 0.226932 0.120028
H50   H     H_    0.403574 0.543654 0.114227 0.147719
H51   H     H_    0.860042 0.900914 0.753150 0.135603
H52   H     H_    0.803126 0.936683 0.685113 0.106098
H53   H     H_    0.945727 0.070032 0.749867 0.152010
H54   H     H_    0.918261 0.061346 0.830421 0.087246
H55   H     H_    0.999661 0.034397 0.818786 0.166165
H56   H     H_    0.388063 0.642120 0.333968 0.097731
H57   H     H_    0.847132 0.708060 0.372136 0.163443
H58   H     H_    0.778175 0.673437 0.260861 0.148721
H59   H     H_    0.739529 0.609985 0.306595 0.110324
H60   H     H_    0.998640 0.876228 0.238214 0.140442
H61   H     H_    0.003999 0.621013 0.263974 0.139127
H62   H     H_    0.137334 0.356865 0.889096 0.154034
O1    O     O_R   0.590610 0.537990 0.448230 -0.508444
O2    O     O_R   0.948100 0.909770 0.357840 -0.517470
O3    O     O_R   0.962410 0.909720 0.552480 -0.472655
O4    O     O_R   0.589770 0.642360 0.551790 -0.514266
O5    O     O_R   0.857220 0.909750 0.447330 -0.488046
O6    O     O_R   0.051900 0.090060 0.641980 -0.517647
O7    O     O_R   0.946710 0.090090 0.536830 -0.481471
O8    O     O_R   0.142780 0.090070 0.552500 -0.519005
O9    O     O_R   0.037590 0.090110 0.447350 -0.517393
O10   O     O_R   0.409550 0.447810 0.357350 -0.524349
O11   O     O_R   0.408710 0.552190 0.460910 -0.517122
O12   O     O_R   0.055400 0.642330 0.093210 -0.509152
O13   O     O_R   0.410230 0.357640 0.448210 -0.472222
O14   O     O_R   0.409390 0.462010 0.551770 -0.523965
O15   O     O_R   0.591290 0.447810 0.539090 -0.459603
O16   O     O_R   0.590450 0.552190 0.642650 -0.523492
O17   O     O_R   0.951000 0.537980 0.093230 -0.517592
O18   O     O_3   0.216030 0.628792 0.318955 -0.565982
O19   O     O_3   0.848019 0.419047 0.713079 -0.515611
O20   O     O_3   0.710318 0.405763 0.580183 -0.543461
O21   O     O_3   0.155708 0.292447 0.576081 -0.549041
O22   O     O_3   0.215977 0.074704 0.426670 -0.569126
O23   O     O_R   0.042570 0.447790 0.094640 -0.530434
O24   O     O_3   0.343302 0.200920 0.422957 -0.542457
O25   O     O_3   0.006241 0.734792 0.395814 -0.576681
O26   O     O_3   0.840517 0.127897 0.593367 -0.533975
O27   O     O_3   0.848503 0.264224 0.721230 -0.504676
O28   O     O_3   0.302066 0.523898 0.138377 -0.553051
O29   O     O_3   0.889935 0.900922 0.657006 -0.544048
O30   O     O_3   0.739854 0.728984 0.343805 -0.557295
O31   O     O_R   0.146970 0.552140 0.094620 -0.465507
O32   O     O_R   0.952400 0.357600 0.914310 -0.510960
O33   O     O_R   0.056800 0.461950 0.914290 -0.511569
O34   O     O_R   0.860830 0.447790 0.912900 -0.508671
O35   O     O_R   0.965230 0.552140 0.912880 -0.518323
O36   O     O_R   0.053290 0.909730 0.462990 -0.492173

loop_
_geom_bond_atom_site_label_1
_geom_bond_atom_site_label_2
_ccdc_geom_bond_type
Cu6   O7    S    
C31   O25   S    
Cu2   O4    S    
C27   C29   A    
C58   H35   S    
C11   C13   A    
Cu5   Cu6   S    
C49   H13   S    
Cu6   O9    S    
C10   H34   S    
C25   O6    A    
Cu2   O14   S    
C62   H50   S    
C20   C41   S    
C7    C8    A    
C39   C41   A    
C53   H25   S    
C68   H1    S    
C20   O33   A    
Cu6   O2    S    
C12   C23   S    
C29   C30   A    
C23   C42   S    
C14   O22   S    
C3    C9    A    
C36   C37   A    
C42   O18   S    
C12   C43   S    
C2    C68   A    
C30   C31   A    
C10   C17   A    
C21   O34   A    
Cu3   O17   S    
C55   H29   S    
C52   H21   S    
C61   H47   S    
C1    C2    S    
C47   H8    S    
Cu6   O5    S    
C36   H2    S    
C25   C37   S    
C50   H16   S    
C62   O28   S    
C35   C36   A    
C45   C56   A    
C44   C46   S    
C8    C9    A    
C64   H54   S    
C12   H4    S    
C56   O29   S    
C60   O26   S    
C16   O13   A    
C34   C46   S    
C47   H9    S    
C24   C66   S    
C64   H53   S    
C40   C42   S    
C57   H32   S    
C2    C45   A    
C58   H36   S    
C13   C14   A    
C3    H12   S    
Cu1   O10   S    
C49   H14   S    
C25   O7    A    
C19   O31   A    
C26   O8    A    
C62   H49   S    
C65   H57   S    
C19   C43   S    
C50   C51   S    
Cu5   O6    S    
C24   O3    A    
Cu1   O1    S    
C38   C39   A    
C20   O32   A    
C4    C34   S    
C67   C68   A    
Cu1   O15   S    
Cu4   O35   S    
Cu2   O16   S    
C12   C46   S    
C50   O20   S    
C38   O26   S    
C16   C17   S    
Cu5   O3    S    
C21   O35   A    
C6    C21   S    
C55   H30   S    
C27   C33   A    
C48   H10   S    
C26   O9    A    
C43   C44   S    
C37   C38   A    
C59   O25   S    
C51   H18   S    
C54   O22   S    
C31   C32   A    
C14   C15   A    
C40   C44   S    
C24   O5    A    
C59   H39   S    
C23   C34   S    
C4    O10   A    
C59   H38   S    
C18   O17   A    
Cu3   O34   S    
C60   H43   S    
Cu5   O36   S    
C1    O4    A    
C63   H51   S    
C54   H27   S    
C57   O24   S    
C51   H19   S    
C67   O30   S    
C32   H61   S    
C48   C49   S    
C57   H33   S    
C48   O19   S    
C5    H23   S    
C28   O16   A    
Cu3   O32   S    
Cu4   O31   S    
C34   C40   S    
C13   C26   S    
C60   H42   S    
C42   C43   S    
C8    O20   S    
C39   O27   S    
C62   H48   S    
C65   H58   S    
C1    O1    A    
C52   C53   S    
C11   O21   S    
C53   H26   S    
C52   O21   S    
C15   C17   A    
C40   H56   S    
C54   C55   S    
C22   C30   S    
C61   H44   S    
C61   O27   S    
C54   H28   S    
C49   H15   S    
C3    C5    A    
C35   H62   S    
C46   H3    S    
C58   H37   S    
C23   H5    S    
C6    C7    A    
C47   O18   S    
C27   H45   S    
C53   H24   S    
Cu3   O23   S    
C22   O2    A    
C18   O12   A    
Cu1   O13   S    
Cu4   O33   S    
C19   O23   A    
C15   O24   S    
Cu4   O12   S    
C66   C67   A    
C32   C33   A    
C29   H60   S    
C4    O11   A    
C57   C58   S    
C5    C6    A    
C59   H40   S    
C56   C66   A    
C65   O30   S    
C55   H31   S    
C52   H22   S    
C45   H6    S    
C47   H7    S    
Cu1   Cu2   S    
C35   C41   A    
C18   C33   S    
C22   O36   A    
C63   H52   S    
C10   C11   A    
C51   H20   S    
C63   C64   S    
C50   H17   S    
C63   O29   S    
C7    O19   S    
C64   H55   S    
C28   O15   A    
C48   H11   S    
C60   H41   S    
C16   O14   A    
Cu2   O11   S    
C44   O28   S    
Cu3   Cu4   S    
C65   H59   S    
C9    C28   S    
C61   H46   S    
Cu5   O8    S    
