data_mof_unit_62833.cif
_audit_creation_date              2012-12-10T20:37:17-0500
_audit_creation_method            fapswitch 2.2
_symmetry_space_group_name_H-M    P1
_symmetry_Int_Tables_number       1
_space_group_crystal_system       triclinic
_cell_length_a                    36.123272
_cell_length_b                    39.737007
_cell_length_c                    26.836924
_cell_angle_alpha                 90.000287
_cell_angle_beta                  132.150745
_cell_angle_gamma                 90.000752
_cell_volume                      28559.9127369

loop_
_atom_site_label
_atom_site_type_symbol
_atom_type_description
_atom_site_fract_x
_atom_site_fract_y
_atom_site_fract_z
_atom_type_partial_charge
C1    C     C_R   0.400260 0.749925 0.000027 0.500008
C2    C     C_3   0.766425 0.736124 0.057778 0.105309
C3    C     C_R   0.214297 0.254772 0.362145 -0.160770
C4    C     C_R   0.687009 0.221257 0.363018 -0.163906
C5    C     C_R   0.314066 0.779285 0.636808 -0.137283
C6    C     C_R   0.312994 0.221255 0.636980 -0.164216
C7    C     C_R   0.685937 0.779286 0.363193 -0.137670
C8    C     C_R   0.199072 0.750736 0.397608 0.004514
C9    C     C_R   0.800561 0.249266 0.602181 0.003188
C10   C     C_R   0.800928 0.750735 0.602392 0.004289
C11   C     C_R   0.199437 0.249268 0.397818 0.003059
C12   C     C_R   0.697712 0.251209 0.397521 0.004367
C13   C     C_3   0.762446 0.269942 0.049757 0.089584
C14   C     C_R   0.300425 0.748906 0.602381 -0.001945
C15   C     C_R   0.302287 0.251208 0.602479 0.004170
C16   C     C_R   0.699577 0.748906 0.397619 -0.002157
C17   C     C_1   0.234783 0.749946 0.469783 0.013651
C18   C     C_1   0.763461 0.250144 0.530045 0.008488
C19   C     C_1   0.765218 0.749946 0.530217 0.013344
C20   C     C_1   0.236538 0.250144 0.469954 0.008321
C21   C     C_1   0.733194 0.250621 0.469673 0.009625
C22   C     C_1   0.264666 0.749468 0.530165 0.011006
C23   C     C_1   0.266805 0.250620 0.530326 0.009425
C24   C     C_3   0.232560 0.738428 0.940203 0.090386
C25   C     C_1   0.735336 0.749469 0.469835 0.010692
C26   C     C_R   0.536870 0.431139 0.006417 0.144362
C27   C     C_R   0.537126 0.568766 0.007045 0.146169
C28   C     C_R   0.463125 0.431136 0.993587 0.144331
C29   C     C_R   0.462866 0.568767 0.992949 0.146057
C30   C     C_R   0.044432 0.930819 0.029446 0.145982
C31   C     C_R   0.963498 0.068765 0.939641 0.144742
C32   C     C_R   0.955570 0.930817 0.970568 0.145921
C33   C     C_R   0.036505 0.068767 0.060368 0.144813
C34   C     C_R   0.536671 0.395772 0.005699 0.122855
C35   C     C_3   0.733709 0.763711 0.942436 0.105216
C36   C     C_R   0.537020 0.604074 0.006585 0.123036
C37   C     C_R   0.463325 0.395769 0.994304 0.123050
C38   C     C_R   0.462974 0.604074 0.993409 0.122638
C39   C     C_R   0.044301 0.895427 0.028592 0.124058
C40   C     C_R   0.963898 0.104171 0.939261 0.126306
C41   C     C_R   0.955700 0.895426 0.971420 0.124320
C42   C     C_R   0.036105 0.104174 0.060744 0.126203
C43   C     C_R   0.499998 0.377979 0.000000 -0.020582
C44   C     C_R   0.499998 0.621965 0.999998 -0.014214
C45   C     C_R   0.000000 0.877760 0.000002 -0.009918
C46   C     C_3   0.262089 0.229291 0.049040 0.103510
C47   C     C_R   0.000001 0.121967 0.000002 -0.015593
C48   C     C_R   0.499997 0.448691 0.000002 -0.021982
C49   C     C_R   0.499996 0.551194 0.999997 -0.026122
C50   C     C_R   0.000001 0.948443 0.000007 -0.023841
C51   C     C_R   0.000001 0.051162 0.000006 -0.023044
C52   C     C_1   0.499995 0.484850 0.000000 -0.039034
C53   C     C_1   0.499995 0.515040 0.999999 -0.040493
C54   C     C_1   0.000001 0.984679 0.000008 -0.041336
C55   C     C_1   0.000001 0.014920 0.000007 -0.040703
C56   C     C_R   0.499999 0.659006 0.999999 0.507432
C57   C     C_3   0.267310 0.761410 0.059589 0.090015
C58   C     C_R   0.499999 0.340964 1.000000 0.489096
C59   C     C_R   0.000000 0.159019 0.000000 0.490561
C60   C     C_R   1.000000 0.840881 0.000000 0.493340
C61   C     C_R   0.500000 0.840829 0.000001 0.495256
C62   C     C_R   0.499999 0.159124 1.000000 0.487421
C63   C     C_R   0.000000 0.340910 0.000000 0.505521
C64   C     C_R   0.999999 0.659205 0.999999 0.491760
C65   C     C_R   0.527647 0.068895 0.988695 0.144886
C66   C     C_R   0.515815 0.930902 0.971515 0.146986
C67   C     C_R   0.472346 0.068895 0.011303 0.144815
C68   C     C_3   0.737420 0.229815 0.950012 0.088244
C69   C     C_R   0.484188 0.930900 0.028494 0.146993
C70   C     C_R   0.012076 0.569225 0.966936 0.142790
C71   C     C_R   0.026390 0.431280 0.061109 0.140770
C72   C     C_R   0.987911 0.569226 0.033057 0.142763
C73   C     C_R   0.973606 0.431280 0.938893 0.140830
C74   C     C_R   0.528349 0.104298 0.989713 0.123574
C75   C     C_R   0.515559 0.895520 0.971154 0.127247
C76   C     C_R   0.471645 0.104299 0.010284 0.123385
C77   C     C_R   0.484444 0.895519 0.028853 0.127336
C78   C     C_R   0.012734 0.604625 0.967660 0.125499
C79   C     C_3   0.711913 0.732042 0.947950 0.145561
C80   C     C_R   0.025966 0.395776 0.061053 0.103721
C81   C     C_R   0.987253 0.604627 0.032331 0.125370
C82   C     C_R   0.974033 0.395776 0.938949 0.103810
C83   C     C_R   0.499998 0.122084 0.999999 -0.017449
C84   C     C_R   0.500001 0.877782 0.000003 -0.007223
C85   C     C_R   0.999997 0.622305 0.999998 -0.007321
C86   C     C_R   0.000001 0.378012 0.000001 0.003549
C87   C     C_R   0.499997 0.051283 1.000000 -0.022106
C88   C     C_R   0.500001 0.948537 0.000005 -0.024486
C89   C     C_R   0.999994 0.551585 0.999998 -0.030657
C90   C     C_3   0.291858 0.260651 0.059538 0.146130
C91   C     C_R   0.999997 0.448792 0.000001 0.020811
C92   C     C_1   0.499998 0.015031 0.000002 -0.039863
C93   C     C_1   0.499999 0.984784 0.000003 -0.040914
C94   C     C_1   0.999995 0.515323 0.000000 -0.031072
C95   C     C_1   0.999996 0.485062 0.000001 0.024093
C96   C     C_3   0.528142 0.047331 0.905114 -0.294905
C97   C     C_3   0.585293 0.952316 0.986663 -0.290215
C98   C     C_3   0.471850 0.047333 0.094882 -0.294537
C99   C     C_3   0.414711 0.952313 0.013350 -0.290195
C100  C     C_3   0.981198 0.547262 0.861201 -0.284946
C101  C     C_3   0.286592 0.730055 0.049073 0.141934
C102  C     C_3   0.099031 0.463490 0.152284 -0.312997
C103  C     C_3   0.018782 0.547267 0.138790 -0.284843
C104  C     C_3   0.900963 0.463486 0.847719 -0.313067
C105  C     C_3   0.620409 0.453808 0.083235 -0.296868
C106  C     C_3   0.564934 0.545708 0.953805 -0.295284
C107  C     C_3   0.379584 0.453799 0.916773 -0.296841
C108  C     C_3   0.435056 0.545710 0.046187 -0.294562
C109  C     C_3   0.121771 0.952353 0.132459 -0.295193
C110  C     C_3   0.879498 0.046892 0.864191 -0.294606
C111  C     C_3   0.878228 0.952349 0.867560 -0.295133
C112  C     C_R   0.599723 0.250060 0.999948 0.498907
C113  C     C_3   0.708402 0.261294 0.940966 0.142505
C114  C     C_3   0.120504 0.046897 0.135821 -0.294790
C115  C     C_3   0.568004 0.376473 0.954224 -0.263686
C116  C     C_3   0.617070 0.632229 0.082231 -0.290341
C117  C     C_3   0.431996 0.376464 0.045780 -0.265492
C118  C     C_3   0.382925 0.632227 0.917758 -0.289430
C119  C     C_3   0.100999 0.875337 0.016324 -0.276258
C120  C     C_3   0.934799 0.123336 0.832349 -0.277548
C121  C     C_3   0.899015 0.875331 0.983708 -0.279062
C122  C     C_3   0.065204 0.123344 0.167654 -0.276956
C123  C     C_3   0.609249 0.123514 0.034075 -0.265962
C124  C     C_3   0.208267 0.239129 0.940676 0.146900
C125  C     C_3   0.490008 0.874045 0.868086 -0.297102
C126  C     C_3   0.390746 0.123514 0.965920 -0.265562
C127  C     C_3   0.509993 0.874043 0.131918 -0.297652
C128  C     C_3   0.078183 0.624954 0.972577 -0.278150
C129  C     C_3   0.103242 0.372569 0.164699 -0.274108
C130  C     C_3   0.921792 0.624957 0.027384 -0.277966
C131  C     C_3   0.896759 0.372566 0.835302 -0.274013
C132  C     C_3   0.675283 0.698468 0.847742 -0.286363
C133  C     C_3   0.335290 0.280556 0.173373 -0.289466
C134  C     C_3   0.320539 0.693358 0.144502 -0.295260
C135  C     C_3   0.788223 0.767794 0.052264 0.145709
C136  C     C_3   0.665538 0.281631 0.827693 -0.298202
C137  C     C_3   0.164754 0.219223 0.826811 -0.290031
C138  C     C_3   0.824870 0.801369 0.152478 -0.286121
C139  C     C_3   0.834405 0.218108 0.172092 -0.298646
C140  C     C_3   0.179308 0.806474 0.855275 -0.295214
C141  C     C_3   0.237391 0.158567 0.975299 -0.308182
C142  C     C_3   0.739707 0.841420 0.978392 -0.307113
C143  C     C_3   0.763209 0.158804 0.024481 -0.299225
C144  C     C_3   0.264691 0.840394 0.031893 -0.298551
C145  C     C_3   0.760529 0.658404 0.021849 -0.306529
C146  C     C_3   0.791464 0.238464 0.058798 0.143378
C147  C     C_3   0.262883 0.341190 0.024904 -0.306787
C148  C     C_3   0.235075 0.659432 0.967867 -0.297609
C149  C     C_3   0.736477 0.340924 0.975259 -0.298246
C150  C     C_3   0.234825 0.827080 0.428810 -0.304219
C151  C     C_3   0.849225 0.207356 0.560220 -0.306785
C152  C     C_3   0.765177 0.827079 0.571193 -0.304196
C153  C     C_3   0.150747 0.207390 0.439776 -0.306795
C154  C     C_3   0.732637 0.327957 0.427188 -0.297803
C155  C     C_3   0.258838 0.674570 0.569862 -0.303379
C156  C     C_3   0.267355 0.327953 0.572818 -0.297810
C157  C     C_3   0.213277 0.769783 0.950720 0.142023
C158  C     C_3   0.741161 0.674571 0.430132 -0.303383
C159  C     C_3   0.142590 0.827534 0.235748 -0.288954
C160  C     C_3   0.953880 0.204243 0.749750 -0.273975
C161  C     C_3   0.857409 0.827533 0.764256 -0.288654
C162  C     C_3   0.046092 0.204281 0.250247 -0.274448
C163  C     C_3   0.642228 0.327375 0.234845 -0.288607
C164  C     C_3   0.352902 0.672869 0.762630 -0.294810
C165  C     C_3   0.357763 0.327371 0.765161 -0.288425
C166  C     C_3   0.647097 0.672870 0.237364 -0.294498
C167  C     C_3   0.095287 0.673124 0.236669 -0.289541
C168  C     C_1   0.639279 0.749860 0.999969 0.004705
C169  C     C_3   0.798151 0.228361 0.765875 -0.284977
C170  C     C_3   0.904711 0.673125 0.763326 -0.290293
C171  C     C_3   0.201836 0.228332 0.234120 -0.285076
C172  C     C_3   0.595752 0.173175 0.236804 -0.288316
C173  C     C_3   0.341670 0.842775 0.708043 -0.311682
C174  C     C_3   0.404257 0.173178 0.763193 -0.289298
C175  C     C_3   0.658337 0.842775 0.291960 -0.311782
C176  C     C_1   0.360784 0.250072 0.000135 0.000905
C177  C     C_1   0.360716 0.749842 0.000002 0.004215
C178  C     C_1   0.639218 0.250090 0.999886 0.000301
C179  C     C_1   0.139293 0.249843 0.000001 0.000974
C180  C     C_R   0.599743 0.749926 0.999973 0.500627
C181  C     C_1   0.860788 0.750073 0.000139 0.000994
C182  C     C_1   0.860700 0.249818 0.999966 0.000528
C183  C     C_1   0.139219 0.750091 0.999892 0.000400
C184  C     C_3   0.735302 0.781470 0.994990 0.132147
C185  C     C_3   0.256881 0.218711 0.989245 0.133541
C186  C     C_3   0.267198 0.781117 0.009950 0.142338
C187  C     C_3   0.742365 0.218642 0.009325 0.143615
C188  C     C_3   0.243254 0.281072 0.010966 0.132527
C189  C     C_3   0.764838 0.718368 0.005223 0.132706
C190  C     C_3   0.757489 0.281120 0.990442 0.142673
C191  C     C_R   0.400273 0.250059 0.000052 0.499951
C192  C     C_3   0.232666 0.718723 0.989844 0.142920
C193  C     C_3   0.713003 0.749903 0.000087 -0.011781
C194  C     C_3   0.287109 0.249924 0.000096 -0.011626
C195  C     C_3   0.286986 0.749841 0.999846 -0.008444
C196  C     C_3   0.712885 0.249988 0.999935 -0.008317
C197  C     C_3   0.213018 0.249865 0.000122 -0.011637
C198  C     C_3   0.787127 0.749938 0.000124 -0.011566
C199  C     C_3   0.786978 0.249780 0.999826 -0.008281
C200  C     C_3   0.212889 0.750001 0.999950 -0.008259
C201  C     C_1   0.672563 0.749852 0.000028 -0.037407
C202  C     C_R   0.900256 0.249920 0.000016 0.503937
C203  C     C_1   0.327529 0.250028 0.000127 -0.040179
C204  C     C_1   0.327423 0.749814 0.999920 -0.037257
C205  C     C_1   0.672476 0.250068 0.999905 -0.040069
C206  C     C_1   0.172580 0.249821 0.000067 -0.040274
C207  C     C_1   0.827538 0.750031 0.000141 -0.039728
C208  C     C_1   0.827407 0.249766 0.999883 -0.040082
C209  C     C_1   0.172479 0.750070 0.999917 -0.039684
C210  C     C_R   0.175551 0.781021 0.362853 0.152414
C211  C     C_R   0.851063 0.243372 0.636176 0.154658
C212  C     C_R   0.824449 0.781021 0.637149 0.152117
C213  C     C_R   0.099723 0.750061 0.999949 0.498861
C214  C     C_R   0.148931 0.243389 0.363821 0.154763
C215  C     C_R   0.674250 0.281406 0.362397 0.152964
C216  C     C_R   0.322148 0.718477 0.637441 0.152772
C217  C     C_R   0.325745 0.281405 0.637605 0.152749
C218  C     C_R   0.677853 0.718477 0.362557 0.152499
C219  C     C_R   0.140134 0.781018 0.291681 0.113772
C220  C     C_R   0.886940 0.243423 0.707359 0.103814
C221  C     C_R   0.859865 0.781018 0.708321 0.113239
C222  C     C_R   0.113055 0.243440 0.292638 0.104176
C223  C     C_R   0.639504 0.281282 0.291265 0.113569
C224  C     C_R   0.099747 0.249922 0.999982 0.504927
C225  C     C_R   0.358099 0.718815 0.708520 0.117999
C226  C     C_R   0.360491 0.281282 0.708737 0.113272
C227  C     C_R   0.641902 0.718815 0.291478 0.117544
C228  C     C_R   0.128219 0.750411 0.256374 0.058070
C229  C     C_R   0.871660 0.249169 0.743485 0.052374
C230  C     C_R   0.871780 0.750411 0.743626 0.057655
C231  C     C_R   0.128339 0.249171 0.256514 0.052377
C232  C     C_R   0.628093 0.250605 0.256336 0.057243
C233  C     C_R   0.371891 0.749747 0.743501 0.040848
C234  C     C_R   0.371905 0.250605 0.743664 0.056938
C235  C     C_R   0.900274 0.750060 0.000052 0.499503
C236  C     C_R   0.628111 0.749747 0.256499 0.040385
C237  C     C_R   0.152072 0.720198 0.292478 0.094898
C238  C     C_R   0.820554 0.254455 0.708097 0.090133
C239  C     C_R   0.847927 0.720198 0.707520 0.094757
C240  C     C_R   0.179447 0.254444 0.291902 0.090133
C241  C     C_R   0.652002 0.220494 0.292791 0.095366
C242  C     C_R   0.350157 0.780334 0.707434 0.104944
C243  C     C_R   0.348001 0.220493 0.707208 0.095271
C244  C     C_R   0.649846 0.780334 0.292568 0.104558
C245  C     C_R   0.590946 0.749960 0.182068 0.518837
C246  C     C_3   0.238035 0.270488 0.951170 0.104776
C247  C     C_R   0.408967 0.250159 0.817975 0.532882
C248  C     C_R   0.409054 0.749960 0.817932 0.519403
C249  C     C_R   0.591033 0.250159 0.182025 0.533318
C250  C     C_R   0.090933 0.249925 0.182100 0.537912
C251  C     C_R   0.908966 0.750120 0.817961 0.532490
C252  C     C_R   0.909066 0.249925 0.817900 0.538470
C253  C     C_R   0.091033 0.750120 0.182038 0.532892
C254  C     C_R   0.187642 0.720819 0.362703 -0.159424
C255  C     C_R   0.785705 0.254783 0.637854 -0.160630
C256  C     C_R   0.812357 0.720818 0.637294 -0.159769
F1    F     F_    0.225834 0.291550 0.900989 -0.185154
F2    F     F_    0.783051 0.722034 0.116884 -0.184774
F3    F     F_    0.775217 0.290499 0.100858 -0.189013
F4    F     F_    0.214805 0.726652 0.879040 -0.188403
F5    F     F_    0.717085 0.777800 0.883329 -0.184519
F6    F     F_    0.274286 0.208226 0.099215 -0.186809
F7    F     F_    0.285062 0.773184 0.120753 -0.188209
F8    F     F_    0.724655 0.209255 0.898917 -0.190670
H1    H     H_    0.205814 0.697621 0.390279 0.115420
H2    H     H_    0.494032 0.031883 0.880044 0.125915
H3    H     H_    0.927838 0.860066 0.029124 0.160526
H4    H     H_    0.085439 0.144055 0.117655 0.243068
H5    H     H_    0.097419 0.135901 0.214999 0.121236
H6    H     H_    0.061312 0.097757 0.180283 0.169390
H7    H     H_    0.030869 0.138062 0.144629 0.154658
H8    H     H_    0.540855 0.144160 0.951782 0.242949
H9    H     H_    0.627651 0.136096 0.018635 0.132613
H10   H     H_    0.625447 0.097935 0.052639 0.167518
H11   H     H_    0.617104 0.138229 0.075472 0.165834
H12   H     H_    0.549801 0.856276 0.963571 0.258529
H13   H     H_    0.552526 0.034503 0.899592 0.131604
H14   H     H_    0.504531 0.861291 0.847367 0.133106
H15   H     H_    0.474757 0.898929 0.843169 0.173264
H16   H     H_    0.459643 0.858503 0.856906 0.134231
H17   H     H_    0.459141 0.144161 0.048214 0.243715
H18   H     H_    0.372344 0.136098 0.981360 0.133094
H19   H     H_    0.374546 0.097935 0.947356 0.167321
H20   H     H_    0.382892 0.138228 0.924524 0.165653
H21   H     H_    0.450201 0.856273 0.036432 0.258302
H22   H     H_    0.495468 0.861287 0.152635 0.131493
H23   H     H_    0.525243 0.898927 0.156838 0.173358
H24   H     H_    0.517438 0.072274 0.880112 0.173888
H25   H     H_    0.540357 0.858502 0.143099 0.134243
H26   H     H_    0.006489 0.644547 0.912008 0.235710
H27   H     H_    0.084264 0.637297 0.941447 0.130415
H28   H     H_    0.095831 0.599673 0.987404 0.171677
H29   H     H_    0.096324 0.640380 0.018369 0.161345
H30   H     H_    0.030850 0.357805 0.119195 0.248695
H31   H     H_    0.123215 0.384151 0.214642 0.134642
H32   H     H_    0.117837 0.383557 0.142653 0.147982
H33   H     H_    0.111355 0.345145 0.171793 0.171490
H34   H     H_    0.993490 0.644551 0.087974 0.236072
H35   H     H_    0.512692 0.970423 0.917882 0.243726
H36   H     H_    0.915703 0.637303 0.058502 0.131001
H37   H     H_    0.904143 0.599677 0.012555 0.171411
H38   H     H_    0.903660 0.640381 0.981594 0.161317
H39   H     H_    0.969151 0.357805 0.880806 0.249443
H40   H     H_    0.876785 0.384148 0.785360 0.134876
H41   H     H_    0.882163 0.383551 0.857350 0.147764
H42   H     H_    0.888646 0.345141 0.828206 0.171582
H43   H     H_    0.654285 0.697107 0.903519 0.245084
H44   H     H_    0.639283 0.687261 0.803178 0.132065
H45   H     H_    0.703997 0.678333 0.874661 0.164889
H46   H     H_    0.599692 0.967785 0.031036 0.125394
H47   H     H_    0.686191 0.717878 0.829919 0.176411
H48   H     H_    0.357513 0.288884 0.120052 0.243621
H49   H     H_    0.373381 0.285808 0.222122 0.130149
H50   H     H_    0.319256 0.259525 0.180908 0.173010
H51   H     H_    0.312034 0.303427 0.157414 0.165373
H52   H     H_    0.361694 0.720073 0.129390 0.252537
H53   H     H_    0.351494 0.675391 0.179460 0.131885
H54   H     H_    0.284828 0.679229 0.113723 0.186259
H55   H     H_    0.320894 0.712810 0.174530 0.157647
H56   H     H_    0.632160 0.258559 0.858445 0.250673
H57   H     H_    0.594502 0.965097 0.959354 0.130959
H58   H     H_    0.629969 0.293428 0.783482 0.130428
H59   H     H_    0.671734 0.258499 0.810912 0.154072
H60   H     H_    0.696259 0.299752 0.848371 0.186694
H61   H     H_    0.142626 0.210880 0.880237 0.242089
H62   H     H_    0.126650 0.213946 0.778104 0.127200
H63   H     H_    0.188040 0.196370 0.842759 0.164958
H64   H     H_    0.180722 0.240270 0.819202 0.175667
H65   H     H_    0.845884 0.802708 0.096715 0.243568
H66   H     H_    0.860878 0.812564 0.197049 0.131443
H67   H     H_    0.813945 0.781966 0.170290 0.176783
H68   H     H_    0.603956 0.927352 0.003817 0.179636
H69   H     H_    0.796173 0.821514 0.125564 0.165956
H70   H     H_    0.867728 0.241182 0.141263 0.249413
H71   H     H_    0.869986 0.206305 0.216267 0.127438
H72   H     H_    0.803687 0.199989 0.151442 0.186603
H73   H     H_    0.828242 0.241237 0.188918 0.156482
H74   H     H_    0.138169 0.779759 0.870416 0.252001
H75   H     H_    0.148351 0.824441 0.820324 0.131119
H76   H     H_    0.178944 0.787021 0.825241 0.158115
H77   H     H_    0.215018 0.820603 0.886044 0.187688
H78   H     H_    0.303287 0.179614 0.008793 0.254308
H79   H     H_    0.428542 0.029287 0.997483 0.244170
H80   H     H_    0.243584 0.134767 0.960133 0.132976
H81   H     H_    0.196901 0.164314 0.937863 0.151059
H82   H     H_    0.249585 0.154881 0.025477 0.159061
H83   H     H_    0.679503 0.816919 0.956374 0.257170
H84   H     H_    0.727395 0.866390 0.981165 0.135732
H85   H     H_    0.727411 0.838679 0.927984 0.158739
H86   H     H_    0.781032 0.840509 0.017527 0.149468
H87   H     H_    0.695464 0.179036 0.986045 0.247986
H88   H     H_    0.756224 0.134700 0.037887 0.128543
H89   H     H_    0.803494 0.164906 0.064338 0.185690
H90   H     H_    0.505959 0.031885 0.119952 0.125827
H91   H     H_    0.753506 0.155541 0.975778 0.155256
H92   H     H_    0.325503 0.815340 0.056381 0.250536
H93   H     H_    0.279258 0.865425 0.033825 0.131299
H94   H     H_    0.274167 0.836049 0.080220 0.154757
H95   H     H_    0.223506 0.840623 0.990161 0.184282
H96   H     H_    0.820670 0.682949 0.043764 0.253695
H97   H     H_    0.772863 0.633449 0.019056 0.134378
H98   H     H_    0.719201 0.659295 0.982744 0.152704
H99   H     H_    0.772857 0.661135 0.072277 0.159485
H100  H     H_    0.196925 0.320231 0.991354 0.257615
H101  H     H_    0.447464 0.034505 0.100404 0.131798
H102  H     H_    0.256755 0.365017 0.040078 0.135542
H103  H     H_    0.250701 0.344856 0.974729 0.159555
H104  H     H_    0.303358 0.335402 0.062333 0.149955
H105  H     H_    0.174324 0.684528 0.943488 0.247440
H106  H     H_    0.220487 0.634415 0.965961 0.129968
H107  H     H_    0.276264 0.659185 0.009565 0.187300
H108  H     H_    0.225561 0.663764 0.919513 0.155523
H109  H     H_    0.804301 0.320794 0.013798 0.251053
H110  H     H_    0.743407 0.365060 0.961873 0.130978
H111  H     H_    0.746134 0.344154 0.023937 0.155475
H112  H     H_    0.746591 0.259032 0.610874 0.116806
H113  H     H_    0.482555 0.072276 0.119885 0.174414
H114  H     H_    0.696210 0.334780 0.935375 0.184819
H115  H     H_    0.159496 0.827581 0.382778 0.241664
H116  H     H_    0.227439 0.850630 0.401118 0.124182
H117  H     H_    0.258545 0.810322 0.426949 0.151242
H118  H     H_    0.255730 0.833438 0.482134 0.142130
H119  H     H_    0.900507 0.246316 0.619550 0.246523
H120  H     H_    0.882095 0.192035 0.578891 0.117603
H121  H     H_    0.827557 0.213547 0.506614 0.152692
H122  H     H_    0.825406 0.191922 0.563820 0.144130
H123  H     H_    0.840507 0.827581 0.617227 0.241418
H124  H     H_    0.487313 0.970420 0.082132 0.243716
H125  H     H_    0.772564 0.850629 0.598886 0.124188
H126  H     H_    0.741457 0.810320 0.573053 0.151139
H127  H     H_    0.744273 0.833436 0.517870 0.141943
H128  H     H_    0.099488 0.246359 0.380445 0.245625
H129  H     H_    0.117868 0.192079 0.421105 0.117566
H130  H     H_    0.172419 0.213585 0.493383 0.152635
H131  H     H_    0.174557 0.191945 0.436176 0.144232
H132  H     H_    0.657449 0.327761 0.381762 0.240144
H133  H     H_    0.724610 0.351197 0.398404 0.121977
H134  H     H_    0.756808 0.311237 0.426135 0.154086
H135  H     H_    0.400313 0.967782 0.968978 0.125417
H136  H     H_    0.753375 0.334922 0.480198 0.152945
H137  H     H_    0.334566 0.669893 0.618946 0.242656
H138  H     H_    0.263172 0.650859 0.595246 0.122472
H139  H     H_    0.237676 0.669068 0.516141 0.145948
H140  H     H_    0.236876 0.692667 0.572825 0.151242
H141  H     H_    0.342542 0.327764 0.618241 0.240125
H142  H     H_    0.275380 0.351192 0.601605 0.121997
H143  H     H_    0.243183 0.311230 0.573867 0.154060
H144  H     H_    0.246617 0.334921 0.519809 0.152757
H145  H     H_    0.665434 0.669893 0.381051 0.242458
H146  H     H_    0.405503 0.965093 0.040660 0.130996
H147  H     H_    0.736826 0.650860 0.404746 0.122468
H148  H     H_    0.762324 0.669069 0.483854 0.145748
H149  H     H_    0.763124 0.692669 0.427171 0.151145
H150  H     H_    0.107942 0.828395 0.273820 0.243879
H151  H     H_    0.120912 0.849938 0.204164 0.138436
H152  H     H_    0.145030 0.809900 0.205929 0.144298
H153  H     H_    0.180747 0.835684 0.280983 0.134709
H154  H     H_    0.952834 0.255101 0.729778 0.237675
H155  H     H_    0.995275 0.202892 0.786250 0.144599
H156  H     H_    0.939182 0.194386 0.700730 0.127576
H157  H     H_    0.396047 0.927349 0.996193 0.179711
H158  H     H_    0.940298 0.188154 0.768490 0.159689
H159  H     H_    0.892058 0.828396 0.726184 0.243686
H160  H     H_    0.879088 0.849937 0.795842 0.138429
H161  H     H_    0.854968 0.809898 0.794073 0.144233
H162  H     H_    0.819252 0.835683 0.719021 0.134741
H163  H     H_    0.047167 0.255143 0.270217 0.234763
H164  H     H_    0.004696 0.202940 0.213746 0.145748
H165  H     H_    0.060784 0.194430 0.299266 0.127893
H166  H     H_    0.059665 0.188180 0.231507 0.160382
H167  H     H_    0.607614 0.328857 0.272922 0.242166
H168  H     H_    0.043640 0.529810 0.955319 0.248218
H169  H     H_    0.620581 0.349676 0.202823 0.136909
H170  H     H_    0.644721 0.309475 0.205406 0.145189
H171  H     H_    0.680379 0.335593 0.279976 0.132807
H172  H     H_    0.389984 0.671250 0.727989 0.243365
H173  H     H_    0.373291 0.650049 0.793510 0.130959
H174  H     H_    0.314711 0.665417 0.716445 0.137740
H175  H     H_    0.350431 0.690636 0.792265 0.145038
H176  H     H_    0.392374 0.328860 0.727081 0.242303
H177  H     H_    0.379407 0.349673 0.797183 0.136926
H178  H     H_    0.355273 0.309468 0.794600 0.145101
H179  H     H_    0.952537 0.531069 0.853266 0.144751
H180  H     H_    0.319610 0.335586 0.720031 0.132829
H181  H     H_    0.610017 0.671250 0.272008 0.243177
H182  H     H_    0.626707 0.650050 0.206483 0.130982
H183  H     H_    0.685288 0.665418 0.283548 0.137762
H184  H     H_    0.649567 0.690638 0.207729 0.144969
H185  H     H_    0.169785 0.672339 0.283806 0.243368
H186  H     H_    0.087595 0.649912 0.207987 0.140836
H187  H     H_    0.062683 0.690188 0.203296 0.147593
H188  H     H_    0.100052 0.666231 0.280831 0.126598
H189  H     H_    0.772724 0.274461 0.717719 0.241816
H190  H     H_    0.993723 0.535009 0.837499 0.136565
H191  H     H_    0.787698 0.234467 0.795442 0.146943
H192  H     H_    0.833718 0.213995 0.798742 0.145469
H193  H     H_    0.768345 0.212485 0.722271 0.125862
H194  H     H_    0.830214 0.672337 0.716189 0.243358
H195  H     H_    0.912403 0.649912 0.792005 0.141013
H196  H     H_    0.937315 0.690190 0.796701 0.146459
H197  H     H_    0.899947 0.666233 0.719164 0.125794
H198  H     H_    0.227288 0.274430 0.282281 0.241826
H199  H     H_    0.212293 0.234429 0.204554 0.146409
H200  H     H_    0.166260 0.213973 0.201250 0.145328
H201  H     H_    0.964433 0.572007 0.836477 0.166127
H202  H     H_    0.231632 0.212452 0.277722 0.126015
H203  H     H_    0.670467 0.172741 0.284914 0.240692
H204  H     H_    0.588306 0.150078 0.207992 0.138977
H205  H     H_    0.563078 0.190179 0.203388 0.149209
H206  H     H_    0.600304 0.166072 0.280719 0.125977
H207  H     H_    0.405030 0.813892 0.780804 0.245318
H208  H     H_    0.356963 0.863473 0.745101 0.138414
H209  H     H_    0.301078 0.840708 0.679313 0.157148
H210  H     H_    0.348012 0.849144 0.673965 0.125185
H211  H     H_    0.329543 0.172735 0.715082 0.240713
H212  H     H_    0.051327 0.437659 0.156585 0.274389
H213  H     H_    0.411707 0.150081 0.792005 0.139045
H214  H     H_    0.436930 0.190186 0.796612 0.147887
H215  H     H_    0.399707 0.166079 0.719280 0.125011
H216  H     H_    0.594973 0.813892 0.219202 0.244857
H217  H     H_    0.643045 0.863472 0.254902 0.138434
H218  H     H_    0.698928 0.840707 0.320687 0.157208
H219  H     H_    0.651998 0.849145 0.326040 0.124764
H220  H     H_    0.794185 0.697620 0.609717 0.115368
H221  H     H_    0.113262 0.478992 0.196492 0.127281
H222  H     H_    0.096113 0.479855 0.116278 0.153712
H223  H     H_    0.126240 0.443074 0.169295 0.137511
H224  H     H_    0.956343 0.529813 0.044670 0.248122
H225  H     H_    0.047443 0.531074 0.146729 0.144684
H226  H     H_    0.006254 0.535015 0.162489 0.136546
H227  H     H_    0.035547 0.572013 0.163513 0.166309
H228  H     H_    0.948668 0.437659 0.843417 0.274642
H229  H     H_    0.886729 0.478987 0.803510 0.127345
H230  H     H_    0.903880 0.479850 0.883725 0.153644
H231  H     H_    0.253413 0.259010 0.389125 0.116705
H232  H     H_    0.873755 0.443067 0.830710 0.137492
H233  H     H_    0.562877 0.470342 0.985619 0.243396
H234  H     H_    0.613261 0.470162 0.109613 0.127708
H235  H     H_    0.648638 0.466162 0.084579 0.133508
H236  H     H_    0.635754 0.429286 0.109783 0.173583
H237  H     H_    0.588402 0.529897 0.044866 0.243975
H238  H     H_    0.531796 0.529116 0.919595 0.126191
H239  H     H_    0.597525 0.533401 0.965304 0.132815
H240  H     H_    0.557930 0.570026 0.928286 0.171830
H241  H     H_    0.437117 0.470337 0.014386 0.243343
H242  H     H_    0.705330 0.198151 0.390893 0.108126
H243  H     H_    0.386728 0.470154 0.890392 0.127740
H244  H     H_    0.351355 0.466152 0.915431 0.133564
H245  H     H_    0.364240 0.429277 0.890226 0.173591
H246  H     H_    0.411588 0.529897 0.955126 0.243946
H247  H     H_    0.468193 0.529117 0.080396 0.125903
H248  H     H_    0.402464 0.533403 0.034687 0.133195
H249  H     H_    0.442062 0.570027 0.071707 0.172916
H250  H     H_    0.085664 0.970383 0.036870 0.242706
H251  H     H_    0.103069 0.968214 0.144118 0.130461
H252  H     H_    0.157119 0.964772 0.153019 0.128280
H253  H     H_    0.296972 0.802146 0.607610 0.119495
H254  H     H_    0.131031 0.927444 0.157199 0.171955
H255  H     H_    0.937443 0.029229 0.872394 0.242542
H256  H     H_    0.885751 0.030967 0.903307 0.131404
H257  H     H_    0.851472 0.034423 0.814614 0.127583
H258  H     H_    0.864367 0.071706 0.862161 0.175230
H259  H     H_    0.914340 0.970380 0.963151 0.242663
H260  H     H_    0.896928 0.968210 0.855898 0.130468
H261  H     H_    0.842881 0.964767 0.847004 0.128281
H262  H     H_    0.868966 0.927440 0.842820 0.171977
H263  H     H_    0.062559 0.029235 0.127619 0.242606
H264  H     H_    0.294676 0.198148 0.609104 0.108089
H265  H     H_    0.114251 0.030970 0.096707 0.131292
H266  H     H_    0.148530 0.034430 0.185399 0.127671
H267  H     H_    0.135636 0.071711 0.137849 0.175044
H268  H     H_    0.586844 0.356138 0.040267 0.246658
H269  H     H_    0.600720 0.363894 0.966479 0.134334
H270  H     H_    0.564473 0.401996 0.934593 0.165760
H271  H     H_    0.533932 0.361696 0.914631 0.164775
H272  H     H_    0.563387 0.638653 0.978332 0.270284
H273  H     H_    0.647277 0.641667 0.084875 0.138265
H274  H     H_    0.632099 0.611059 0.118335 0.157768
H275  H     H_    0.703032 0.802147 0.392393 0.119482
H276  H     H_    0.605187 0.652983 0.096508 0.126754
H277  H     H_    0.413154 0.356133 0.959734 0.246423
H278  H     H_    0.399282 0.363880 0.033528 0.130388
H279  H     H_    0.435522 0.401987 0.065411 0.165785
H280  H     H_    0.466070 0.361690 0.085373 0.164090
H281  H     H_    0.436606 0.638655 0.021657 0.271693
H282  H     H_    0.352716 0.641666 0.915112 0.139932
H283  H     H_    0.367896 0.611056 0.881655 0.157323
H284  H     H_    0.394809 0.652981 0.903482 0.126517
H285  H     H_    0.094165 0.855447 0.081355 0.237012
H286  H     H_    0.571450 0.029286 0.002513 0.244190
H287  H     H_    0.137847 0.862943 0.044804 0.132472
H288  H     H_    0.102903 0.900696 0.000757 0.170051
H289  H     H_    0.072181 0.860071 0.970906 0.162279
H290  H     H_    0.914563 0.144050 0.882346 0.243347
H291  H     H_    0.902582 0.135889 0.785002 0.121345
H292  H     H_    0.938693 0.097748 0.819726 0.169124
H293  H     H_    0.969132 0.138055 0.855371 0.153713
H294  H     H_    0.905835 0.855444 0.918661 0.236974
H295  H     H_    0.862169 0.862935 0.955237 0.130184
H296  H     H_    0.897114 0.900689 0.999281 0.169661
N1    N     N_2   0.554798 0.051274 0.975681 -0.497960
N2    N     N_2   0.575471 0.551226 0.015527 -0.486160
N3    N     N_2   0.425161 0.448786 0.985843 -0.498664
N4    N     N_2   0.424519 0.551227 0.984465 -0.486149
N5    N     N_2   0.089799 0.948385 0.060559 -0.494189
N6    N     N_2   0.925670 0.051131 0.878684 -0.496949
N7    N     N_2   0.910203 0.948382 0.939461 -0.494223
N8    N     N_2   0.074332 0.051137 0.121327 -0.496862
N9    N     N_2   0.575193 0.378490 0.014088 -0.492486
N10   N     N_2   0.575527 0.620995 0.014621 -0.488806
N11   N     N_2   0.424804 0.378484 0.985915 -0.491811
N12   N     N_2   0.531767 0.948437 0.942380 -0.493817
N13   N     N_2   0.424466 0.620995 0.985369 -0.487771
N14   N     N_2   0.089499 0.877903 0.058464 -0.499458
N15   N     N_2   0.926192 0.121521 0.877741 -0.490538
N16   N     N_2   0.910504 0.877900 0.941556 -0.498395
N17   N     N_2   0.073810 0.121527 0.122263 -0.490843
N18   N     N_2   0.556007 0.121660 0.977181 -0.495974
N19   N     N_2   0.529912 0.878134 0.939905 -0.495020
N20   N     N_2   0.443988 0.121661 0.022815 -0.495397
N21   N     N_2   0.470090 0.878131 0.060100 -0.494970
N22   N     N_2   0.025179 0.622148 0.934184 -0.500112
N23   N     N_2   0.445194 0.051275 0.024315 -0.497994
N24   N     N_2   0.050070 0.378170 0.122408 -0.520099
N25   N     N_2   0.974799 0.622151 0.065794 -0.499747
N26   N     N_2   0.949931 0.378169 0.877594 -0.519690
N27   N     N_2   0.669333 0.713312 0.891174 -0.503619
N28   N     N_2   0.338215 0.271650 0.123879 -0.504269
N29   N     N_2   0.327262 0.708794 0.102265 -0.515594
N30   N     N_2   0.662530 0.273423 0.877367 -0.516047
N31   N     N_2   0.161890 0.228123 0.876362 -0.505495
N32   N     N_2   0.830813 0.786516 0.109045 -0.504217
N33   N     N_2   0.837355 0.226328 0.122370 -0.517264
N34   N     N_2   0.468237 0.948434 0.057632 -0.493898
N35   N     N_2   0.172598 0.791040 0.897528 -0.517237
N36   N     N_2   0.265829 0.185253 0.977883 -0.515891
N37   N     N_2   0.717876 0.815310 0.989196 -0.513274
N38   N     N_2   0.732924 0.184982 0.019152 -0.517174
N39   N     N_2   0.287028 0.814699 0.021133 -0.514511
N40   N     N_2   0.782298 0.684541 0.011000 -0.516467
N41   N     N_2   0.234373 0.314556 0.022313 -0.513894
N42   N     N_2   0.212801 0.685154 0.978678 -0.517945
N43   N     N_2   0.766856 0.314807 0.980627 -0.514909
N44   N     N_2   0.188045 0.811218 0.400039 -0.516183
N45   N     N_2   0.023436 0.551662 0.932276 -0.492942
N46   N     N_2   0.865509 0.238316 0.598504 -0.514326
N47   N     N_2   0.811957 0.811218 0.599965 -0.516273
N48   N     N_2   0.134481 0.238349 0.401493 -0.514524
N49   N     N_2   0.686304 0.311664 0.399209 -0.515612
N50   N     N_2   0.307508 0.687804 0.600703 -0.515715
N51   N     N_2   0.313688 0.311664 0.600795 -0.515644
N52   N     N_2   0.692493 0.687804 0.399293 -0.515803
N53   N     N_2   0.117825 0.811692 0.255152 -0.488091
N54   N     N_2   0.938590 0.238826 0.743208 -0.495866
N55   N     N_2   0.882174 0.811692 0.744852 -0.488209
N56   N     N_2   0.050883 0.449534 0.122027 -0.506959
N57   N     N_2   0.061402 0.238858 0.256788 -0.497631
N58   N     N_2   0.617384 0.311909 0.254441 -0.489337
N59   N     N_2   0.379392 0.688180 0.745459 -0.486127
N60   N     N_2   0.382608 0.311910 0.745562 -0.489214
N61   N     N_2   0.620608 0.688180 0.254537 -0.486188
N62   N     N_2   0.140209 0.688952 0.258567 -0.484519
N63   N     N_2   0.803751 0.259194 0.742789 -0.488679
N64   N     N_2   0.859789 0.688952 0.741429 -0.484187
N65   N     N_2   0.196252 0.259171 0.257210 -0.488584
N66   N     N_2   0.640709 0.189216 0.259220 -0.486338
N67   N     N_2   0.976547 0.551665 0.067713 -0.492938
N68   N     N_2   0.366808 0.811645 0.743220 -0.486743
N69   N     N_2   0.359298 0.189214 0.740777 -0.485906
N70   N     N_2   0.633195 0.811645 0.256783 -0.486802
N71   N     N_2   0.949111 0.449533 0.877976 -0.506837
N72   N     N_2   0.574833 0.448791 0.014164 -0.498596
O1    O     O_3   0.500000 0.749970 0.000000 -0.436292
O2    O     O_R   0.101800 0.730420 0.039220 -0.539406
O3    O     O_R   0.101800 0.269580 0.039220 -0.533867
O4    O     O_R   0.898200 0.730420 0.960780 -0.539592
O5    O     O_R   0.553280 0.730340 0.149660 -0.514856
O6    O     O_R   0.446720 0.269660 0.850340 -0.520216
O7    O     O_R   0.446720 0.730340 0.850340 -0.513938
O8    O     O_R   0.553280 0.269660 0.149660 -0.519667
O9    O     O_R   0.053280 0.230340 0.149660 -0.530080
O10   O     O_R   0.946720 0.769660 0.850340 -0.519863
O11   O     O_R   0.946720 0.230340 0.850340 -0.529717
O12   O     O_3   0.500000 0.250030 0.000000 -0.435238
O13   O     O_R   0.053280 0.769660 0.149660 -0.518980
O14   O     O_R   0.498080 0.675140 0.039250 -0.546147
O15   O     O_R   0.501920 0.324860 0.960750 -0.542298
O16   O     O_R   0.501920 0.675140 0.960750 -0.546608
O17   O     O_R   0.498080 0.324860 0.039250 -0.542602
O18   O     O_R   0.998080 0.175140 0.039250 -0.548271
O19   O     O_R   0.001920 0.824860 0.960750 -0.541474
O20   O     O_R   0.001920 0.175140 0.960750 -0.549106
O21   O     O_R   0.998080 0.824860 0.039250 -0.541809
O22   O     O_R   0.458830 0.824790 0.960760 -0.545912
O23   O     O_3   0.000000 0.249970 0.000000 -0.433704
O24   O     O_R   0.541170 0.175210 0.039240 -0.543008
O25   O     O_R   0.541170 0.824790 0.039240 -0.545835
O26   O     O_R   0.458830 0.175210 0.960760 -0.542986
O27   O     O_R   0.958830 0.324790 0.960760 -0.541403
O28   O     O_R   0.041170 0.675210 0.039240 -0.542278
O29   O     O_R   0.041170 0.324790 0.039240 -0.541097
O30   O     O_R   0.958830 0.675210 0.960760 -0.542202
O31   O     O_R   0.596370 0.769570 0.149640 -0.528192
O32   O     O_R   0.403630 0.230430 0.850360 -0.515640
O33   O     O_R   0.403630 0.769570 0.850360 -0.528252
O34   O     O_3   0.000000 0.750030 0.000000 -0.437927
O35   O     O_R   0.596370 0.230430 0.149640 -0.515619
O36   O     O_R   0.096370 0.269570 0.149640 -0.522124
O37   O     O_R   0.903630 0.730430 0.850360 -0.514665
O38   O     O_R   0.903630 0.269570 0.850360 -0.521871
O39   O     O_R   0.096370 0.730430 0.149640 -0.514721
O40   O     O_R   0.437440 0.730340 0.039250 -0.543418
O41   O     O_R   0.562560 0.269660 0.960750 -0.543338
O42   O     O_R   0.562560 0.730340 0.960750 -0.543308
O43   O     O_R   0.437440 0.269660 0.039250 -0.544224
O44   O     O_R   0.937440 0.230340 0.039250 -0.537789
O45   O     O_R   0.398200 0.769580 0.960780 -0.536333
O46   O     O_R   0.062560 0.769660 0.960750 -0.543481
O47   O     O_R   0.062560 0.230340 0.960750 -0.539106
O48   O     O_R   0.937440 0.769660 0.039250 -0.543239
O49   O     O_R   0.601800 0.230420 0.039220 -0.541314
O50   O     O_R   0.601800 0.769580 0.039220 -0.536462
O51   O     O_R   0.398200 0.230420 0.960780 -0.540986
O52   O     O_R   0.898200 0.269580 0.960780 -0.534439
Zn1   Zn    Zn3+2 0.558810 0.777990 0.056050 0.931341
Zn2   Zn    Zn3+2 0.502750 0.278070 0.943930 0.923117
Zn3   Zn    Zn3+2 0.502750 0.721930 0.943930 0.930571
Zn4   Zn    Zn3+2 0.497250 0.278070 0.056070 0.923209
Zn5   Zn    Zn3+2 0.997250 0.221930 0.056070 0.917002
Zn6   Zn    Zn3+2 0.002750 0.778070 0.943930 0.926301
Zn7   Zn    Zn3+2 0.002750 0.221930 0.943930 0.916517
Zn8   Zn    Zn3+2 0.997250 0.778070 0.056070 0.927122
Zn9   Zn    Zn3+2 0.441190 0.222010 0.943950 0.925575
Zn10  Zn    Zn3+2 0.441190 0.777990 0.943950 0.931467
Zn11  Zn    Zn3+2 0.558810 0.222010 0.056050 0.925449
Zn12  Zn    Zn3+2 0.058810 0.277990 0.056050 0.930779
Zn13  Zn    Zn3+2 0.941190 0.722010 0.943950 0.930045
Zn14  Zn    Zn3+2 0.941190 0.277990 0.943950 0.930574
Zn15  Zn    Zn3+2 0.058810 0.722010 0.056050 0.930157
Zn16  Zn    Zn3+2 0.497250 0.721930 0.056070 0.929888

loop_
_geom_bond_atom_site_label_1
_geom_bond_atom_site_label_2
_ccdc_geom_bond_type
C144  N39   S    
C62   C83   S    
H39   N26   S    
C120  H291  S    
C150  H116  S    
O34   Zn8   S    
C154  H133  S    
C73   C82   A    
C127  H22   S    
C74   C83   A    
H285  N14   S    
O36   Zn12  S    
C175  H219  S    
C127  H25   S    
C223  C232  A    
C117  H280  S    
C202  O44   A    
C211  C220  A    
H189  N63   S    
C110  N6    S    
C101  N29   S    
C219  N53   S    
O45   Zn10  S    
C135  C184  S    
C115  H270  S    
C218  N52   S    
C240  N65   S    
C181  C207  T    
C147  H103  S    
C102  H223  S    
C187  C196  S    
C111  H261  S    
C171  H199  S    
C172  H205  S    
C18   C21   T    
C143  H88   S    
C193  C201  S    
C134  H53   S    
C148  H108  S    
C89   C94   S    
C63   O29   A    
C134  N29   S    
C80   C86   A    
C214  C222  A    
C43   C58   S    
C138  H67   S    
C128  H27   S    
C68   C187  S    
C212  N47   S    
C74   N18   S    
C105  N72   S    
C147  N41   S    
C223  N58   S    
C4    C12   A    
C32   N7    S    
O6    Zn2   S    
C123  H10   S    
C217  C226  A    
C38   N13   S    
C109  H252  S    
C64   O28   A    
C191  O43   A    
C176  C203  T    
C197  C206  S    
H154  N54   S    
C130  N25   S    
C133  H50   S    
O30   Zn13  S    
O38   Zn14  S    
C76   C83   A    
H65   N32   S    
C190  C199  S    
C65   C87   A    
C166  H184  S    
C145  H99   S    
C96   H2    S    
C11   C20   S    
C164  H174  S    
C122  N17   S    
C232  C241  A    
C160  H156  S    
C127  H23   S    
C146  C187  S    
C162  H164  S    
C149  H111  S    
C118  H282  S    
C24   C195  S    
C168  C180  S    
O9    Zn5   S    
C124  C197  S    
C110  H257  S    
C106  H238  S    
H172  N59   S    
C130  H36   S    
C152  H125  S    
C136  N30   S    
O3    Zn12  S    
C234  C247  S    
C97   N12   S    
C131  H40   S    
C1    O45   A    
C126  H19   S    
C177  C204  T    
H83   N37   S    
C162  H165  S    
C191  O51   A    
H228  N71   S    
C140  H76   S    
C37   N11   S    
C69   C88   A    
C100  N45   S    
C143  H89   S    
C155  H138  S    
C127  N21   S    
C58   O17   A    
C10   C212  A    
O22   Zn10  S    
C131  H42   S    
C111  H260  S    
C90   N28   S    
O34   Zn6   S    
C130  H37   S    
C149  N43   S    
C58   O15   A    
O23   Zn14  S    
C36   C44   A    
C161  H162  S    
C64   C85   S    
H259  N7    S    
C137  H62   S    
C107  H245  S    
C112  C178  S    
C169  N63   S    
C16   C25   S    
C24   F4    S    
O26   Zn9   S    
C116  N10   S    
O51   Zn9   S    
C216  N50   S    
C216  C225  A    
C215  N49   S    
C61   C84   S    
C134  H55   S    
C102  H221  S    
C156  H142  S    
H224  N67   S    
C173  H209  S    
O34   Zn15  S    
H26   N22   S    
H145  N52   S    
C200  C209  S    
C192  N42   S    
C169  H191  S    
C2    C193  S    
H167  N58   S    
C224  O47   A    
C108  H248  S    
O1    Zn16  S    
C5    H253  S    
H132  N49   S    
H17   N20   S    
C217  N51   S    
C49   C53   S    
C159  N53   S    
C129  H33   S    
C114  H267  S    
C182  C208  T    
C192  C200  S    
C124  C246  S    
C104  H229  S    
C118  N13   S    
H198  N65   S    
C3    C11   A    
C65   C74   A    
C60   O19   A    
C47   C59   S    
C119  H287  S    
H105  N42   S    
C48   C52   S    
C173  H208  S    
C210  N44   S    
O33   Zn10  S    
C151  H121  S    
H281  N13   S    
C79   C189  S    
C247  O32   A    
C131  N26   S    
C41   C45   A    
C238  N63   S    
C132  N27   S    
C249  O35   A    
H255  N6    S    
C253  O13   A    
C165  H177  S    
C184  C193  S    
C166  H182  S    
O50   Zn1   S    
C215  C223  A    
C183  C213  S    
C148  H107  S    
C35   C184  S    
O21   Zn8   S    
C120  H293  S    
C69   C77   A    
C159  H152  S    
C220  N54   S    
C121  H3    S    
C71   C91   A    
C158  H148  S    
H207  N68   S    
C172  N66   S    
C29   C49   A    
C112  O41   A    
C170  H195  S    
C220  C229  A    
C154  H136  S    
C33   C42   A    
C248  O33   A    
O37   Zn13  S    
O12   Zn11  S    
C66   C88   A    
O35   Zn11  S    
C75   C84   A    
H8    N18   S    
C125  H14   S    
C129  H31   S    
C105  H234  S    
O20   Zn7   S    
C7    H275  S    
C165  N60   S    
C117  N11   S    
C115  H271  S    
C138  N32   S    
H34   N25   S    
H123  N47   S    
C78   N22   S    
C122  H5    S    
C77   N21   S    
C174  N69   S    
O52   Zn14  S    
C151  H120  S    
C172  H204  S    
C13   C196  S    
C221  C230  A    
C81   N25   S    
C32   C41   A    
C16   C218  A    
C132  H45   S    
C51   C55   S    
H128  N48   S    
C137  H64   S    
C107  H243  S    
C3    C240  A    
C39   C45   A    
H181  N61   S    
C185  N36   S    
C97   H46   S    
C124  N31   S    
C230  C239  A    
C9    C255  A    
C214  N48   S    
C8    C210  A    
O43   Zn4   S    
C152  H127  S    
C123  H11   S    
C156  H144  S    
C79   N27   S    
C144  H94   S    
H141  N51   S    
O34   Zn13  S    
O1    Zn1   S    
C169  H193  S    
C245  O31   A    
C241  N66   S    
C109  N5    S    
C149  H114  S    
O11   Zn7   S    
C24   C157  S    
C176  C191  S    
O42   Zn3   S    
C11   C214  A    
C77   C84   A    
C106  H240  S    
C162  N57   S    
C99   N34   S    
C13   C190  S    
C114  H265  S    
H294  N16   S    
C231  C240  A    
C80   N24   S    
H48   N28   S    
C60   O21   A    
C167  H188  S    
C142  H85   S    
C174  H214  S    
C20   C23   T    
C113  N30   S    
C133  N28   S    
C153  H130  S    
C14   C216  A    
C24   C192  S    
O12   Zn2   S    
C237  N62   S    
C114  N8    S    
C78   C85   A    
O25   Zn1   S    
C62   O26   A    
C113  C196  S    
C70   C89   A    
C230  C251  S    
C247  O6    A    
C68   F8    S    
H237  N2    S    
C153  N48   S    
C155  H139  S    
C180  O50   A    
C171  H202  S    
C39   N14   S    
C54   C55   T    
C120  H292  S    
C150  H117  S    
C210  C219  A    
C198  C207  S    
C154  H134  S    
C34   C43   A    
C140  H75   S    
C31   C51   A    
C135  N32   S    
C98   H90   S    
C56   O14   A    
C155  N50   S    
C149  H110  S    
C125  H16   S    
C188  C246  S    
C117  H279  S    
C57   C101  S    
C105  H236  S    
C2    C135  S    
C226  C234  A    
C238  C255  A    
C157  C200  S    
C107  N3    S    
C14   C22   S    
C13   F3    S    
C246  F1    S    
C139  N33   S    
C28   C37   A    
C119  H289  S    
C172  H206  S    
H12   N19   S    
C35   C79   S    
C199  C208  S    
C30   C39   A    
C157  N35   S    
C132  H47   S    
C30   C50   A    
C91   C95   S    
C228  C253  S    
C158  N52   S    
C9    C18   S    
C128  H28   S    
C146  N33   S    
C170  N64   S    
C61   O25   A    
C232  C249  S    
C41   N16   S    
C147  H104  S    
C29   N4    S    
C167  N62   S    
C81   C85   A    
C123  H9    S    
C109  H251  S    
O47   Zn7   S    
C96   N1    S    
C133  H49   S    
C185  C194  S    
C163  H170  S    
C45   C60   S    
H286  N1    S    
C145  H98   S    
C52   C53   T    
C164  N59   S    
C148  H106  S    
C227  C236  A    
C72   N67   S    
C50   C54   S    
C65   N1    S    
H35   N12   S    
O5    Zn16  S    
C10   C256  A    
C96   H13   S    
C26   N72   S    
H109  N43   S    
C103  H226  S    
C36   N10   S    
C167  H186  S    
C128  N22   S    
C118  H283  S    
H61   N31   S    
C129  N24   S    
C139  H72   S    
H100  N41   S    
C144  H93   S    
C110  H258  S    
H124  N34   S    
C31   C40   A    
C136  H59   S    
O12   Zn4   S    
C69   N34   S    
O10   Zn6   S    
C148  N42   S    
C28   C48   A    
C126  H20   S    
C7    C244  A    
C34   N9    S    
H92   N39   S    
O46   Zn6   S    
C189  N40   S    
C66   N12   S    
C5    C242  A    
C15   C217  A    
C72   C81   A    
C119  N14   S    
C26   C48   A    
C68   C113  S    
C104  N71   S    
C190  N43   S    
C131  H41   S    
O24   Zn11  S    
C4    H242  S    
C87   C92   S    
C130  H38   S    
O7    Zn3   S    
C110  H256  S    
C140  H77   S    
C132  H44   S    
C213  O46   A    
C156  N51   S    
C63   O27   A    
C56   O16   A    
C139  H73   S    
H194  N64   S    
C128  H29   S    
C115  N9    S    
C30   N5    S    
C160  N54   S    
O8    Zn4   S    
C161  H160  S    
O15   Zn2   S    
O14   Zn16  S    
C71   C80   A    
C152  H126  S    
C102  H222  S    
C236  C244  A    
C46   C197  S    
C195  C204  S    
C224  O3    A    
C171  H200  S    
O48   Zn8   S    
C73   N71   S    
C233  C242  A    
C142  N37   S    
C64   O30   A    
C68   C199  S    
C100  H190  S    
C37   C43   A    
C98   H113  S    
C242  N68   S    
H211  N69   S    
C38   C44   A    
C113  C190  S    
H137  N50   S    
C44   C56   S    
C250  O9    A    
C202  O52   A    
C90   C194  S    
C151  N46   S    
C10   C19   S    
C187  N38   S    
O13   Zn8   S    
C171  N65   S    
C104  H230  S    
H203  N66   S    
C5    C14   A    
C99   H135  S    
C7    C16   A    
C138  H69   S    
C63   C86   S    
C183  C209  T    
H168  N45   S    
C133  H51   S    
C154  N49   S    
C100  H201  S    
H150  N53   S    
C166  H183  S    
C82   N26   S    
C150  N44   S    
C57   F7    S    
C164  H173  S    
C251  O37   A    
C182  C202  S    
C245  O5    A    
C236  C245  S    
C159  H151  S    
C252  O11   A    
H250  N5    S    
C79   C193  S    
C158  H149  S    
C31   N6    S    
C159  H153  S    
C222  N57   S    
C46   C90   S    
C160  H158  S    
C27   C36   A    
C33   C51   A    
H233  N72   S    
C179  C224  S    
C144  H95   S    
C170  H196  S    
C17   C22   T    
C59   O18   A    
C225  C233  A    
O23   Zn12  S    
C35   F5    S    
C109  H254  S    
C228  C237  A    
C98   H101  S    
C82   C86   A    
C186  N39   S    
C8    C17   S    
O41   Zn2   S    
C115  H269  S    
O2    Zn15  S    
O1    Zn3   S    
C194  C246  S    
C188  C197  S    
C66   C75   A    
C126  H18   S    
C92   C93   T    
C96   H24   S    
C218  C227  A    
H21   N21   S    
C46   C185  S    
C94   C95   T    
C121  H296  S    
C122  H6    S    
C125  N19   S    
C227  N61   S    
C160  H155  S    
C61   O22   A    
C226  N60   S    
C170  H197  S    
H272  N10   S    
C147  H102  S    
C3    H231  S    
C239  C256  A    
C124  C185  S    
C12   C215  A    
C141  H81   S    
C229  C238  A    
C250  O36   A    
H290  N15   S    
C175  N70   S    
C137  H63   S    
O1    Zn10  S    
C243  N69   S    
C189  C198  S    
C40   C47   A    
C71   N56   S    
C253  O39   A    
C254  H1    S    
H159  N55   S    
O31   Zn1   S    
C70   C78   A    
C2    C189  S    
C101  C192  S    
C142  H84   S    
C134  H54   S    
C135  C198  S    
H241  N3    S    
O28   Zn15  S    
C173  H210  S    
C138  H66   S    
C40   N15   S    
C116  H273  S    
C235  O4    A    
C249  O8    A    
C169  H192  S    
C102  N56   S    
C141  H80   S    
C108  H247  S    
C163  H171  S    
O4    Zn13  S    
O12   Zn9   S    
C28   N3    S    
H185  N62   S    
C116  H276  S    
H212  N56   S    
C178  C205  T    
C146  C199  S    
C168  C201  T    
C114  H266  S    
C152  N47   S    
O39   Zn15  S    
C196  C205  S    
C104  H232  S    
O49   Zn11  S    
C103  H227  S    
C6    C15   A    
C211  N46   S    
C167  H187  S    
C119  H288  S    
C142  H86   S    
C174  H215  S    
H277  N11   S    
C151  H122  S    
C180  O42   A    
C42   N17   S    
C153  H129  S    
H246  N4    S    
O23   Zn7   S    
H4    N17   S    
C165  H178  S    
C27   N2    S    
H79   N23   S    
C234  C243  A    
C256  H220  S    
C33   N8    S    
C15   C23   S    
C73   C91   A    
C213  O2    A    
C164  H175  S    
C251  O10   A    
C166  N61   S    
H70   N33   S    
C1    C177  S    
C13   C146  S    
C143  N38   S    
H216  N70   S    
C158  H147  S    
C26   C34   A    
C212  C221  A    
O27   Zn14  S    
C150  H118  S    
C27   C49   A    
C165  H180  S    
C186  C195  S    
C70   N45   S    
C157  C186  S    
C108  N4    S    
O17   Zn4   S    
H74   N35   S    
H163  N57   S    
C97   H57   S    
C163  N58   S    
H176  N60   S    
C255  H112  S    
C125  H15   S    
C129  H32   S    
C117  H278  S    
C161  N55   S    
C6    H264  S    
C12   C21   S    
C105  H235  S    
C99   H157  S    
C252  O38   A    
C29   C38   A    
C103  N67   S    
C140  N35   S    
C123  N18   S    
O29   Zn12  S    
C181  C235  S    
C112  O49   A    
C173  N68   S    
C90   C188  S    
C237  C254  A    
C100  H179  S    
C57   C186  S    
C121  H295  S    
C136  H58   S    
C32   C50   A    
C184  N37   S    
C175  H218  S    
C107  H244  S    
C122  H7    S    
C2    F2    S    
C244  N70   S    
C222  C231  A    
C57   C200  S    
C137  N31   S    
C219  C228  A    
C6    C243  A    
O40   Zn16  S    
C98   N23   S    
C225  N59   S    
C99   H146  S    
C126  N20   S    
C4    C241  A    
H96   N40   S    
C156  H143  S    
C162  H166  S    
C120  N15   S    
H87   N38   S    
C88   C93   S    
C75   N19   S    
C106  N2    S    
C1    O40   A    
C62   O24   A    
C175  H217  S    
C163  H169  S    
H115  N44   S    
C233  C248  S    
C111  H262  S    
C145  H97   S    
C106  H239  S    
C46   F6    S    
C145  N40   S    
C67   C87   A    
C239  N64   S    
C161  H161  S    
H263  N8    S    
C221  N55   S    
C121  N16   S    
C111  N7    S    
C248  O7    A    
C101  C195  S    
C103  H225  S    
O19   Zn6   S    
C188  N41   S    
C72   C89   A    
C231  C250  S    
C141  N36   S    
C118  H284  S    
C108  H249  S    
C174  H213  S    
C139  H71   S    
C59   O20   A    
C9    C211  A    
C194  C203  S    
C8    C254  A    
C153  H131  S    
H78   N36   S    
C136  H60   S    
C141  H82   S    
C67   N23   S    
C116  H274  S    
O23   Zn5   S    
C19   C25   T    
H30   N24   S    
H52   N29   S    
C179  C206  T    
C229  C252  S    
C97   H68   S    
O32   Zn9   S    
O16   Zn3   S    
C42   C47   A    
H43   N27   S    
H56   N30   S    
C235  O48   A    
C67   C76   A    
C76   N20   S    
H119  N46   S    
H268  N9    S    
O18   Zn5   S    
O44   Zn5   S    
C35   C198  S    
C143  H91   S    
C155  H140  S    
