data_mof_unit_25822.cif
_audit_creation_date              2012-12-10T18:57:42-0500
_audit_creation_method            fapswitch 2.2
_symmetry_space_group_name_H-M    P1
_symmetry_Int_Tables_number       1
_space_group_crystal_system       triclinic
_cell_length_a                    10.923056
_cell_length_b                    10.817793
_cell_length_c                    9.556988
_cell_angle_alpha                 90.7306
_cell_angle_beta                  89.761784
_cell_angle_gamma                 90.579858
_cell_volume                      1129.12700067

loop_
_atom_site_label
_atom_site_type_symbol
_atom_type_description
_atom_site_fract_x
_atom_site_fract_y
_atom_site_fract_z
_atom_type_partial_charge
C1    C     C_R   0.492958 0.262482 0.498703 0.840814
C2    C     C_R   0.475538 0.129125 0.497271 -0.201756
C3    C     C_R   0.412783 0.061398 0.389266 0.092302
C4    C     C_R   0.410133 0.930233 0.394766 0.364326
C5    C     C_R   0.472492 0.869409 0.504218 -0.287683
C6    C     C_R   0.509874 0.939245 0.619581 0.114653
C7    C     C_3   0.616699 0.933103 0.716815 0.197862
C8    C     C_3   0.624961 0.074397 0.706692 -0.102483
C9    C     C_R   0.607435 0.503213 0.073062 0.248357
C10   C     C_R   0.394163 0.486103 0.074389 -0.065818
C11   C     C_R   0.394114 0.486498 0.926105 -0.057121
C12   C     C_R   0.265298 0.498302 0.500366 0.821043
C13   C     C_R   0.607527 0.501499 0.925737 0.252238
C14   C     C_3   0.705332 0.598078 0.919019 -0.497628
C15   C     C_3   0.702963 0.602817 0.077708 -0.480351
C16   C     C_R   0.493662 0.737296 0.500960 0.808022
C17   C     C_R   0.734641 0.500410 0.499914 0.838778
C18   C     C_2   0.933098 0.477665 0.387794 -0.156190
C19   C     C_2   0.866717 0.506047 0.501622 -0.320415
C20   C     C_2   0.066989 0.485944 0.386022 -0.157782
C21   C     C_2   0.133211 0.489658 0.503619 -0.317946
C22   C     C_R   0.515420 0.064897 0.613077 0.028384
Cu1   Cu    Cu3+1 0.499990 0.499980 0.640670 0.950759
Cu2   Cu    Cu3+1 0.500010 0.500020 0.359330 0.944699
H1    H     H_    0.888428 0.449480 0.291172 0.152854
H2    H     H_    0.307941 0.475869 0.128680 0.136746
H3    H     H_    0.307838 0.476957 0.872209 0.139176
H4    H     H_    0.792281 0.560858 0.875674 0.182748
H5    H     H_    0.673816 0.683881 0.869220 0.246571
H6    H     H_    0.789897 0.571482 0.124446 0.185417
H7    H     H_    0.667592 0.691415 0.121269 0.229109
H8    H     H_    0.907944 0.536599 0.599041 0.139647
H9    H     H_    0.111642 0.486550 0.284283 0.156199
H10   H     H_    0.091730 0.481661 0.606213 0.145295
H11   H     H_    0.694838 0.878692 0.675004 0.099147
H12   H     H_    0.602129 0.122563 0.806921 0.163325
N1    N     N_R   0.500780 0.500930 0.147930 -0.181353
N2    N     N_R   0.500780 0.500890 0.852020 -0.177972
O1    O     O_R   0.500000 0.319640 0.618810 -0.584427
O2    O     O_R   0.500010 0.319680 0.381230 -0.589166
O3    O     O_R   0.321940 0.499980 0.618760 -0.594623
O4    O     O_R   0.321950 0.500020 0.381180 -0.592858
O5    O     O_R   0.499990 0.680320 0.618770 -0.546315
O6    O     O_R   0.500000 0.680360 0.381190 -0.556935
O7    O     O_R   0.678050 0.499980 0.618820 -0.595743
O8    O     O_R   0.678060 0.500020 0.381240 -0.578095
C23   C     C_3   0.744503 0.125582 0.640438 -0.423371
C24   C     C_3   0.777560 0.074866 0.494554 -0.819827
H13   H     H_    0.788569 0.973166 0.494880 0.237180
H14   H     H_    0.707707 0.099525 0.416268 0.250189
H15   H     H_    0.866000 0.116614 0.460833 0.242244
H16   H     H_    0.737539 0.227721 0.634150 0.222329
H17   H     H_    0.821259 0.105945 0.712490 0.202053
C25   C     C_3   0.345317 0.124708 0.271201 -0.323727
C26   C     C_3   0.228847 0.186400 0.324781 -0.817490
H18   H     H_    0.249330 0.251584 0.411973 0.245831
H19   H     H_    0.163042 0.115222 0.362618 0.252787
H20   H     H_    0.185543 0.238151 0.238776 0.228427
H21   H     H_    0.405141 0.191744 0.216424 0.207264
H22   H     H_    0.317883 0.058206 0.187452 0.249306
O9    O     O_3   0.346204 0.864811 0.293167 -0.720767
H23   H     H_    0.312518 0.788438 0.335321 0.332813
O10   O     O_3   0.578155 0.895938 0.849893 -0.713472
H24   H     H_    0.650403 0.906950 0.911573 0.312420

loop_
_geom_bond_atom_site_label_1
_geom_bond_atom_site_label_2
_ccdc_geom_bond_type
C2    C22   A    
C11   N2    A    
C8    C22   S    
C26   H18   S    
C15   H7    S    
C23   H16   S    
Cu1   O7    S    
Cu1   N2    S    
Cu2   O4    S    
C16   O6    A    
C23   C24   S    
Cu1   O3    S    
C11   H3    S    
C23   H17   S    
Cu2   O8    S    
C10   H2    S    
C24   H14   S    
C2    C3    A    
C9    C15   S    
C8    C23   S    
C7    C8    S    
C25   H22   S    
C13   C14   S    
C20   C21   D    
C5    C6    A    
C16   O5    A    
C7    O10   S    
C13   N2    A    
C12   O3    A    
C18   H1    S    
C10   N1    A    
Cu1   O1    S    
C20   H9    S    
C12   C21   S    
C9    N1    A    
C24   H13   S    
C17   C19   S    
C17   O7    A    
Cu2   N1    S    
C6    C7    S    
C18   C20   S    
C25   H21   S    
C26   H19   S    
O9    H23   S    
Cu2   O6    S    
C3    C25   S    
C10   C11   A    
C1    O1    A    
Cu1   Cu2   S    
C14   H4    S    
O10   H24   S    
C6    C22   A    
Cu1   O5    S    
C17   O8    A    
C15   H6    S    
C1    C2    S    
C8    H12   S    
C26   H20   S    
C19   H8    S    
C9    C13   A    
C14   C15   S    
C18   C19   D    
C5    C16   S    
C12   O4    A    
C21   H10   S    
C14   H5    S    
C1    O2    A    
Cu2   O2    S    
C25   C26   S    
C7    H11   S    
C4    O9    S    
C24   H15   S    
C3    C4    A    
C4    C5    A    
