data_mof_unit_52069.cif
_audit_creation_date              2013-03-05T15:53:32-0500
_audit_creation_method            fapswitch 2.2
_symmetry_space_group_name_H-M    P1
_symmetry_Int_Tables_number       1
_space_group_crystal_system       triclinic
_cell_length_a                    30.455597
_cell_length_b                    7.248132
_cell_length_c                    26.04051
_cell_angle_alpha                 89.823237
_cell_angle_beta                  112.134084
_cell_angle_gamma                 89.837514
_cell_volume                      5324.64223464

loop_
_atom_site_label
_atom_site_type_symbol
_atom_site_description
_atom_site_fract_x
_atom_site_fract_y
_atom_site_fract_z
_atom_type_partial_charge
O1    O     O_R   0.295360 0.592990 0.320420 -0.585469
O2    O     O_R   0.704640 0.407010 0.679580 -0.570654
O3    O     O_R   0.204640 0.092990 0.179580 -0.585996
O4    O     O_R   0.795360 0.907010 0.820420 -0.585029
O5    O     O_R   0.294060 0.265620 0.213230 -0.595448
O6    O     O_R   0.705940 0.734380 0.786770 -0.594492
O7    O     O_R   0.205940 0.765620 0.286770 -0.601952
O8    O     O_R   0.794060 0.234380 0.713230 -0.591172
C1    C     C_R   0.304238 0.432262 0.199496 0.944945
C2    C     C_R   0.695763 0.567738 0.800504 0.943506
C3    C     C_R   0.195830 0.932273 0.300551 0.945261
C4    C     C_R   0.804163 0.067693 0.699433 0.941487
O9    O     O_R   0.300850 0.263360 0.322080 -0.565836
O10   O     O_R   0.699150 0.736640 0.677920 -0.585439
O11   O     O_R   0.199150 0.763360 0.177920 -0.569253
O12   O     O_R   0.800850 0.236640 0.822080 -0.570208
O13   O     O_R   0.211480 0.091820 0.289210 -0.572191
O14   O     O_R   0.788520 0.908180 0.710790 -0.583102
O15   O     O_R   0.288520 0.591820 0.210790 -0.579580
O16   O     O_R   0.711480 0.408180 0.789210 -0.581254
C5    C     C_R   0.313153 0.431251 0.343333 1.011774
C6    C     C_R   0.686754 0.568827 0.656738 1.019945
C7    C     C_R   0.186850 0.932363 0.156727 1.016274
C8    C     C_R   0.813150 0.067637 0.843273 1.016830
O17   O     O_3   0.220670 0.426670 0.239090 -0.290431
O18   O     O_3   0.779330 0.573330 0.760910 -0.288179
O19   O     O_3   0.279330 0.926670 0.260910 -0.288535
O20   O     O_3   0.720670 0.073330 0.739090 -0.289914
V1    V     V_3+5 0.255440 0.152290 0.252020 1.219092
V2    V     V_3+5 0.744560 0.847710 0.747980 1.212493
V3    V     V_3+5 0.244560 0.652290 0.247980 1.211475
V4    V     V_3+5 0.755440 0.347710 0.752020 1.220188
C9    C     C_R   0.849016 0.055585 0.900346 -0.290178
C10   C     C_R   0.150983 0.944416 0.099654 -0.289772
C11   C     C_R   0.650647 0.563583 0.599697 -0.291566
C12   C     C_R   0.349352 0.437837 0.400311 -0.293944
C13   C     C_R   0.869294 0.001742 0.998940 0.224858
C14   C     C_R   0.130705 0.998253 0.001060 0.224750
C15   C     C_R   0.627729 0.613351 0.500503 0.225935
C16   C     C_R   0.370754 0.433397 0.500281 0.227021
C17   C     C_R   0.834806 0.028559 0.945277 0.242762
C18   C     C_R   0.165193 0.971434 0.054722 0.242792
C19   C     C_R   0.662967 0.609626 0.554390 0.240651
C20   C     C_R   0.335897 0.425683 0.446245 0.238946
C21   C     C_R   0.897340 0.052075 0.908908 -0.278052
C22   C     C_R   0.102659 0.947933 0.091093 -0.278228
C23   C     C_R   0.603256 0.525729 0.591255 -0.276576
C24   C     C_R   0.397200 0.463042 0.408443 -0.272396
C25   C     C_R   0.933019 0.021641 0.962366 0.112655
C26   C     C_R   0.066980 0.978366 0.037635 0.112695
C27   C     C_R   0.566638 0.533242 0.537587 0.112467
C28   C     C_R   0.433186 0.474178 0.462439 0.111864
C29   C     C_R   0.918188 0.999918 0.007644 -0.051130
C30   C     C_R   0.081811 0.000085 0.992356 -0.051193
C31   C     C_R   0.579879 0.573404 0.491956 -0.049907
C32   C     C_R   0.419261 0.454208 0.508456 -0.051821
C33   C     C_R   0.982858 0.012468 0.972369 0.096740
C34   C     C_R   0.017141 0.987541 0.027631 0.096827
C35   C     C_R   0.517368 0.502847 0.527742 0.096621
C36   C     C_R   0.482489 0.503582 0.472263 0.096220
C37   C     C_R   0.000457 0.974596 0.071157 -0.219403
C38   C     C_R   0.999542 0.025413 0.928844 -0.219322
C39   C     C_R   0.497991 0.536545 0.428472 -0.217530
C40   C     C_R   0.501694 0.474874 0.571627 -0.218613
C41   C     C_R   0.952447 0.980264 0.061344 -0.092562
C42   C     C_R   0.047552 0.019741 0.938657 -0.092436
C43   C     C_R   0.545235 0.570644 0.438137 -0.088305
C44   C     C_R   0.454080 0.451853 0.562174 -0.092984
H1    H     H_    0.942530 0.970769 0.097022 0.183553
H2    H     H_    0.057469 0.029234 0.902978 0.183642
H3    H     H_    0.554289 0.594511 0.402295 0.184644
H4    H     H_    0.444936 0.430654 0.598067 0.183999
H5    H     H_    0.023657 0.960947 0.113970 0.137213
H6    H     H_    0.976342 0.039062 0.886030 0.137349
H7    H     H_    0.474271 0.540898 0.385679 0.138157
H8    H     H_    0.525302 0.473317 0.614477 0.137772
C45   C     C_R   0.087788 0.073188 0.472275 0.487492
C46   C     C_R   0.912197 0.926381 0.527601 0.485734
C47   C     C_R   0.412942 0.389452 0.025059 0.488084
C48   C     C_R   0.587056 0.610558 0.974939 0.487886
N1    N     N_R   0.073846 0.970738 0.424521 -0.185861
N2    N     N_R   0.926190 0.028408 0.575450 -0.185761
N3    N     N_R   0.426996 0.469880 0.076426 -0.186127
N4    N     N_R   0.573002 0.530130 0.923572 -0.186137
C49   C     C_R   0.031330 0.879053 0.406113 0.468247
C50   C     C_R   0.968788 0.119591 0.593944 0.468375
C51   C     C_R   0.469430 0.561465 0.098229 0.466786
C52   C     C_R   0.530568 0.438549 0.901769 0.467102
C53   C     C_R   0.001196 0.888000 0.435945 -0.047846
C54   C     C_R   0.998890 0.110850 0.564067 -0.048086
C55   C     C_R   0.499236 0.575998 0.068117 -0.048839
C56   C     C_R   0.500761 0.424017 0.931880 -0.049095
C57   C     C_R   0.014976 0.993580 0.484747 -0.006679
C58   C     C_R   0.985083 0.005467 0.515230 -0.006665
C59   C     C_R   0.485255 0.493745 0.015481 -0.006293
C60   C     C_R   0.514742 0.506269 0.984516 -0.006358
C61   C     C_R   0.058573 0.087341 0.503132 -0.064607
C62   C     C_R   0.941458 0.911926 0.496806 -0.063699
C63   C     C_R   0.441850 0.399053 0.993729 -0.065597
C64   C     C_R   0.558147 0.600960 0.006269 -0.065299
C65   C     C_R   0.957581 0.794879 0.418003 -0.103218
C66   C     C_R   0.042501 0.204008 0.582004 -0.102902
C67   C     C_R   0.542640 0.670364 0.089400 -0.103385
C68   C     C_R   0.457358 0.329652 0.910597 -0.102694
C69   C     C_R   0.928082 0.806757 0.448033 -0.098147
C70   C     C_R   0.071957 0.192449 0.551914 -0.097276
C71   C     C_R   0.571721 0.682700 0.058866 -0.095454
C72   C     C_R   0.428277 0.317315 0.941131 -0.095040
O21   O     O_2   0.130016 0.159839 0.490237 -0.502830
O22   O     O_2   0.869865 0.840486 0.509460 -0.504031
O23   O     O_2   0.370848 0.302316 0.003960 -0.501589
O24   O     O_2   0.629150 0.697691 0.996038 -0.501770
O25   O     O_2   0.017901 0.781195 0.358720 -0.546484
O26   O     O_2   0.982344 0.216738 0.641474 -0.546398
O27   O     O_2   0.483028 0.636982 0.149132 -0.544819
O28   O     O_2   0.516969 0.363034 0.850865 -0.544931
H9    H     H_    0.946045 0.712546 0.380651 0.183670
H10   H     H_    0.054053 0.286232 0.619379 0.183872
H11   H     H_    0.554311 0.735119 0.129744 0.184928
H12   H     H_    0.445686 0.264898 0.870253 0.185042
C73   C     C_R   0.878666 0.209717 0.616749 -0.038540
C74   C     C_R   0.116061 0.121095 0.371038 -0.054891
C75   C     C_R   0.621292 0.378263 0.877708 -0.040566
C76   C     C_R   0.384186 0.288640 0.123645 -0.044521
H13   H     H_    0.887829 0.335379 0.600561 0.135067
H14   H     H_    0.102307 0.253682 0.377135 0.125510
H15   H     H_    0.612408 0.244881 0.889899 0.128434
H16   H     H_    0.397755 0.162252 0.112990 0.125682
C77   C     C_R   0.849330 0.219583 0.647152 -0.126225
C78   C     C_R   0.145632 0.111903 0.340980 -0.101429
C79   C     C_R   0.650819 0.387217 0.847606 -0.108295
C80   C     C_R   0.354392 0.279278 0.153491 -0.117315
H17   H     H_    0.836642 0.353628 0.653794 0.165689
H18   H     H_    0.154094 0.238797 0.324724 0.145694
H19   H     H_    0.663728 0.259276 0.837004 0.163059
H20   H     H_    0.345442 0.144772 0.164846 0.147664
C81   C     C_R   0.836172 0.058342 0.668045 -0.144580
C82   C     C_R   0.163811 0.941388 0.331918 -0.140883
C83   C     C_R   0.663579 0.558628 0.831704 -0.147195
C84   C     C_R   0.336421 0.441373 0.168296 -0.147927
C85   C     C_R   0.853462 0.887292 0.657937 -0.111519
C86   C     C_R   0.151552 0.780425 0.353853 -0.133569
C87   C     C_R   0.645609 0.720725 0.846510 -0.117389
C88   C     C_R   0.349179 0.612786 0.152393 -0.107578
H21   H     H_    0.844283 0.760086 0.673337 0.149381
H22   H     H_    0.165034 0.646852 0.348126 0.156867
H23   H     H_    0.654560 0.855230 0.835156 0.147640
H24   H     H_    0.336270 0.740726 0.162994 0.163091
C89   C     C_R   0.883088 0.877905 0.627951 -0.047734
C90   C     C_R   0.122161 0.790085 0.384193 -0.030351
C91   C     C_R   0.615815 0.711366 0.876355 -0.044681
C92   C     C_R   0.378706 0.621742 0.122291 -0.040304
C93   C     C_R   0.895861 0.038819 0.606884 0.194272
C94   C     C_R   0.104141 0.960485 0.393071 0.193669
C95   C     C_R   0.603473 0.540080 0.892343 0.194398
C96   C     C_R   0.396526 0.459927 0.107656 0.194167
H25   H     H_    0.896206 0.744870 0.621148 0.125382
H26   H     H_    0.113632 0.664750 0.401145 0.135107
H27   H     H_    0.602246 0.837755 0.887011 0.125644
H28   H     H_    0.387588 0.755125 0.110098 0.128466
H29   H     H_    0.094380 0.928337 0.127442 0.123047
H30   H     H_    0.905620 0.071678 0.872559 0.123176
H31   H     H_    0.404999 0.471510 0.371466 0.122811
H32   H     H_    0.596324 0.492257 0.627799 0.123950
N5    N     N_R   0.214762 0.977420 0.063687 0.249252
O29   O     O_R   0.243502 0.848854 0.092450 -0.401214
O30   O     O_R   0.231452 0.112548 0.043544 -0.307028
N6    N     N_R   0.785237 0.022563 0.936312 0.249258
O31   O     O_R   0.756496 0.151126 0.907549 -0.401262
O32   O     O_R   0.768549 0.887428 0.956454 -0.307055
N7    N     N_R   0.286646 0.412079 0.438282 0.247331
O33   O     O_R   0.260068 0.285055 0.406491 -0.388334
O34   O     O_R   0.268348 0.525252 0.463545 -0.309326
N8    N     N_R   0.711117 0.656747 0.563051 0.252487
O35   O     O_R   0.746084 0.552170 0.593532 -0.403326
O36   O     O_R   0.720229 0.805712 0.540920 -0.304216
N9    N     N_R   0.854332 0.977831 0.044641 0.255005
O37   O     O_R   0.828388 0.103409 0.055307 -0.287204
O38   O     O_R   0.862392 0.822491 0.071869 -0.332928
N10   N     N_R   0.145667 0.022157 0.955359 0.255046
O39   O     O_R   0.171609 0.896572 0.944692 -0.286920
O40   O     O_R   0.137609 0.177498 0.928130 -0.332676
N11   N     N_R   0.640945 0.656287 0.454417 0.255585
O41   O     O_R   0.672841 0.557220 0.445101 -0.284903
O42   O     O_R   0.624803 0.805307 0.425342 -0.342825
N12   N     N_R   0.356599 0.417479 0.546838 0.254514
O43   O     O_R   0.332761 0.274375 0.551759 -0.288590
O44   O     O_R   0.363240 0.554347 0.581132 -0.329011
H33   H     H_    0.894762 0.733133 0.432874 0.186777
H34   H     H_    0.105261 0.266191 0.567049 0.187227
H35   H     H_    0.604888 0.756477 0.076663 0.187557
H36   H     H_    0.395110 0.243537 0.923334 0.187745

loop_
_geom_bond_atom_site_label_1
_geom_bond_atom_site_label_2
_geom_bond_distance
_ccdc_geom_bond_type
O17   V3    1.771838 S    
N3    C51   1.373837 A    
N7    O33   1.300847 A    
C92   H28   1.083033 S    
O1    C5    1.331321 A    
N5    O29   1.300985 A    
C51   C55   1.409392 A    
O12   V4    1.993116 S    
O19   V1    1.766704 S    
C9    C21   1.403158 A    
C86   H22   1.083016 S    
O3    C7    1.329681 A    
C59   C60   1.417968 A    
C10   C18   1.405458 A    
C56   C60   1.407885 A    
C48   N4    1.373698 A    
O15   V3    1.974534 S    
C25   C33   1.441386 A    
C33   C38   1.408992 A    
C24   H31   1.076788 S    
C75   C95   1.403709 A    
C87   H23   1.082881 S    
C6    C11   1.478776 S    
N7    O34   1.301223 A    
C35   C40   1.408965 A    
C57   C58   1.418076 A    
C62   C69   1.406399 A    
C73   C93   1.405077 A    
C36   C39   1.408919 A    
C40   C44   1.387028 A    
C47   C63   1.409574 A    
C3    C82   1.490837 S    
C14   C18   1.408867 A    
C79   H19   1.082607 S    
N11   O42   1.301173 A    
O4    C8    1.329681 A    
C1    C84   1.491757 S    
C59   C63   1.408077 A    
C43   H3    1.081801 S    
C16   N12   1.436050 S    
C58   C62   1.407799 A    
C17   N6    1.438837 S    
O1    V3    1.982121 S    
O13   V1    1.974892 S    
C31   C43   1.401360 A    
C76   C80   1.401249 A    
O2    V4    1.982120 S    
O3    V1    1.986540 S    
C89   C93   1.404298 A    
N8    O35   1.301306 A    
C54   C66   1.406331 A    
C28   C36   1.441589 A    
N2    C93   1.448678 S    
C83   C87   1.409498 A    
C1    O15   1.325955 A    
C15   C31   1.419662 A    
C92   C96   1.403709 A    
C2    O16   1.325956 A    
N9    O38   1.301178 A    
C22   H29   1.076564 S    
C46   C62   1.409508 A    
C38   H6    1.075781 S    
C45   C61   1.409474 A    
C10   C22   1.403159 A    
C45   N1    1.373927 A    
C11   C19   1.405702 A    
C16   C20   1.409005 A    
C53   C65   1.406283 A    
C66   H10   1.083017 S    
C18   N5    1.438835 S    
C80   H20   1.082881 S    
C76   H16   1.082954 S    
C13   C29   1.419329 A    
C74   H14   1.083045 S    
C34   C37   1.408992 A    
N6    O32   1.301288 A    
C11   C23   1.403687 A    
C35   C36   1.434938 A    
O12   C8    1.335239 A    
C48   C64   1.409575 A    
C13   C17   1.408869 A    
C74   C94   1.404058 A    
C78   H18   1.082919 S    
O10   V2    2.000819 S    
N10   O40   1.301178 A    
N1    C49   1.373728 A    
C54   C58   1.407991 A    
O5    V1    1.993528 S    
C65   C69   1.398371 A    
C39   C43   1.387144 A    
C14   N10   1.435886 S    
C38   C42   1.386705 A    
C85   C89   1.399765 A    
O8    V4    1.993352 S    
C52   C56   1.409393 A    
O7    V3    1.993345 S    
C9    C17   1.405457 A    
C82   C86   1.409205 A    
C73   C77   1.401142 A    
C5    C12   1.478939 S    
C49   C53   1.409675 A    
O18   V4    1.771840 S    
C23   C27   1.422850 A    
N3    C96   1.447904 S    
C16   C32   1.419519 A    
C32   C44   1.401256 A    
N1    C94   1.448086 S    
C44   H4    1.081811 S    
C26   C34   1.441388 A    
C52   O28   1.349173 S    
O7    C3    1.329099 A    
C21   H30   1.076564 S    
N11   O41   1.301081 A    
C73   H13   1.082996 S    
C63   C72   1.406271 A    
C69   H33   1.083012 S    
C46   N2    1.374182 A    
C56   C68   1.406334 A    
C75   H15   1.083032 S    
C14   C30   1.419332 A    
C21   C25   1.422731 A    
O8    C4    1.329399 A    
C7    C10   1.478150 S    
C48   O24   1.349154 S    
C4    O14   1.326035 A    
C40   H8    1.075876 S    
O9    C5    1.333423 A    
C46   O22   1.349202 S    
C26   C30   1.421113 A    
C45   O21   1.349198 S    
C77   H17   1.082797 S    
C23   H32   1.076706 S    
N6    O31   1.300984 A    
O6    V2    1.993528 S    
C91   C95   1.404751 A    
C76   C96   1.404752 A    
C50   C54   1.409690 A    
O14   V2    1.974897 S    
C12   C20   1.405471 A    
C27   C35   1.441591 A    
C2    C83   1.491758 S    
C61   C70   1.406341 A    
N12   O44   1.301170 A    
C78   C82   1.409292 A    
C57   C61   1.407884 A    
C68   C72   1.398334 A    
C29   C41   1.401016 A    
N10   O39   1.301088 A    
O16   V4    1.974532 S    
O9    V1    2.000819 S    
C81   C85   1.409402 A    
C3    O13   1.326197 A    
C64   C71   1.406271 A    
C87   C91   1.401246 A    
C90   H26   1.083000 S    
C75   C79   1.399469 A    
C51   O27   1.349174 S    
C67   H11   1.083017 S    
C84   C88   1.409577 A    
C55   C67   1.406332 A    
O6    C2    1.328852 A    
C15   C19   1.409368 A    
O11   V3    1.993114 S    
C30   C42   1.401013 A    
C85   H21   1.082916 S    
C80   C84   1.409500 A    
C13   N9    1.435888 S    
C22   C26   1.422730 A    
C8    C9    1.478148 S    
C47   O23   1.349154 S    
C50   O26   1.349128 S    
C37   H5    1.075780 S    
O10   C6    1.332686 A    
C49   O25   1.349125 S    
C20   N7    1.438460 S    
C65   H9    1.083019 S    
O20   V2    1.766704 S    
C88   C92   1.399468 A    
N2    C50   1.373987 A    
O2    C6    1.331942 A    
C47   N3    1.373698 A    
C86   C90   1.401176 A    
C33   C34   1.434838 A    
C42   H2    1.081821 S    
N4    C52   1.373837 A    
C39   H7    1.075954 S    
C41   H1    1.081820 S    
C60   C64   1.408076 A    
O11   C7    1.335239 A    
C19   N8    1.439461 S    
C12   C24   1.403907 A    
C27   C31   1.420920 A    
C53   C57   1.408078 A    
N8    O36   1.301273 A    
C25   C29   1.421112 A    
C79   C83   1.409576 A    
C15   N11   1.435798 S    
C55   C59   1.407886 A    
C37   C41   1.386706 A    
C24   C28   1.422918 A    
C77   C81   1.409066 A    
N5    O30   1.301291 A    
N9    O37   1.301087 A    
C90   C94   1.404846 A    
C66   C70   1.398364 A    
C71   H35   1.083019 S    
N4    C95   1.447906 S    
C70   H34   1.083016 S    
C4    C81   1.491105 S    
C72   H36   1.083020 S    
C67   C71   1.398334 A    
O5    C1    1.328853 A    
N12   O43   1.301118 A    
C89   H25   1.083043 S    
C74   C78   1.399770 A    
O4    V2    1.986543 S    
C28   C32   1.420913 A    
C91   H27   1.082955 S    
C68   H12   1.083017 S    
C88   H24   1.082606 S    
