data_mof_unit_43736.cif
_audit_creation_date              2012-12-11T14:34:02-0500
_audit_creation_method            fapswitch 2.2
_symmetry_space_group_name_H-M    P1
_symmetry_Int_Tables_number       1
_space_group_crystal_system       triclinic
_cell_length_a                    13.863467
_cell_length_b                    13.981016
_cell_length_c                    27.428316
_cell_angle_alpha                 90.561905
_cell_angle_beta                  90.122152
_cell_angle_gamma                 120.53761
_cell_volume                      4578.53315055

loop_
_atom_site_label
_atom_site_type_symbol
_atom_type_description
_atom_site_fract_x
_atom_site_fract_y
_atom_site_fract_z
_atom_type_partial_charge
C1    C     C_R   0.234240 0.787457 0.568961 0.556077
C2    C     C_R   0.212859 0.447735 0.569145 0.555217
C3    C     C_R   0.553088 0.766097 0.568900 0.545073
C4    C     C_3   0.691771 0.742643 0.784333 -0.080400
C5    C     C_3   0.257334 0.949882 0.785755 -0.080693
C6    C     C_3   0.049598 0.306069 0.785055 -0.080829
C7    C     C_3   0.659511 0.727997 0.729279 -0.208783
C8    C     C_3   0.273405 0.933133 0.730808 -0.209036
C9    C     C_3   0.066357 0.338625 0.730273 -0.208738
C10   C     C_1   0.756902 0.878161 0.853986 -0.054434
C11   C     C_1   0.118181 0.878086 0.853401 -0.054331
C12   C     C_1   0.122548 0.242537 0.853572 -0.054482
C13   C     C_1   0.635936 0.819107 0.657535 -0.071309
C14   C     C_1   0.182176 0.818903 0.657263 -0.071607
C15   C     C_1   0.182733 0.366247 0.657635 -0.071438
C16   C     C_1   0.603981 0.799421 0.615943 -0.011641
C17   C     C_1   0.201987 0.806259 0.615834 -0.012856
C18   C     C_1   0.194883 0.397981 0.616183 -0.012758
C19   C     C_R   0.108381 0.224826 0.087271 0.567646
C20   C     C_R   0.775855 0.883703 0.087249 0.565134
C21   C     C_R   0.090923 0.931383 0.097721 0.539238
C22   C     C_R   0.071217 0.163555 0.942861 0.502966
C23   C     C_R   0.836955 0.907759 0.943356 0.502011
C24   C     C_R   0.090838 0.928703 0.943063 0.504633
C25   C     C_R   0.636922 0.896056 0.361279 -0.142095
C26   C     C_R   0.116208 0.734621 0.361534 -0.133028
C27   C     C_R   0.286882 0.418603 0.355176 -0.127437
C28   C     C_R   0.660504 0.912447 0.311130 -0.008717
C29   C     C_R   0.090472 0.749865 0.313895 -0.015566
C30   C     C_R   0.280336 0.391481 0.305536 -0.006979
C31   C     C_R   0.703004 0.938389 0.210540 0.001934
C32   C     C_R   0.047050 0.797753 0.219971 0.010796
C33   C     C_R   0.250994 0.325244 0.207331 0.002210
C34   C     C_R   0.258049 0.766577 0.425145 0.530007
C35   C     C_R   0.235598 0.497411 0.425511 0.537481
C36   C     C_R   0.551515 0.764409 0.430474 0.530726
C37   C     C_R   0.725089 0.029974 0.239910 -0.120378
C38   C     C_R   0.958130 0.732050 0.251029 -0.112358
C39   C     C_R   0.315688 0.300495 0.238134 -0.113857
C40   C     C_R   0.702765 0.017682 0.289774 -0.025096
C41   C     C_R   0.978890 0.709284 0.298121 -0.018401
C42   C     C_R   0.331593 0.333792 0.286883 -0.026876
C43   C     C_R   0.733388 0.953726 0.161789 -0.122800
C44   C     C_R   0.026055 0.825967 0.174176 -0.128941
C45   C     C_R   0.226330 0.280419 0.160602 -0.131405
C46   C     C_R   0.713602 0.863214 0.132529 -0.020053
C47   C     C_R   0.114885 0.903329 0.146068 -0.015675
C48   C     C_R   0.155359 0.296708 0.130486 -0.020428
C49   C     C_R   0.583441 0.702674 0.351692 -0.111401
C50   C     C_R   0.314461 0.828880 0.342616 -0.127325
C51   C     C_R   0.170685 0.499673 0.342234 -0.130246
C52   C     C_R   0.600382 0.715444 0.302048 -0.001577
C53   C     C_R   0.291338 0.846442 0.295630 0.008985
C54   C     C_R   0.166351 0.477209 0.292436 0.007496
C55   C     C_R   0.639018 0.819921 0.281247 0.043747
C56   C     C_R   0.179837 0.809653 0.281272 0.042713
C57   C     C_R   0.218315 0.420409 0.273941 0.050164
C58   C     C_R   0.577010 0.623463 0.273267 -0.128386
C59   C     C_R   0.379076 0.902063 0.263215 -0.124742
C60   C     C_R   0.109085 0.509567 0.261261 -0.124903
C61   C     C_R   0.590502 0.632352 0.223072 -0.024311
C62   C     C_R   0.359647 0.932112 0.217856 -0.014807
C63   C     C_R   0.097597 0.482469 0.211725 -0.018934
C64   C     C_R   0.630327 0.737312 0.200623 -0.015545
C65   C     C_R   0.249569 0.906952 0.204877 -0.008063
C66   C     C_R   0.141065 0.416495 0.192545 -0.009921
C67   C     C_3   0.585552 0.858414 0.739151 -0.219260
C68   C     C_3   0.137827 0.727896 0.738083 -0.219434
C69   C     C_3   0.273709 0.416005 0.739801 -0.218377
C70   C     C_R   0.656735 0.831614 0.230712 0.030766
C71   C     C_R   0.158630 0.836576 0.234996 0.034264
C72   C     C_R   0.204533 0.388717 0.224380 0.035048
C73   C     C_R   0.650456 0.754192 0.150006 -0.036399
C74   C     C_R   0.226999 0.952553 0.164188 -0.015454
C75   C     C_R   0.120028 0.371893 0.144203 -0.035530
C76   C     C_R   0.597475 0.791078 0.381329 -0.004472
C77   C     C_R   0.228187 0.776975 0.375825 -0.003776
C78   C     C_R   0.229625 0.469631 0.373693 -0.005086
C79   C     C_3   0.787292 0.933057 0.716821 -0.219754
C80   C     C_3   0.067843 0.856106 0.715172 -0.219188
C81   C     C_3   0.147424 0.215909 0.715138 -0.218894
C82   C     C_3   0.818543 0.947901 0.771613 -0.239385
C83   C     C_3   0.051753 0.872163 0.769812 -0.239488
C84   C     C_3   0.130916 0.183480 0.769576 -0.239670
C85   C     C_1   0.791900 0.892224 0.895143 -0.004960
C86   C     C_1   0.104361 0.898488 0.894657 -0.006799
C87   C     C_1   0.101808 0.208123 0.894684 -0.004419
C88   C     C_3   0.666644 0.834796 0.709350 0.053948
C89   C     C_3   0.165261 0.833515 0.708972 0.053878
C90   C     C_3   0.168124 0.334724 0.709340 0.052856
C91   C     C_3   0.618697 0.875735 0.794065 -0.201336
C92   C     C_3   0.118777 0.742839 0.792774 -0.201540
C93   C     C_3   0.258626 0.381713 0.794294 -0.199660
C94   C     C_3   0.720755 0.860523 0.802623 0.051598
C95   C     C_3   0.136950 0.860572 0.802070 0.051785
C96   C     C_3   0.140538 0.278978 0.802285 0.050001
Cr1   Cr    Cr6+3 0.164410 0.584450 0.499910 1.035319
Cr2   Cr    Cr6+3 0.415550 0.579960 0.499910 1.032213
Cr3   Cr    Cr6+3 0.420040 0.835590 0.499910 1.032392
Cr4   Cr    Cr6+3 0.155170 0.075460 0.019960 1.068297
Cr5   Cr    Cr6+3 0.924540 0.079710 0.019960 1.055719
Cr6   Cr    Cr6+3 0.920290 0.844830 0.019960 1.074321
H1    H     H_    0.639773 0.960630 0.805879 0.141035
H2    H     H_    0.032081 0.678758 0.803050 0.138620
H3    H     H_    0.323991 0.361980 0.805035 0.142648
H4    H     H_    0.498083 0.787812 0.734854 0.116489
H5    H     H_    0.207813 0.710938 0.734800 0.116801
H6    H     H_    0.289218 0.502077 0.736984 0.117172
H7    H     H_    0.546278 0.815926 0.816252 0.156598
H8    H     H_    0.176885 0.729425 0.815810 0.157203
H9    H     H_    0.271014 0.452536 0.817714 0.158527
H10   H     H_    0.766883 0.734321 0.788891 0.094465
H11   H     H_    0.267757 0.033704 0.790776 0.095257
H12   H     H_    0.965514 0.230736 0.789184 0.094384
H13   H     H_    0.778680 0.037142 0.147346 0.144142
H14   H     H_    0.940572 0.792010 0.161294 0.129337
H15   H     H_    0.255445 0.225358 0.148901 0.144507
H16   H     H_    0.646574 0.963326 0.384637 0.144639
H17   H     H_    0.050062 0.692212 0.387851 0.155400
H18   H     H_    0.333781 0.397068 0.379819 0.153511
H19   H     H_    0.760369 0.111612 0.223903 0.136718
H20   H     H_    0.872490 0.701491 0.239129 0.128484
H21   H     H_    0.351864 0.252625 0.224380 0.144351
H22   H     H_    0.548671 0.543788 0.290242 0.132485
H23   H     H_    0.463456 0.924046 0.273674 0.124686
H24   H     H_    0.071256 0.555065 0.275868 0.127660
H25   H     H_    0.587520 0.933804 0.725111 0.122570
H26   H     H_    0.061463 0.654459 0.722665 0.122621
H27   H     H_    0.348736 0.416560 0.725077 0.123008
H28   H     H_    0.551559 0.620473 0.366595 0.150192
H29   H     H_    0.400218 0.858007 0.353916 0.121501
H30   H     H_    0.128151 0.540636 0.356692 0.124057
H31   H     H_    0.847347 0.917909 0.696098 0.114235
H32   H     H_    0.085533 0.931800 0.694830 0.114571
H33   H     H_    0.071850 0.155620 0.693839 0.114530
H34   H     H_    0.794419 0.010808 0.702770 0.119700
H35   H     H_    0.989055 0.785389 0.699874 0.120154
H36   H     H_    0.219782 0.211146 0.700593 0.120734
H37   H     H_    0.841685 0.033060 0.783840 0.113106
H38   H     H_    0.964850 0.810180 0.780623 0.112446
H39   H     H_    0.194067 0.161269 0.780969 0.112798
H40   H     H_    0.892329 0.938627 0.777061 0.097625
H41   H     H_    0.063646 0.955867 0.775564 0.097790
H42   H     H_    0.047051 0.109409 0.774183 0.098639
H43   H     H_    0.573440 0.655985 0.722835 0.119413
H44   H     H_    0.344927 0.919045 0.725294 0.119229
H45   H     H_    0.078862 0.423160 0.724982 0.119612
H46   H     H_    0.717667 0.709859 0.708687 0.106610
H47   H     H_    0.294168 0.010104 0.710782 0.106928
H48   H     H_    0.989277 0.279828 0.709426 0.106710
O1    O     O_R   0.137150 0.468200 0.553200 -0.501114
O2    O     O_R   0.531800 0.668950 0.553200 -0.501486
O3    O     O_R   0.331050 0.862850 0.553200 -0.499070
O4    O     O_R   0.179100 0.982980 0.967000 -0.464265
O5    O     O_R   0.017020 0.196120 0.967000 -0.470354
O6    O     O_R   0.803880 0.820900 0.967000 -0.474797
O7    O     O_R   0.173970 0.688730 0.549930 -0.493126
O8    O     O_R   0.311270 0.485240 0.549930 -0.489511
O9    O     O_R   0.514760 0.826030 0.549930 -0.495299
O10   O     O_R   0.140110 0.470540 0.446010 -0.494108
O11   O     O_R   0.529460 0.669570 0.446010 -0.518824
O12   O     O_R   0.330430 0.859890 0.446010 -0.485826
O13   O     O_R   0.176710 0.690910 0.450560 -0.517281
O14   O     O_R   0.309090 0.485800 0.450560 -0.499728
O15   O     O_R   0.514200 0.823290 0.450560 -0.517669
O16   O     O_3   0.333333 0.666667 0.499990 -0.312145
O17   O     O_R   0.176750 0.985260 0.074180 -0.474410
O18   O     O_R   0.014740 0.191490 0.074180 -0.497715
O19   O     O_R   0.808510 0.823250 0.074180 -0.508401
O20   O     O_R   0.146100 0.172630 0.068980 -0.504830
O21   O     O_R   0.827370 0.973470 0.068980 -0.491808
O22   O     O_R   0.026530 0.853900 0.068980 -0.451158
O23   O     O_3   0.000000 0.000000 0.020040 -0.317473
O24   O     O_R   0.148270 0.170520 0.969620 -0.491613
O25   O     O_R   0.829480 0.977750 0.969620 -0.488961
O26   O     O_R   0.022250 0.851730 0.969620 -0.476708
C97   C     C_1   0.725773 0.114907 0.318058 0.192725
N1    N     N_1   0.744216 0.192828 0.340654 -0.260324
C98   C     C_1   0.884056 0.645050 0.329360 0.192696
N2    N     N_1   0.807950 0.593651 0.354290 -0.274368
C99   C     C_1   0.398251 0.304560 0.317012 0.180881
N3    N     N_1   0.451702 0.281188 0.341064 -0.259116
C100  C     C_1   0.605215 0.663116 0.114818 0.241285
N4    N     N_1   0.569171 0.591286 0.086362 -0.231362
C101  C     C_1   0.316059 0.057827 0.145650 0.223753
N5    N     N_1   0.387041 0.141506 0.130938 -0.251645
C102  C     C_1   0.062190 0.399746 0.107952 0.240485
N6    N     N_1   0.016361 0.421204 0.078543 -0.223334
C103  C     C_1   0.571098 0.533010 0.197579 0.205848
N7    N     N_1   0.555654 0.453008 0.177638 -0.246129
C104  C     C_1   0.453243 0.981061 0.184718 0.222289
N8    N     N_1   0.528245 0.019949 0.158265 -0.264732
C105  C     C_1   0.037525 0.522500 0.183414 0.211809
N9    N     N_1   0.989348 0.555334 0.161294 -0.249034
C106  C     C_1   0.601543 0.653251 0.813110 0.183393
N10   N     N_1   0.530917 0.583311 0.835665 -0.300725
C107  C     C_1   0.345171 0.948155 0.815718 0.184273
N11   N     N_1   0.413924 0.946742 0.839164 -0.296224
C108  C     C_1   0.049917 0.394538 0.815132 0.183824
N12   N     N_1   0.050233 0.463871 0.838653 -0.292677

loop_
_geom_bond_atom_site_label_1
_geom_bond_atom_site_label_2
_ccdc_geom_bond_type
C4    C106  S    
C61   C103  S    
C10   C85   T    
C82   C94   S    
Cr3   O9    S    
C2    C18   S    
C33   C45   A    
C15   C18   T    
Cr5   O23   S    
C48   C75   A    
C19   O20   A    
C82   H40   S    
C27   C78   A    
C92   H8    S    
C25   H16   S    
Cr2   O11   S    
C6    C9    S    
C53   C59   A    
C80   H32   S    
C54   C60   A    
C99   N3    T    
Cr6   O23   S    
C79   H34   S    
C67   C88   S    
C33   C39   A    
C31   C43   A    
C60   C63   A    
C45   H15   S    
C37   C40   A    
C69   C93   S    
C80   C83   S    
C34   C77   S    
C6    C108  S    
C73   C100  S    
C45   C48   A    
C23   O25   A    
C28   C40   A    
C11   C86   T    
Cr6   O26   S    
Cr1   O16   S    
C30   C57   A    
C39   H21   S    
C84   C96   S    
C80   C89   S    
C35   O10   A    
C79   C88   S    
C36   C76   S    
C33   C72   A    
C93   H3    S    
C28   C55   A    
C31   C70   A    
C66   C72   A    
Cr2   O8    S    
Cr1   O13   S    
C64   C73   A    
C63   C105  S    
C26   C29   A    
C68   H5    S    
C32   C38   A    
C39   C42   A    
C68   H26   S    
C7    H43   S    
C12   C87   T    
C44   C47   A    
Cr3   O16   S    
C43   H13   S    
C56   C71   A    
Cr6   O19   S    
C20   O19   A    
C4    H10   S    
C63   C66   A    
C108  N12   T    
C23   O6    A    
C27   C30   A    
C3    O9    A    
C14   C17   T    
C103  N7    T    
C4    C7    S    
C83   H38   S    
C22   O24   A    
C69   H6    S    
C24   O4    A    
C81   H33   S    
C32   C71   A    
C22   O5    A    
C42   C99   S    
C32   C44   A    
C81   H36   S    
C79   H31   S    
C8    H44   S    
C9    H48   S    
C26   C77   A    
Cr4   O20   S    
C104  N8    T    
C50   C53   A    
Cr1   O10   S    
C26   H17   S    
C38   C41   A    
C34   O13   A    
C19   C48   S    
Cr2   O2    S    
C27   H18   S    
C9    H45   S    
C92   C95   S    
C65   C74   A    
C106  N10   T    
C25   C28   A    
Cr1   O7    S    
C10   C94   S    
C61   C64   A    
Cr5   O5    S    
C100  N4    T    
C14   C89   S    
C82   H37   S    
Cr5   O18   S    
C67   H25   S    
C79   C82   S    
Cr3   O12   S    
Cr2   O14   S    
C7    C88   S    
Cr1   O1    S    
C2    O8    A    
C49   C52   A    
C83   C95   S    
C67   C91   S    
C68   C89   S    
C3    O2    A    
C49   C76   A    
Cr2   O16   S    
C22   C87   S    
C1    O3    A    
C38   H20   S    
C52   C58   A    
C93   H9    S    
C37   H19   S    
C81   C90   S    
C105  N9    T    
C93   C96   S    
C64   C70   A    
Cr4   O17   S    
Cr4   O24   S    
C36   O11   A    
C4    C94   S    
Cr5   O25   S    
C19   O18   A    
C69   C90   S    
C24   O26   A    
C50   C77   A    
Cr6   O6    S    
C81   C84   S    
C7    H46   S    
C53   C56   A    
Cr4   O4    S    
C2    O1    A    
C59   C62   A    
C62   C65   A    
C5    H11   S    
C1    C17   S    
C41   C98   S    
C75   C102  S    
C47   C74   A    
C91   H1    S    
C58   H22   S    
C34   O12   A    
C91   C94   S    
C9    C90   S    
C5    C8    S    
C5    C107  S    
C51   H30   S    
C52   C55   A    
C67   H4    S    
C62   C104  S    
C29   C56   A    
C98   N2    T    
C59   H23   S    
C21   O22   A    
C49   H28   S    
C35   C78   S    
C6    C96   S    
C35   O14   A    
C21   O17   A    
C51   C54   A    
C74   C101  S    
C60   H24   S    
C8    H47   S    
C51   C78   A    
C102  N6    T    
C65   C71   A    
C15   C90   S    
C83   H41   S    
C91   H7    S    
C101  N5    T    
C5    C95   S    
C84   H39   S    
C58   C61   A    
C66   C75   A    
Cr3   O3    S    
C13   C88   S    
C1    O7    A    
C36   O15   A    
C68   C92   S    
Cr5   O21   S    
C6    H12   S    
C30   C42   A    
C57   C72   A    
C107  N11   T    
C43   C46   A    
C55   C70   A    
C50   H29   S    
C92   H2    S    
C40   C97   S    
C31   C37   A    
C20   O21   A    
C11   C95   S    
C44   H14   S    
C25   C76   A    
C69   H27   S    
C97   N1    T    
C23   C85   S    
C13   C16   T    
Cr4   O23   S    
C84   H42   S    
C29   C41   A    
C12   C96   S    
C8    C89   S    
C21   C47   S    
Cr6   O22   S    
C24   C86   S    
C46   C73   A    
C20   C46   S    
C3    C16   S    
C80   H35   S    
Cr3   O15   S    
C54   C57   A    
