data_mof_unit_42308.cif
_audit_creation_date              2012-12-10T16:50:10-0500
_audit_creation_method            fapswitch 2.2
_symmetry_space_group_name_H-M    P1
_symmetry_Int_Tables_number       1
_space_group_crystal_system       triclinic
_cell_length_a                    23.517448
_cell_length_b                    8.677229
_cell_length_c                    7.442814
_cell_angle_alpha                 102.977693
_cell_angle_beta                  94.291084
_cell_angle_gamma                 92.553455
_cell_volume                      1472.93914106

loop_
_atom_site_label
_atom_site_type_symbol
_atom_type_description
_atom_site_fract_x
_atom_site_fract_y
_atom_site_fract_z
_atom_type_partial_charge
C1    C     C_R   0.498270 0.199664 0.453197 0.890532
C2    C     C_R   0.501732 0.800336 0.546803 0.890938
C3    C     C_R   0.233899 0.489768 0.347436 0.200880
C4    C     C_R   0.756329 0.517041 0.329210 0.202495
C5    C     C_R   0.293323 0.492846 0.344358 -0.260862
C6    C     C_R   0.696969 0.514636 0.332325 -0.177954
C7    C     C_R   0.328531 0.496462 0.506627 -0.054079
C8    C     C_R   0.671408 0.501889 0.493572 -0.097973
C9    C     C_R   0.303518 0.496440 0.672205 -0.217513
C10   C     C_R   0.706002 0.491635 0.652160 -0.197842
C11   C     C_R   0.244324 0.492716 0.675221 -0.160654
C12   C     C_R   0.765062 0.492780 0.649244 -0.121502
C13   C     C_R   0.209424 0.489292 0.513521 0.392968
C14   C     C_R   0.790478 0.505156 0.488784 0.327773
C15   C     C_2   0.497450 0.031735 0.426845 -0.363222
C16   C     C_2   0.502554 0.968266 0.573154 -0.362779
C17   C     C_R   0.390993 0.499074 0.502188 0.808648
C18   C     C_R   0.608987 0.500665 0.497806 0.810516
C19   C     C_R   0.883818 0.639729 0.565662 0.533479
C20   C     C_R   0.116211 0.352467 0.445174 0.574058
C21   C     C_R   0.874934 0.364367 0.420499 0.531137
C22   C     C_R   0.125065 0.627363 0.592555 0.553193
C23   C     C_R   0.934907 0.357144 0.422415 -0.093369
C24   C     C_R   0.065115 0.633857 0.593246 -0.095414
C25   C     C_R   0.969777 0.497167 0.504040 -0.065209
C26   C     C_R   0.030251 0.493926 0.511176 -0.066523
C27   C     C_R   0.944141 0.640410 0.578633 -0.094504
C28   C     C_R   0.055889 0.350836 0.436002 -0.099993
C29   C     C_R   0.961078 0.215452 0.346004 0.168341
C30   C     C_R   0.038947 0.774906 0.672128 0.168052
C31   C     C_R   0.020474 0.212332 0.352713 0.175603
C32   C     C_R   0.979550 0.778181 0.664774 0.177256
Cu1   Cu    Cu3+1 0.506340 0.517380 0.684380 0.957204
Cu2   Cu    Cu3+1 0.493660 0.482620 0.315620 0.955484
H1    H     H_    0.311687 0.493315 0.215217 0.158892
H2    H     H_    0.671002 0.524001 0.209138 0.165640
H3    H     H_    0.329593 0.498831 0.799196 0.161154
H4    H     H_    0.687470 0.481569 0.778277 0.177843
H5    H     H_    0.225404 0.492916 0.803212 0.135321
H6    H     H_    0.791330 0.483450 0.771670 0.156289
N1    N     N_R   0.851411 0.503643 0.489122 -0.456178
N2    N     N_R   0.148590 0.489210 0.519001 -0.441810
N3    N     N_2   0.484110 0.456420 0.038520 -0.218185
N4    N     N_2   0.515890 0.543580 0.961480 -0.217441
O1    O     O_R   0.504120 0.286130 0.619770 -0.583332
O2    O     O_R   0.495880 0.713870 0.380230 -0.583444
O3    O     O_R   0.493410 0.256770 0.308360 -0.582631
O4    O     O_R   0.506590 0.743230 0.691640 -0.582363
O5    O     O_R   0.423230 0.514630 0.655730 -0.592041
O6    O     O_R   0.576770 0.485370 0.344270 -0.591832
O7    O     O_R   0.412530 0.485280 0.344320 -0.584756
O8    O     O_R   0.587470 0.514720 0.655680 -0.581768
O9    O     O_2   0.856958 0.772825 0.628103 -0.559110
O10   O     O_2   0.143107 0.219734 0.381290 -0.558907
O11   O     O_2   0.839662 0.234211 0.352428 -0.557321
O12   O     O_2   0.160271 0.757432 0.661879 -0.557080
N5    N     N_3   0.928821 0.070675 0.255788 -0.542079
H7    H     H_    0.902708 0.089404 0.143728 0.259773
H8    H     H_    0.904831 0.030268 0.350515 0.265013
N6    N     N_3   0.071205 0.918955 0.764946 -0.540719
H9    H     H_    0.094972 0.961519 0.671213 0.265105
H10   H     H_    0.097524 0.898311 0.875520 0.260956
N7    N     N_3   0.042972 0.064571 0.268947 -0.531153
H11   H     H_    0.067162 0.080178 0.161494 0.268675
H12   H     H_    0.067250 0.022466 0.368978 0.256713
N8    N     N_3   0.957032 0.925241 0.750912 -0.532033
H13   H     H_    0.932133 0.907559 0.855919 0.265376
H14   H     H_    0.933457 0.969895 0.651563 0.257171
N9    N     N_3   0.198132 0.488868 0.182916 -0.579059
H15   H     H_    0.206328 0.389212 0.082112 0.227707
H16   H     H_    0.209868 0.589782 0.136259 0.222185
N10   N     N_3   0.781182 0.532961 0.163994 -0.607011
H17   H     H_    0.809788 0.632940 0.196767 0.239293
H18   H     H_    0.804312 0.433634 0.118379 0.237584
H19   H     H_    0.492650 0.960009 0.285902 0.180304
H20   H     H_    0.507354 0.039992 0.714097 0.180508
H21   H     H_    0.454862 0.379028 0.948730 0.224297
H22   H     H_    0.545138 0.620971 0.051271 0.225290

loop_
_geom_bond_atom_site_label_1
_geom_bond_atom_site_label_2
_ccdc_geom_bond_type
C15   H19   S    
N7    H12   S    
Cu1   O1    S    
N8    H14   S    
C17   O7    A    
C18   O8    A    
C2    O2    A    
Cu1   O8    S    
Cu2   O7    S    
C6    C8    A    
C23   C29   A    
C3    N9    S    
C24   C26   A    
N5    H8    S    
Cu1   O5    S    
C15   C16   D    
N6    H10   S    
N9    H16   S    
C7    C17   S    
C30   N6    S    
C1    C15   S    
C2    C16   S    
C3    C13   A    
C19   O9    S    
N8    H13   S    
C13   N2    S    
Cu2   O6    S    
C31   N7    S    
N10   H18   S    
C17   O5    A    
C5    C7    A    
C1    O3    A    
C22   O12   S    
C20   C28   A    
C2    O4    A    
C25   C26   A    
C8    C18   S    
N6    H9    S    
C12   H6    S    
N3    N4    D    
C9    H3    S    
Cu1   Cu2   S    
C11   H5    S    
C9    C11   A    
C10   C12   A    
C14   N1    S    
Cu2   O2    S    
C20   O10   S    
C12   C14   A    
C21   C23   A    
C21   N1    A    
C4    C6    A    
N3    H21   S    
C4    N10   S    
C19   C27   A    
C18   O6    A    
C32   N8    S    
C7    C9    A    
C21   O11   S    
C27   C32   A    
C16   H20   S    
Cu1   N4    S    
C28   C31   A    
Cu2   N3    S    
C29   N5    S    
N10   H17   S    
C3    C5    A    
C20   N2    A    
C25   C27   A    
C26   C28   A    
C10   H4    S    
N4    H22   S    
C29   C31   A    
C30   C32   A    
C11   C13   A    
C1    O1    A    
N5    H7    S    
C22   N2    A    
C5    H1    S    
C6    H2    S    
C22   C24   A    
C23   C25   A    
C4    C14   A    
N9    H15   S    
C24   C30   A    
N7    H11   S    
C8    C10   A    
Cu1   O4    S    
Cu2   O3    S    
C19   N1    A    
