data_mof_unit_43958.cif
_audit_creation_date              2012-12-11T16:18:04-0500
_audit_creation_method            fapswitch 2.2
_symmetry_space_group_name_H-M    P1
_symmetry_Int_Tables_number       1
_space_group_crystal_system       triclinic
_cell_length_a                    14.048626
_cell_length_b                    14.029035
_cell_length_c                    30.097926
_cell_angle_alpha                 97.056776
_cell_angle_beta                  97.119178
_cell_angle_gamma                 61.34881
_cell_volume                      5151.76625486

loop_
_atom_site_label
_atom_site_type_symbol
_atom_type_description
_atom_site_fract_x
_atom_site_fract_y
_atom_site_fract_z
_atom_type_partial_charge
C1    C     C_R   0.385850 0.710975 0.442257 0.552932
C2    C     C_R   0.759230 0.281615 0.370955 0.128382
C3    C     C_3   0.035080 0.429104 0.735045 -0.370519
C4    C     C_3   0.575036 0.134958 0.813906 -0.292866
C5    C     C_3   0.509904 0.282614 0.952837 0.000785
C6    C     C_3   0.607794 0.216579 0.984125 -0.372372
C7    C     C_3   0.610985 0.173166 0.695085 -0.018157
C8    C     C_3   0.700025 0.057821 0.702687 -0.385602
C9    C     C_3   0.624952 0.606676 0.712361 -0.296528
C10   C     C_3   0.687751 0.547977 0.837092 -0.312373
C11   C     C_3   0.476552 0.946677 0.688546 -0.290959
C12   C     C_3   0.773171 0.566727 0.205710 -0.287343
C13   C     C_R   0.766526 0.275541 0.324154 0.114062
C14   C     C_3   0.924640 0.480473 0.321567 -0.020639
C15   C     C_3   0.940719 0.577881 0.315831 -0.381132
C16   C     C_3   0.847273 0.118986 0.411225 -0.308125
C17   C     C_R   0.398832 0.381157 0.426421 0.545497
C18   C     C_R   0.781481 0.354497 0.305775 0.040407
C19   C     C_R   0.795717 0.434949 0.333736 0.239917
C20   C     C_R   0.781093 0.445042 0.379362 -0.153518
C21   C     C_R   0.787411 0.421087 0.148034 0.105431
C22   C     C_R   0.828349 0.401322 0.105872 -0.188351
C23   C     C_R   0.885512 0.208025 0.106626 0.249375
C24   C     C_R   0.851494 0.225838 0.150225 0.130428
C25   C     C_R   0.383369 0.237039 0.223068 -0.163594
C26   C     C_R   0.805779 0.331848 0.171360 0.034968
C27   C     C_1   0.790244 0.345231 0.218392 0.042608
C28   C     C_1   0.784650 0.351279 0.258163 0.054244
C29   C     C_R   0.709258 0.405830 0.441989 0.557240
C30   C     C_R   0.883649 0.294769 0.086193 -0.039524
C31   C     C_R   0.366296 0.769105 0.401715 -0.006379
C32   C     C_R   0.457423 0.756815 0.381702 -0.141695
C33   C     C_R   0.447766 0.784803 0.337979 0.261435
C34   C     C_R   0.346534 0.822828 0.313519 0.006468
C35   C     C_R   0.253586 0.845082 0.334150 -0.154447
C36   C     C_R   0.389837 0.243489 0.269851 -0.142331
C37   C     C_R   0.261963 0.820755 0.378704 0.127408
C38   C     C_R   0.247528 0.831800 0.151242 0.149276
C39   C     C_R   0.232332 0.860162 0.106756 -0.132188
C40   C     C_R   0.389099 0.893270 0.118319 0.239730
C41   C     C_R   0.389763 0.711440 0.568287 0.537975
C42   C     C_R   0.403109 0.866983 0.162797 -0.128982
C43   C     C_R   0.331176 0.840315 0.179396 0.001964
C44   C     C_1   0.336769 0.833957 0.226672 0.000293
C45   C     C_1   0.340009 0.830353 0.266346 0.017285
C46   C     C_R   0.298199 0.897100 0.090889 -0.008935
C47   C     C_R   0.323405 0.341049 0.293612 -0.010615
C48   C     C_R   0.374079 0.365855 0.595196 -0.024126
C49   C     C_R   0.443776 0.269840 0.616504 -0.107457
C50   C     C_R   0.439417 0.264789 0.662184 0.269484
C51   C     C_R   0.359999 0.353984 0.685978 0.033763
C52   C     C_R   0.284495 0.446342 0.664150 -0.176549
C53   C     C_R   0.403304 0.383385 0.552829 0.539448
C54   C     C_R   0.291652 0.452623 0.618950 -0.150777
C55   C     C_R   0.228407 0.391127 0.830140 0.224219
C56   C     C_R   0.209298 0.378581 0.873048 0.196155
C57   C     C_R   0.405226 0.272402 0.890593 0.204206
C58   C     C_R   0.309087 0.327542 0.199751 0.038399
C59   C     C_R   0.423996 0.288194 0.847932 0.101334
C60   C     C_R   0.335100 0.345152 0.817627 -0.025712
C61   C     C_1   0.350278 0.349553 0.772009 0.048466
C62   C     C_1   0.356321 0.351914 0.732918 0.012540
C63   C     C_R   0.297421 0.309903 0.901768 -0.056077
C64   C     C_1   0.759035 0.378238 0.613138 -0.024057
C65   C     C_R   0.712807 0.407835 0.568647 0.541156
C66   C     C_R   0.781451 0.437220 0.730837 0.154754
C67   C     C_R   0.796751 0.422800 0.777305 0.189987
C68   C     C_R   0.860330 0.228337 0.760452 -0.168166
C69   C     C_1   0.300693 0.316972 0.151601 -0.023698
C70   C     C_R   0.844749 0.242700 0.714581 -0.163142
C71   C     C_R   0.806753 0.346169 0.699556 0.009283
C72   C     C_R   0.837333 0.317420 0.791849 0.024440
C73   C     C_1   0.868421 0.298448 0.838671 -0.030115
C74   C     C_1   0.785610 0.360140 0.652070 -0.065773
C75   C     C_1   0.901407 0.284576 0.877445 -0.005540
C76   C     C_1   0.375792 0.758168 0.613608 -0.020068
C77   C     C_1   0.363940 0.362918 0.381015 -0.018721
C78   C     C_R   0.347314 0.734805 0.724851 -0.158454
C79   C     C_R   0.336815 0.754066 0.771059 -0.130489
C80   C     C_1   0.341776 0.351709 0.341490 -0.066526
C81   C     C_R   0.346295 0.921752 0.769828 -0.099789
C82   C     C_R   0.358320 0.902397 0.723396 0.154738
C83   C     C_R   0.357202 0.808761 0.700770 0.054893
C84   C     C_R   0.335640 0.847811 0.793589 0.008051
C85   C     C_1   0.315777 0.873065 0.840428 -0.062507
C86   C     C_1   0.366277 0.785825 0.653017 -0.038128
C87   C     C_1   0.294133 0.902458 0.878894 -0.017227
C88   C     C_R   0.949080 0.273363 0.047717 0.550665
C89   C     C_R   0.247884 0.431431 0.270421 -0.088880
C90   C     C_R   0.275415 0.269973 0.065457 0.534561
C91   C     C_1   0.290674 0.301185 0.111582 -0.004100
C92   C     C_R   0.260698 0.954092 0.049027 0.559292
C93   C     C_R   0.951939 0.269298 0.922150 0.543780
C94   C     C_R   0.276453 0.267275 0.939888 0.569547
C95   C     C_R   0.261496 0.950897 0.922865 0.537525
C96   C     C_R   0.237850 0.424069 0.223369 0.278622
C97   C     C_3   0.777069 0.119840 0.175895 -0.300112
C98   C     C_3   0.848316 0.095155 0.055418 0.004889
C99   C     C_3   0.889920 0.977852 0.036210 -0.375748
C100  C     C_3   0.645719 0.221639 0.277676 -0.310932
C101  C     C_3   0.086520 0.798053 0.141528 -0.309343
C102  C     C_R   0.757694 0.372433 0.398071 -0.034570
C103  C     C_3   0.134339 0.931019 0.433996 -0.295735
C104  C     C_3   0.558872 0.842477 0.098116 -0.009015
C105  C     C_3   0.627546 0.882335 0.078864 -0.362766
C106  C     C_3   0.067309 0.501707 0.189303 -0.006131
C107  C     C_3   0.989094 0.590051 0.158753 -0.377972
C108  C     C_3   0.550900 0.856093 0.319339 -0.001621
C109  C     C_3   0.641260 0.835645 0.290461 -0.370634
C110  C     C_3   0.067894 0.533178 0.899878 0.022870
C111  C     C_3   0.951018 0.584085 0.912449 -0.356040
C112  C     C_3   0.103227 0.378486 0.777337 0.012040
Cr1   Cr    Cr6+3 0.581000 0.584320 0.508140 1.010568
Cr2   Cr    Cr6+3 0.339110 0.576430 0.496080 1.027708
Cr3   Cr    Cr6+3 0.579910 0.339270 0.495810 1.027645
Cr4   Cr    Cr6+3 0.082090 0.079210 0.982490 1.017993
Cr5   Cr    Cr6+3 0.082460 0.324610 0.994920 1.012943
Cr6   Cr    Cr6+3 0.323630 0.087860 0.996130 1.051654
H1    H     H_    0.197755 0.507742 0.288683 0.119106
H2    H     H_    0.892632 0.147119 0.771482 0.121172
H3    H     H_    0.829859 0.063389 0.427979 0.134849
H4    H     H_    0.884071 0.157949 0.436995 0.149231
H5    H     H_    0.905933 0.070485 0.385447 0.124264
H6    H     H_    0.862725 0.172848 0.690737 0.121063
H7    H     H_    0.347154 0.662203 0.707760 0.115867
H8    H     H_    0.327795 0.696863 0.789035 0.121271
H9    H     H_    0.344546 0.994845 0.787323 0.103715
H10   H     H_    0.448925 0.173411 0.287513 0.108835
H11   H     H_    0.820686 0.469246 0.089277 0.130628
H12   H     H_    0.782299 0.513990 0.399554 0.155430
H13   H     H_    0.939577 0.064362 0.166420 0.287661
H14   H     H_    0.757488 0.086269 0.142828 0.124269
H15   H     H_    0.165608 0.859334 0.084883 0.147846
H16   H     H_    0.705236 0.197646 0.185536 0.158954
H17   H     H_    0.795390 0.060811 0.201157 0.150979
H18   H     H_    0.828671 0.147127 0.027101 0.132062
H19   H     H_    0.772027 0.120056 0.071672 0.109785
H20   H     H_    0.903280 0.924569 0.063206 0.126700
H21   H     H_    0.829026 0.972058 0.010274 0.085904
H22   H     H_    0.967556 0.949511 0.020605 0.171446
H23   H     H_    0.796142 0.116001 0.307534 0.248472
H24   H     H_    0.644031 0.152829 0.255666 0.123591
H25   H     H_    0.612757 0.293733 0.257616 0.168853
H26   H     H_    0.175144 0.877971 0.315139 0.116452
H27   H     H_    0.592797 0.240849 0.305486 0.148890
H28   H     H_    0.212787 0.744004 0.192514 0.273245
H29   H     H_    0.038078 0.779798 0.162247 0.148654
H30   H     H_    0.117193 0.733306 0.113817 0.139851
H31   H     H_    0.031929 0.878366 0.128015 0.163754
H32   H     H_    0.101870 0.850393 0.376644 0.237864
H33   H     H_    0.063211 0.938730 0.449647 0.134683
H34   H     H_    0.111479 0.009046 0.419553 0.123631
H35   H     H_    0.201355 0.914758 0.460635 0.160355
H36   H     H_    0.554264 0.777276 0.074173 0.117192
H37   H     H_    0.538125 0.718301 0.398633 0.154670
H38   H     H_    0.600295 0.807836 0.130678 0.110761
H39   H     H_    0.634963 0.946516 0.102284 0.147697
H40   H     H_    0.710137 0.813523 0.073940 0.077971
H41   H     H_    0.589169 0.916398 0.046004 0.160492
H42   H     H_    0.026657 0.510058 0.220053 0.116088
H43   H     H_    0.085618 0.421532 0.170903 0.139617
H44   H     H_    0.031561 0.590514 0.130073 0.162072
H45   H     H_    0.920364 0.574291 0.145266 0.108316
H46   H     H_    0.956469 0.670797 0.177880 0.131761
H47   H     H_    0.572399 0.878284 0.354535 0.125845
H48   H     H_    0.466511 0.873933 0.185204 0.114996
H49   H     H_    0.474806 0.926003 0.306271 0.120486
H50   H     H_    0.620945 0.814643 0.255021 0.146336
H51   H     H_    0.651184 0.909931 0.292011 0.079456
H52   H     H_    0.718939 0.767438 0.302791 0.175971
H53   H     H_    0.070338 0.580646 0.873358 0.159664
H54   H     H_    0.119321 0.539662 0.930209 0.103642
H55   H     H_    0.946318 0.543450 0.940874 0.171068
H56   H     H_    0.921159 0.671915 0.922753 0.072927
H57   H     H_    0.898252 0.575747 0.883236 0.177968
H58   H     H_    0.051433 0.367152 0.799089 0.186642
H59   H     H_    0.222707 0.515143 0.682507 0.122458
H60   H     H_    0.170604 0.297099 0.766929 0.111600
H61   H     H_    0.084828 0.442799 0.713146 0.155520
H62   H     H_    0.006116 0.373514 0.716298 0.111401
H63   H     H_    0.963910 0.508201 0.743998 0.170992
H64   H     H_    0.585557 0.251549 0.860353 0.267190
H65   H     H_    0.579760 0.077722 0.837599 0.170473
H66   H     H_    0.658132 0.108264 0.803984 0.128579
H67   H     H_    0.522898 0.132406 0.783336 0.171031
H68   H     H_    0.438203 0.328725 0.973233 0.120907
H69   H     H_    0.526453 0.341258 0.937634 0.109586
H70   H     H_    0.236996 0.527717 0.603463 0.143063
H71   H     H_    0.681137 0.170411 0.964847 0.143532
H72   H     H_    0.622156 0.271969 0.010490 0.078134
H73   H     H_    0.593114 0.158459 0.000464 0.162127
H74   H     H_    0.604364 0.225423 0.726723 0.159418
H75   H     H_    0.636145 0.203867 0.668591 0.128663
H76   H     H_    0.712939 0.006427 0.670581 0.151079
H77   H     H_    0.777200 0.058712 0.715461 0.099464
H78   H     H_    0.676780 0.021700 0.727456 0.146647
H79   H     H_    0.776782 0.545132 0.688100 0.253146
H80   H     H_    0.601854 0.690324 0.704164 0.143616
H81   H     H_    0.507073 0.201219 0.598736 0.138772
H82   H     H_    0.591197 0.612294 0.744598 0.170086
H83   H     H_    0.589217 0.569320 0.685313 0.149235
H84   H     H_    0.786180 0.575677 0.799008 0.271356
H85   H     H_    0.622492 0.630096 0.828603 0.133522
H86   H     H_    0.716873 0.552508 0.872891 0.148687
H87   H     H_    0.652359 0.491165 0.832542 0.149205
H88   H     H_    0.329935 0.057734 0.713891 0.249329
H89   H     H_    0.529126 0.944131 0.719670 0.136775
H90   H     H_    0.474276 0.006298 0.666885 0.202161
H91   H     H_    0.512085 0.865734 0.669636 0.144463
H92   H     H_    0.436375 0.161435 0.205053 0.125335
H93   H     H_    0.688687 0.587953 0.142460 0.237187
H94   H     H_    0.780261 0.639192 0.199150 0.101617
H95   H     H_    0.855349 0.502209 0.216469 0.150779
H96   H     H_    0.719025 0.590383 0.233402 0.220516
H97   H     H_    0.968334 0.414372 0.295686 0.128191
H98   H     H_    0.961688 0.451995 0.355566 0.123932
H99   H     H_    0.899899 0.643759 0.342109 0.154076
H100  H     H_    0.028779 0.553551 0.319238 0.100273
H101  H     H_    0.906170 0.609051 0.282267 0.137085
H102  H     H_    0.702820 0.167963 0.371006 0.250087
N1    N     N_2   0.870837 0.135844 0.174222 -0.495482
N2    N     N_2   0.747408 0.200528 0.390408 -0.477197
N3    N     N_2   0.756232 0.192080 0.295224 -0.519155
N4    N     N_2   0.176417 0.802056 0.169315 -0.505774
N5    N     N_2   0.166399 0.843118 0.399085 -0.484068
N6    N     N_2   0.532180 0.244248 0.835106 -0.503579
N7    N     N_2   0.742093 0.543215 0.716013 -0.540747
N8    N     N_2   0.777722 0.512883 0.809327 -0.511522
N9    N     N_2   0.367316 0.978985 0.699558 -0.516524
N10   N     N_2   0.726063 0.530683 0.165975 -0.516800
O1    O     O_R   0.688580 0.499770 0.460490 -0.530147
O2    O     O_R   0.346150 0.177650 0.050510 -0.493121
O3    O     O_R   0.314200 0.996600 0.036060 -0.443449
O4    O     O_R   0.480400 0.672610 0.462660 -0.516695
O5    O     O_R   0.168690 0.969990 0.933130 -0.514486
O6    O     O_R   0.991920 0.175870 0.937430 -0.506319
O7    O     O_R   0.974010 0.342590 0.941330 -0.493653
O8    O     O_R   0.182630 0.317940 0.955040 -0.466239
O9    O     O_R   0.347320 0.174720 0.953250 -0.473142
O10   O     O_R   0.315290 0.993890 0.945900 -0.499256
O11   O     O_3   0.162730 0.163890 0.991180 -0.251644
O12   O     O_R   0.348600 0.476260 0.536540 -0.500813
O13   O     O_R   0.315310 0.685650 0.451800 -0.468732
O14   O     O_R   0.346220 0.474990 0.446280 -0.492478
O15   O     O_R   0.492270 0.312460 0.441630 -0.502999
O16   O     O_R   0.669740 0.350480 0.455640 -0.453892
O17   O     O_R   0.691150 0.501150 0.557860 -0.508942
O18   O     O_R   0.482790 0.673890 0.552920 -0.496115
O19   O     O_R   0.317880 0.687030 0.549170 -0.513501
O20   O     O_3   0.929074 0.103386 0.086245 -0.541385
O21   O     O_3   0.454235 0.930879 0.104088 -0.529683
O22   O     O_3   0.162129 0.513153 0.200773 -0.562639
O23   O     O_R   0.494840 0.313840 0.539010 -0.522432
O24   O     O_3   0.540279 0.760548 0.317427 -0.531022
O25   O     O_3   0.103056 0.423098 0.884372 -0.515236
O26   O     O_3   0.141914 0.448969 0.800061 -0.553366
O27   O     O_3   0.493130 0.211198 0.919366 -0.534311
O28   O     O_3   0.511355 0.171342 0.683062 -0.588499
O29   O     O_3   0.812415 0.511639 0.316043 -0.551046
O30   O     O_R   0.672120 0.351750 0.545910 -0.498200
O31   O     O_3   0.500010 0.500010 0.500010 -0.246428
O32   O     O_R   0.167510 0.972920 0.030390 -0.519710
O33   O     O_R   0.990840 0.178580 0.027590 -0.456376
O34   O     O_R   0.972840 0.345510 0.038590 -0.531303
O35   O     O_R   0.181550 0.320660 0.045200 -0.506012

loop_
_geom_bond_atom_site_label_1
_geom_bond_atom_site_label_2
_ccdc_geom_bond_type
Cr6   O9    S    
Cr2   O14   S    
C55   C56   A    
C101  H30   S    
H93   N10   S    
C111  H56   S    
C73   C75   T    
C29   O16   A    
C16   N2    S    
C19   C20   A    
Cr6   O3    S    
C12   H96   S    
C21   C26   A    
C90   O2    A    
H102  N2    S    
C81   C82   A    
C7    C8    S    
C36   H10   S    
C24   N1    S    
C109  H52   S    
C40   C46   A    
C63   C94   S    
C75   C93   S    
C26   C27   S    
C53   O23   A    
C13   C18   A    
C8    H77   S    
C111  H57   S    
C5    C6    S    
C12   H95   S    
C33   O24   S    
C35   C37   A    
Cr2   O31   S    
C24   C26   A    
C18   C19   A    
C23   O20   S    
Cr3   O30   S    
C19   O29   S    
C38   C39   A    
C57   C59   A    
C20   C102  A    
C106  C107  S    
C2    C102  A    
C106  O22   S    
Cr4   O6    S    
C98   H18   S    
C92   O3    A    
C2    N2    S    
C108  C109  S    
C6    H71   S    
C36   C47   A    
C34   C35   A    
C106  H43   S    
C38   N4    S    
C59   N6    S    
C2    C13   A    
C3    H61   S    
C110  C111  S    
C58   C96   A    
Cr3   O31   S    
C52   H59   S    
Cr5   O34   S    
C78   C83   A    
C94   O8    A    
C105  H39   S    
C89   H1    S    
C17   O14   A    
Cr6   O2    S    
C64   C65   S    
C87   C95   S    
C6    H73   S    
C29   C102  S    
C23   C24   A    
C99   H20   S    
C57   C63   A    
C70   C71   A    
C4    N6    S    
C7    H75   S    
C1    O13   A    
C10   H85   S    
C100  H27   S    
C61   C62   T    
C9    H82   S    
C103  H33   S    
C35   H26   S    
Cr3   O16   S    
C55   C60   A    
C110  H53   S    
C52   C54   A    
C37   N5    S    
C66   C67   A    
C65   O17   A    
Cr5   O7    S    
C59   C60   A    
C11   N9    S    
H32   N5    S    
C54   H70   S    
C21   C22   A    
C81   H9    S    
H88   N9    S    
C10   N8    S    
C47   C89   A    
C96   O22   S    
C99   H21   S    
C48   C53   S    
C51   C62   S    
C95   O5    A    
C5    H68   S    
C13   N3    S    
C97   N1    S    
C5    O27   S    
C104  C105  S    
C57   O27   S    
C1    O4    A    
C109  H51   S    
Cr1   O1    S    
C85   C87   T    
C93   O6    A    
C110  H54   S    
Cr1   O4    S    
C44   C45   T    
C98   H19   S    
Cr3   O23   S    
C51   C52   A    
C97   H16   S    
C67   C72   A    
C90   O35   A    
C18   C28   S    
C84   C85   S    
C12   H94   S    
H13   N1    S    
C93   O7    A    
C98   O20   S    
C40   O21   S    
C78   C79   A    
H64   N6    S    
H84   N8    S    
C50   O28   S    
C100  N3    S    
Cr1   O17   S    
Cr2   O19   S    
C4    H66   S    
C31   C37   A    
C60   C61   S    
C4    H67   S    
C66   N7    S    
C48   C54   A    
C3    H62   S    
C23   C30   A    
C66   C71   A    
C79   C84   A    
C109  H50   S    
C32   H37   S    
H28   N4    S    
C8    H78   S    
C105  H40   S    
C11   H89   S    
C107  H44   S    
C17   O15   A    
C3    C112  S    
C68   C72   A    
C65   O30   A    
C17   C77   S    
C50   C51   A    
C56   C63   A    
C14   H98   S    
C9    N7    S    
C34   C45   S    
Cr1   O31   S    
C104  H38   S    
C15   H100  S    
C8    H76   S    
C3    H63   S    
C16   H4    S    
C29   O1    A    
Cr5   O35   S    
C9    H83   S    
C103  H34   S    
H23   N3    S    
C39   C46   A    
H79   N7    S    
C101  N4    S    
C48   C49   A    
C112  H58   S    
C108  H49   S    
C107  H45   S    
Cr5   O8    S    
C82   C83   A    
C79   H8    S    
C43   C44   S    
C1    C31   S    
C49   C50   A    
C7    H74   S    
C15   H99   S    
C42   C43   A    
C5    H69   S    
C30   C88   S    
C76   C86   T    
C6    H72   S    
C81   C84   A    
C9    H80   S    
C88   O34   A    
C112  H60   S    
C25   C58   A    
C49   H81   S    
C77   C80   T    
Cr6   O10   S    
C16   H3    S    
Cr4   O11   S    
C101  H29   S    
C22   C30   A    
C108  O24   S    
C111  H55   S    
C10   H87   S    
C31   C32   A    
C47   C80   S    
C97   H14   S    
C20   H12   S    
C72   C73   S    
C100  H25   S    
C55   O26   S    
C71   C74   S    
C53   O12   A    
Cr6   O11   S    
C58   C69   S    
C12   N10   S    
Cr2   O12   S    
C103  N5    S    
Cr1   O18   S    
C39   H15   S    
C16   H5    S    
C14   O29   S    
C32   C33   A    
C89   C96   A    
C101  H31   S    
C38   C43   A    
C22   H11   S    
Cr4   O33   S    
C100  H24   S    
C11   H91   S    
C41   C76   S    
C108  H47   S    
C103  H35   S    
C90   C91   S    
C105  H41   S    
C41   O18   A    
C67   N8    S    
C106  H42   S    
C21   N10   S    
C82   N9    S    
Cr4   O5    S    
C40   C42   A    
C110  O25   S    
C33   C34   A    
C14   H97   S    
Cr2   O13   S    
C95   O10   A    
C4    H65   S    
C25   H92   S    
C99   H22   S    
C92   O32   A    
C112  O26   S    
C25   C36   A    
C70   H6    S    
C94   O9    A    
C83   C86   S    
C46   C92   S    
C107  H46   S    
C97   H17   S    
C68   C70   A    
C98   C99   S    
C11   H90   S    
C56   O25   S    
C41   O19   A    
C27   C28   T    
C104  O21   S    
C64   C74   T    
C14   C15   S    
C7    O28   S    
C104  H36   S    
C69   C91   T    
C78   H7    S    
C15   H101  S    
C68   H2    S    
Cr4   O32   S    
C42   H48   S    
C88   O33   A    
Cr5   O11   S    
Cr3   O15   S    
C10   H86   S    
