data_mof_unit_59749.cif
_audit_creation_date              2012-12-10T18:42:35-0500
_audit_creation_method            fapswitch 2.2
_symmetry_space_group_name_H-M    P1
_symmetry_Int_Tables_number       1
_space_group_crystal_system       triclinic
_cell_length_a                    8.570281
_cell_length_b                    10.666467
_cell_length_c                    9.964344
_cell_angle_alpha                 89.954875
_cell_angle_beta                  99.725322
_cell_angle_gamma                 92.460947
_cell_volume                      896.948923598

loop_
_atom_site_label
_atom_site_type_symbol
_atom_type_description
_atom_site_fract_x
_atom_site_fract_y
_atom_site_fract_z
_atom_type_partial_charge
C1    C     C_R   0.493004 0.260421 0.499210 0.961211
C2    C     C_R   0.385546 0.055635 0.564934 0.405793
C3    C     C_R   0.508716 0.872440 0.500333 -0.195641
C4    C     C_R   0.490811 0.127702 0.498834 -0.193313
C5    C     C_R   0.623794 0.551946 0.092225 -0.156355
C6    C     C_R   0.376087 0.448214 0.907787 -0.153702
C7    C     C_R   0.625134 0.554781 0.950150 0.465068
C8    C     C_R   0.374806 0.445273 0.049883 0.460588
C9    C     C_R   0.507288 0.739643 0.500715 0.962749
C10   C     C_R   0.201209 0.500465 0.463659 0.983371
C11   C     C_R   0.798720 0.498425 0.536350 0.996296
C12   C     C_2   0.035026 0.500373 0.444926 -0.272502
C13   C     C_2   0.964836 0.496831 0.555093 -0.289390
C14   C     C_R   0.601427 0.072793 0.432474 -0.245110
C15   C     C_R   0.397570 0.927405 0.566197 -0.275621
C16   C     C_R   0.612656 0.944547 0.432682 0.405306
H1    H     H_    0.970838 0.504039 0.341346 0.218470
H2    H     H_    0.130479 0.252173 0.250071 0.390187
H3    H     H_    0.029005 0.493085 0.658676 0.216044
H4    H     H_    0.681117 0.130975 0.382605 0.208531
H5    H     H_    0.317798 0.869373 0.616162 0.198138
H6    H     H_    0.722800 0.590837 0.163732 0.241500
H7    H     H_    0.276910 0.409553 0.836299 0.246096
H8    H     H_    0.917354 0.808485 0.521673 0.362857
H9    H     H_    0.363739 0.095678 0.848906 0.372750
H10   H     H_    0.869213 0.756653 0.757749 0.372876
N1    N     N_R   0.499960 0.499970 0.857200 -0.177116
N2    N     N_R   0.500040 0.500030 0.142800 -0.177722
O1    O     O_R   0.499990 0.316750 0.614620 -0.574564
O2    O     O_2   0.881475 0.979869 0.327394 -0.246524
O3    O     O_3   0.849192 0.765218 0.443820 -0.574692
O4    O     O_2   0.164285 0.227451 0.563234 -0.298098
O5    O     O_2   0.108649 0.022284 0.657801 -0.281024
O6    O     O_3   0.320191 0.171120 0.800834 -0.503953
O7    O     O_2   0.886398 0.704609 0.023984 -0.228882
O8    O     O_2   0.906849 0.527166 0.876177 -0.269483
O9    O     O_3   0.763477 0.724152 0.772514 -0.528358
O10   O     O_2   0.093401 0.473647 0.123841 -0.271496
O11   O     O_2   0.112887 0.295824 0.976379 -0.224778
O12   O     O_R   0.500010 0.683250 0.385380 -0.569961
O13   O     O_3   0.236040 0.276276 0.227802 -0.515516
O14   O     O_R   0.499990 0.316780 0.385290 -0.582606
O15   O     O_R   0.500010 0.683220 0.614710 -0.582611
O16   O     O_R   0.271750 0.499990 0.587840 -0.630741
O17   O     O_R   0.728250 0.500010 0.412160 -0.622705
O18   O     O_R   0.271750 0.500010 0.358510 -0.551042
O19   O     O_R   0.728250 0.499990 0.641490 -0.549353
O20   O     O_2   0.680454 0.828361 0.214382 -0.232338
S1    S     S_3+6 0.758990 0.880460 0.350172 0.079924
S2    S     S_3+6 0.237024 0.119877 0.644697 0.069500
S3    S     S_3+6 0.799926 0.627646 0.905880 0.094763
S4    S     S_3+6 0.199836 0.372738 0.094288 0.096114
Zn1   Zn    Zn3+2 0.500000 0.499980 0.653120 1.081025
Zn2   Zn    Zn3+2 0.500000 0.500020 0.346880 1.086039

loop_
_geom_bond_atom_site_label_1
_geom_bond_atom_site_label_2
_ccdc_geom_bond_type
C12   H1    S    
C10   O18   A    
C2    C4    A    
N1    Zn1   S    
H10   O9    S    
C3    C9    S    
C5    N2    A    
C9    O15   A    
C8    S4    S    
O13   S4    S    
C11   O19   A    
C6    N1    A    
C7    N1    A    
H9    O6    S    
O19   Zn1   S    
C1    C4    S    
O18   Zn2   S    
C1    O1    A    
O11   S4    D    
H8    O3    S    
C7    S3    S    
C5    H6    S    
O14   Zn2   S    
C4    C14   A    
C2    C15   A    
C11   C13   S    
O4    S2    D    
O8    S3    D    
O1    Zn1   S    
O3    S1    S    
O9    S3    S    
C6    H7    S    
C10   C12   S    
O20   S1    D    
O2    S1    D    
O17   Zn2   S    
O12   Zn2   S    
O7    S3    D    
C8    N2    A    
C14   C16   A    
O6    S2    S    
C11   O17   A    
C13   H3    S    
C10   O16   A    
C14   H4    S    
C1    O14   A    
C15   H5    S    
O10   S4    D    
C16   S1    S    
H2    O13   S    
C5    C7    A    
N2    Zn2   S    
C3    C15   A    
C6    C8    A    
C2    S2    S    
C12   C13   D    
O5    S2    D    
O16   Zn1   S    
O15   Zn1   S    
C9    O12   A    
C3    C16   A    
