data_mof_unit_42780.cif
_audit_creation_date              2012-12-11T14:49:22-0500
_audit_creation_method            fapswitch 2.2
_symmetry_space_group_name_H-M    P1
_symmetry_Int_Tables_number       1
_space_group_crystal_system       triclinic
_cell_length_a                    16.911541
_cell_length_b                    16.733171
_cell_length_c                    19.400516
_cell_angle_alpha                 117.726093
_cell_angle_beta                  62.370876
_cell_angle_gamma                 100.800641
_cell_volume                      4302.69941152

loop_
_atom_site_label
_atom_site_type_symbol
_atom_type_description
_atom_site_fract_x
_atom_site_fract_y
_atom_site_fract_z
_atom_type_partial_charge
C1    C     C_R   0.023813 0.761617 0.028649 -0.124059
C2    C     C_R   0.236879 0.579509 0.835021 -0.095104
C3    C     C_R   0.192982 0.436957 0.037625 -0.138711
C4    C     C_R   0.748622 0.479626 0.171796 -0.124678
C5    C     C_R   0.048529 0.326969 0.751613 -0.055046
C6    C     C_R   0.274997 0.448794 0.978107 0.116749
C7    C     C_R   0.042893 0.240730 0.746628 0.113131
C8    C     C_R   0.234398 0.559699 0.758361 0.082639
C9    C     C_R   0.984271 0.232835 0.046654 0.067801
C10   C     C_R   0.064993 0.073867 0.673675 -0.328604
C11   C     C_R   0.089818 0.157227 0.669959 -0.070837
C12   C     C_R   0.741932 0.541019 0.253344 0.070804
C13   C     C_R   0.150319 0.158256 0.590151 0.670119
C14   C     C_R   0.167056 0.079504 0.513518 -0.063274
C15   C     C_R   0.128700 0.998609 0.517911 -0.047371
C16   C     C_R   0.818295 0.506211 0.909103 0.742983
C17   C     C_R   0.082778 0.994592 0.598101 0.147232
C18   C     C_R   0.213304 0.082170 0.432974 -0.101158
C19   C     C_R   0.211992 0.008786 0.359067 -0.241615
C20   C     C_R   0.165549 0.931802 0.364918 0.150778
C21   C     C_R   0.128394 0.924535 0.443467 0.078408
C22   C     C_R   0.082712 0.846895 0.449786 0.132975
C23   C     C_R   0.745433 0.452658 0.928714 -0.053270
C24   C     C_R   0.046164 0.839833 0.527921 -0.207388
C25   C     C_R   0.046165 0.913584 0.601980 -0.168277
C26   C     C_R   0.148607 0.865871 0.296170 -0.262484
C27   C     C_R   0.093887 0.793934 0.305964 0.111218
C28   C     C_R   0.011067 0.659188 0.241117 -0.147241
C29   C     C_R   0.066749 0.781590 0.380591 -0.262362
C30   C     C_R   0.367663 0.644869 0.703980 -0.234628
C31   C     C_R   0.294086 0.593989 0.694539 0.104317
C32   C     C_R   0.282568 0.569237 0.619989 -0.232043
C33   C     C_R   0.349569 0.583879 0.550714 0.134940
C34   C     C_R   0.058937 0.735994 0.242333 0.086991
C35   C     C_R   0.428070 0.625525 0.556994 0.028446
C36   C     C_R   0.435322 0.659875 0.635274 0.134721
C37   C     C_R   0.342880 0.550040 0.472623 -0.188772
C38   C     C_R   0.416888 0.549246 0.398824 -0.201810
C39   C     C_R   0.498032 0.582061 0.402697 0.140817
C40   C     C_R   0.752440 0.426949 0.984165 -0.286273
C41   C     C_R   0.502501 0.624579 0.482798 0.030687
C42   C     C_R   0.583874 0.657748 0.487216 0.137101
C43   C     C_R   0.587730 0.700110 0.567134 -0.195083
C44   C     C_R   0.513645 0.701146 0.640974 -0.187841
C45   C     C_R   0.261638 0.515579 0.960458 -0.086166
C46   C     C_R   0.576518 0.564412 0.327077 -0.252196
C47   C     C_R   0.659308 0.585348 0.330804 0.114579
C48   C     C_R   0.661747 0.639353 0.410934 -0.248286
C49   C     C_R   0.676723 0.420985 0.895412 -0.057059
C50   C     C_R   0.359904 0.404302 0.946656 -0.072853
C51   C     C_R   0.448186 0.343906 0.981452 -0.177635
C52   C     C_R   0.078472 0.738483 0.165558 -0.141375
C53   C     C_R   0.365762 0.361650 0.991850 -0.253203
C54   C     C_R   0.437917 0.414238 0.879823 0.709873
C55   C     C_R   0.520983 0.402106 0.873299 -0.110607
C56   C     C_R   0.980642 0.247702 0.827879 -0.135436
C57   C     C_R   0.524991 0.371366 0.928012 0.116165
C58   C     C_R   0.603016 0.378546 0.936670 -0.298178
C59   C     C_R   0.676638 0.439225 0.831220 0.787817
C60   C     C_R   0.598985 0.429133 0.820117 -0.319916
C61   C     C_R   0.801845 0.187251 0.191467 0.113898
C62   C     C_R   0.927337 0.865734 0.030405 0.127514
C63   C     C_R   0.846017 0.955604 0.012993 -0.221657
C64   C     C_R   0.827654 0.549267 0.248527 -0.129769
C65   C     C_R   0.886477 0.873792 0.985023 -0.165873
C66   C     C_R   0.928458 0.942098 0.103760 -0.271017
C67   C     C_R   0.158217 0.511140 0.759117 -0.095191
C68   C     C_R   0.887543 0.024427 0.132541 0.183580
C69   C     C_R   0.845327 0.030997 0.087099 0.186255
C70   C     C_R   0.802496 0.112700 0.117174 -0.276903
C71   C     C_R   0.844102 0.181127 0.235988 -0.155348
C72   C     C_R   0.886872 0.100115 0.206824 -0.221280
C73   C     C_R   0.944631 0.692281 0.952024 -0.131351
C74   C     C_R   0.965189 0.777118 0.003487 0.037670
C75   C     C_R   0.024200 0.313632 0.077521 -0.129010
C76   C     C_R   0.946140 0.245457 0.002558 -0.128074
F1    F     F_    0.187747 0.235876 0.585619 -0.732501
F2    F     F_    0.850634 0.531487 0.844362 -0.667474
F3    F     F_    0.749158 0.468577 0.780177 -0.638303
F4    F     F_    0.433623 0.443233 0.826818 -0.724880
H1    H     H_    0.054945 0.811636 0.067705 0.095738
H2    H     H_    0.244834 0.143042 0.427832 0.182609
H3    H     H_    0.695941 0.457518 0.151092 0.100895
H4    H     H_    0.242518 0.014446 0.298611 0.133910
H5    H     H_    0.172870 0.874672 0.237907 0.120279
H6    H     H_    0.026795 0.725361 0.388693 0.120531
H7    H     H_    0.012313 0.779695 0.533056 0.135237
H8    H     H_    0.012051 0.909308 0.663150 0.128716
H9    H     H_    0.376535 0.667103 0.761850 0.123405
H10   H     H_    0.225134 0.532411 0.612410 0.129693
H11   H     H_    0.282354 0.519193 0.467366 0.136826
H12   H     H_    0.958323 0.194089 0.847652 0.099246
H13   H     H_    0.412315 0.517614 0.337794 0.131375
H14   H     H_    0.572944 0.526987 0.265799 0.118733
H15   H     H_    0.724574 0.660174 0.414946 0.119716
H16   H     H_    0.649563 0.727069 0.571535 0.134192
H17   H     H_    0.519473 0.729080 0.701191 0.135778
H18   H     H_    0.601016 0.360018 0.983794 0.145987
H19   H     H_    0.450959 0.317606 0.021920 0.130448
H20   H     H_    0.598471 0.449070 0.774587 0.221598
H21   H     H_    0.307417 0.348701 0.040841 0.145973
H22   H     H_    0.769554 0.119051 0.083503 0.122629
H23   H     H_    0.127616 0.496519 0.716678 0.107503
H24   H     H_    0.996784 0.627262 0.282666 0.090043
H25   H     H_    0.843419 0.239324 0.293327 0.130900
H26   H     H_    0.814537 0.959646 0.977094 0.130772
H27   H     H_    0.918899 0.096488 0.242468 0.133767
H28   H     H_    0.885479 0.816811 0.927730 0.133880
H29   H     H_    0.958868 0.937210 0.140065 0.122695
H30   H     H_    0.717451 0.373936 0.002448 0.140931
H31   H     H_    0.125570 0.781159 0.138578 0.087160
H32   H     H_    0.847904 0.591705 0.299241 0.098201
H33   H     H_    0.900911 0.678465 0.921601 0.165910
H34   H     H_    0.049674 0.331850 0.124536 0.092788
H35   H     H_    0.310425 0.544730 0.919148 0.168382
H36   H     H_    0.899557 0.200585 0.980029 0.090452
H37   H     H_    0.278566 0.627539 0.862536 0.084647
H38   H     H_    0.178396 0.391473 0.066564 0.096823
H39   H     H_    0.088264 0.348615 0.701617 0.179170
H40   H     H_    0.024080 0.070522 0.734598 0.148900
N1    N     N_R   0.036080 0.671900 0.995420 -0.046028
N2    N     N_R   0.867430 0.509300 0.948100 -0.117771
N3    N     N_R   0.003360 0.617250 0.167070 -0.039074
N4    N     N_R   0.825450 0.461270 0.995400 -0.073470
N5    N     N_R   0.045340 0.665280 0.119770 -0.039828
N6    N     N_R   0.883740 0.497640 0.167070 -0.042298
N7    N     N_R   0.987050 0.628910 0.948110 -0.042630
N8    N     N_R   0.174550 0.538730 0.004600 -0.058023
N9    N     N_R   0.954660 0.334720 0.880230 -0.046972
N10   N     N_R   0.116260 0.502360 0.832930 -0.047122
N11   N     N_R   0.012950 0.371090 0.051890 -0.039002
N12   N     N_R   0.963920 0.328100 0.004580 -0.038171
N13   N     N_R   0.165290 0.545350 0.880240 -0.047013
N14   N     N_R   0.132570 0.490700 0.051900 -0.043401
N15   N     N_R   0.996640 0.382750 0.832930 -0.059560
N16   N     N_R   0.834710 0.454650 0.119760 -0.038220
Ni1   Ni    Ni4+2 0.104370 0.604370 0.000010 0.208410
Ni2   Ni    Ni4+2 0.895630 0.395630 0.999990 0.206479
Ni3   Ni    Ni4+2 0.991920 0.505780 0.891500 0.273848
Ni4   Ni    Ni4+2 0.008080 0.494220 0.108500 0.212675

loop_
_geom_bond_atom_site_label_1
_geom_bond_atom_site_label_2
_ccdc_geom_bond_type
C61   C70   A    
C66   C68   A    
C63   C65   A    
N13   Ni1   S    
C48   H15   S    
C27   C29   A    
C11   C13   A    
C41   C42   A    
C14   C18   A    
C35   C36   A    
C58   H18   S    
N8    Ni1   S    
C3    C6    A    
C28   N3    A    
C67   H23   S    
C39   C41   A    
N15   Ni3   S    
N6    Ni4   S    
C26   C27   A    
C50   C54   A    
C5    H39   S    
C1    C74   A    
N4    Ni2   S    
C22   C29   A    
N2    Ni3   S    
N1    N7    A    
C30   H9    S    
N14   Ni4   S    
C30   C31   A    
C12   C64   A    
C23   C49   S    
C10   C17   A    
C1    H1    S    
C23   C40   A    
C73   H33   S    
C5    N15   A    
C18   C19   A    
C73   C74   A    
N1    Ni1   S    
C16   N2    A    
N11   Ni4   S    
C76   H36   S    
N9    N15   A    
C32   H10   S    
N9    Ni2   S    
C63   C69   A    
C53   H21   S    
C68   C69   A    
C51   C57   A    
C9    C76   A    
C13   C14   A    
C4    C12   A    
C65   H28   S    
C56   N9    A    
C4    N16   A    
C61   C71   A    
C28   C34   A    
C59   C60   A    
C21   C22   A    
N7    Ni3   S    
C7    C56   A    
C12   C47   S    
N10   Ni3   S    
C2    H37   S    
C75   N11   A    
C54   F4    S    
C27   C34   S    
C51   H19   S    
C40   N4    A    
C13   F1    S    
C2    N13   A    
C62   C66   A    
C6    C45   A    
C50   C53   A    
C10   H40   S    
C24   C25   A    
N16   Ni2   S    
C59   F3    S    
C5    C7    A    
C37   H11   S    
C40   H30   S    
C52   H31   S    
N5    Ni1   S    
C73   N7    A    
N3    Ni4   S    
C25   H8    S    
C33   C37   A    
C49   C58   A    
C51   C53   A    
C7    C11   S    
C43   C44   A    
C37   C38   A    
C3    H38   S    
N8    N14   A    
C44   H17   S    
C28   H24   S    
C47   C48   A    
C46   H14   S    
C72   H27   S    
C15   C21   A    
C68   C72   A    
C43   H16   S    
C75   H34   S    
C42   C48   A    
C6    C50   S    
C63   H26   S    
C29   H6    S    
C39   C46   A    
C16   C23   A    
C64   N6    A    
C55   C57   A    
C22   C24   A    
C36   C44   A    
C67   N10   A    
C42   C43   A    
N2    N4    A    
N11   N12   A    
C15   C17   A    
C54   C55   A    
C62   C65   A    
C8    C31   S    
C31   C32   A    
C2    C8    A    
C45   H35   S    
C60   H20   S    
C52   N5    A    
C70   H22   S    
C9    C75   A    
C34   C52   A    
C49   C59   A    
C30   C36   A    
C3    N14   A    
C17   C25   A    
C32   C33   A    
C19   C20   A    
C71   H25   S    
C71   C72   A    
C76   N12   A    
C33   C35   A    
C57   C58   A    
C38   C39   A    
C4    H3    S    
C20   C26   A    
C26   H5    S    
C38   H13   S    
C18   H2    S    
C16   F2    S    
C66   H29   S    
C69   C70   A    
C35   C41   A    
C24   H7    S    
C1    N1    A    
C46   C47   A    
N3    N5    A    
C10   C11   A    
N6    N16   A    
N10   N13   A    
C56   H12   S    
C20   C21   A    
C8    C67   A    
C14   C15   A    
C62   C74   S    
C45   N8    A    
C55   C60   A    
N12   Ni2   S    
C19   H4    S    
C64   H32   S    
