data_mof_unit_41610.cif
_audit_creation_date              2012-12-10T16:43:00-0500
_audit_creation_method            fapswitch 2.2
_symmetry_space_group_name_H-M    P1
_symmetry_Int_Tables_number       1
_space_group_crystal_system       triclinic
_cell_length_a                    7.454457
_cell_length_b                    8.785634
_cell_length_c                    12.964095
_cell_angle_alpha                 87.800016
_cell_angle_beta                  79.225038
_cell_angle_gamma                 102.756119
_cell_volume                      810.67364173

loop_
_atom_site_label
_atom_site_type_symbol
_atom_type_description
_atom_site_fract_x
_atom_site_fract_y
_atom_site_fract_z
_atom_type_partial_charge
C1    C     C_R   0.453755 0.200596 0.501788 0.813934
C2    C     C_R   0.546246 0.799404 0.498208 0.813987
C3    C     C_R   0.466301 0.494928 0.701380 0.833534
C4    C     C_R   0.533700 0.505073 0.298619 0.833537
C5    C     C_R   0.553466 0.512264 0.184992 -0.152300
C6    C     C_R   0.446534 0.487741 0.815007 -0.152289
C7    C     C_R   0.249878 0.423819 0.989436 0.541328
C8    C     C_R   0.750122 0.576194 0.010563 0.541309
C9    C     C_R   0.268887 0.435217 0.880256 -0.224356
C10   C     C_R   0.731114 0.564790 0.119744 -0.224341
C11   C     C_R   0.605965 0.532629 0.858271 -0.216204
C12   C     C_R   0.394035 0.467381 0.141729 -0.216170
C13   C     C_R   0.589857 0.527090 0.966928 -0.020875
C14   C     C_R   0.410143 0.472925 0.033071 -0.020858
C15   C     C_2   0.430832 0.035720 0.493175 -0.373447
C16   C     C_2   0.569176 0.964283 0.506811 -0.373414
Cu1   Cu    Cu3+1 0.686350 0.517570 0.488220 1.016663
Cu2   Cu    Cu3+1 0.313650 0.482430 0.511780 1.016666
H1    H     H_    0.257540 0.425974 0.193041 0.212704
H2    H     H_    0.742460 0.574035 0.806959 0.212700
H3    H     H_    0.855536 0.598168 0.153154 0.190116
H4    H     H_    0.144465 0.401837 0.846845 0.190100
H5    H     H_    0.934040 0.380671 0.585426 0.251166
H6    H     H_    0.065960 0.619330 0.414575 0.251181
N1    N     N_2   0.033570 0.455950 0.529530 -0.186187
N2    N     N_2   0.966430 0.544050 0.470470 -0.186185
O1    O     O_R   0.621060 0.286250 0.492350 -0.584860
O2    O     O_R   0.378940 0.713750 0.507650 -0.584853
O3    O     O_R   0.306310 0.256580 0.512240 -0.546045
O4    O     O_R   0.693690 0.743420 0.487760 -0.546033
O5    O     O_R   0.631800 0.512400 0.642670 -0.589128
O6    O     O_R   0.368200 0.487600 0.357330 -0.589117
O7    O     O_R   0.317060 0.482730 0.662570 -0.589324
O8    O     O_R   0.682940 0.517270 0.337430 -0.589323
O9    O     O_3   0.073568 0.375633 0.053550 -0.568293
C17   C     C_3   0.011820 0.212001 0.053037 -0.345210
H7    H     H_    0.113320 0.149661 0.078251 0.162038
H8    H     H_    0.985793 0.178540 0.974334 0.161771
H9    H     H_    0.876750 0.172782 0.110259 0.201123
O10   O     O_3   0.926435 0.624381 0.946452 -0.568288
C18   C     C_3   0.988148 0.788021 0.946934 -0.345228
H10   H     H_    0.014091 0.821530 0.025642 0.161753
H11   H     H_    0.886651 0.850318 0.921670 0.162067
H12   H     H_    0.123261 0.827232 0.889743 0.201129
C19   C     C_2   0.253084 0.954912 0.462679 0.987007
O11   O     O_2   0.245304 0.949866 0.369627 -0.587467
O12   O     O_R   0.094484 0.885905 0.539412 -0.688648
H13   H     H_    0.117154 0.898139 0.613652 0.300882
C20   C     C_2   0.746941 0.045095 0.537283 0.987026
O13   O     O_2   0.754779 0.050090 0.630328 -0.587483
O14   O     O_R   0.905494 0.114150 0.460530 -0.688650
H14   H     H_    0.882740 0.101981 0.386302 0.300853

loop_
_geom_bond_atom_site_label_1
_geom_bond_atom_site_label_2
_ccdc_geom_bond_type
C8    C13   A    
C1    C15   S    
C2    C16   S    
C7    C14   A    
C11   C13   A    
C18   H10   S    
O9    C17   S    
C2    O4    A    
C3    C6    S    
C6    C9    A    
C1    O3    A    
Cu1   Cu2   S    
C5    C10   A    
Cu2   O3    S    
C13   C14   A    
C3    O5    A    
Cu1   O4    S    
C18   H11   S    
C4    O6    A    
Cu2   N1    S    
Cu1   N2    S    
C12   H1    S    
C17   H8    S    
O10   C18   S    
Cu2   O7    S    
C12   C14   A    
C19   O12   S    
C10   H3    S    
Cu1   O5    S    
C18   H12   S    
C4    O8    A    
C11   H2    S    
Cu2   O6    S    
Cu1   O8    S    
C15   C19   S    
C15   C16   D    
Cu1   O1    S    
O12   H13   S    
C7    C9    A    
H5    N1    S    
Cu2   O2    S    
C16   C20   S    
C5    C12   A    
C8    C10   A    
C20   O13   D    
C6    C11   A    
C1    O1    A    
C3    O7    A    
C9    H4    S    
C17   H7    S    
C2    O2    A    
C8    O10   S    
N1    N2    D    
C19   O11   D    
C7    O9    S    
C17   H9    S    
O14   H14   S    
H6    N2    S    
C4    C5    S    
C20   O14   S    
