data_mof_unit_41794.cif
_audit_creation_date              2012-12-10T20:40:02-0500
_audit_creation_method            fapswitch 2.2
_symmetry_space_group_name_H-M    P1
_symmetry_Int_Tables_number       1
_space_group_crystal_system       triclinic
_cell_length_a                    23.423616
_cell_length_b                    10.650845
_cell_length_c                    9.863444
_cell_angle_alpha                 90.432097
_cell_angle_beta                  89.355422
_cell_angle_gamma                 90.136383
_cell_volume                      2460.51269132

loop_
_atom_site_label
_atom_site_type_symbol
_atom_type_description
_atom_site_fract_x
_atom_site_fract_y
_atom_site_fract_z
_atom_type_partial_charge
C1    C     C_R   0.502340 0.260021 0.499682 0.860936
C2    C     C_R   0.120317 0.633042 0.519603 0.521877
C3    C     C_R   0.242458 0.601136 0.414745 -0.096188
C4    C     C_R   0.389634 0.500377 0.500452 0.886830
C5    C     C_R   0.301523 0.594237 0.417928 -0.324506
C6    C     C_R   0.327956 0.505409 0.500034 -0.148275
C7    C     C_R   0.295019 0.421251 0.577867 0.424235
C8    C     C_R   0.235980 0.433648 0.579972 -0.196552
C9    C     C_R   0.209508 0.521377 0.496309 0.218247
C10   C     C_R   0.761844 0.480121 0.375208 0.158487
C11   C     C_R   0.702774 0.474759 0.378365 -0.243954
C12   C     C_R   0.971219 0.298703 0.438223 -0.239179
C13   C     C_R   0.672814 0.504963 0.497392 -0.115221
C14   C     C_R   0.702181 0.542453 0.613782 -0.361392
C15   C     C_R   0.762275 0.548359 0.613084 0.540809
C16   C     C_R   0.501800 0.740097 0.500210 0.877657
C17   C     C_R   0.791583 0.516594 0.492199 0.177972
C18   C     C_R   0.515850 0.064947 0.621914 0.153887
C19   C     C_R   0.512205 0.128801 0.499460 -0.110241
C20   C     C_R   0.520109 0.064015 0.376539 -0.220743
C21   C     C_R   0.519919 0.934395 0.376805 -0.218171
C22   C     C_R   0.511649 0.871400 0.499986 -0.114733
C23   C     C_R   0.030530 0.300623 0.424630 0.491595
C24   C     C_R   0.515304 0.936949 0.622077 0.129336
C25   C     C_3   0.478780 0.930939 0.747138 -0.462551
C26   C     C_3   0.479804 0.073337 0.747831 -0.506662
C27   C     C_R   0.457888 0.439151 0.072190 0.143998
C28   C     C_R   0.610644 0.500791 0.499235 0.913182
C29   C     C_R   0.544114 0.550509 0.071195 -0.123286
C30   C     C_R   0.544164 0.550383 0.927258 -0.110469
C31   C     C_R   0.457549 0.440207 0.929605 0.140841
C32   C     C_3   0.395221 0.470369 0.927934 0.274095
C33   C     C_3   0.395822 0.467584 0.082126 -0.577672
C34   C     C_R   0.060902 0.412791 0.453221 -0.119200
C35   C     C_R   0.880429 0.631450 0.502865 0.611952
C36   C     C_R   0.881641 0.408396 0.477153 0.591325
C37   C     C_R   0.941115 0.408986 0.467114 -0.081863
C38   C     C_R   0.970683 0.522894 0.485712 -0.022228
C39   C     C_R   0.940060 0.634699 0.507203 -0.059889
C40   C     C_3   0.768099 0.587312 0.850012 0.108440
C41   C     C_3   0.741374 0.714832 0.886143 -0.340934
C42   C     C_3   0.709210 0.709743 0.021388 -0.932975
C43   C     C_3   0.054624 0.166381 0.253136 0.122129
C44   C     C_3   0.089698 0.049816 0.216743 -0.289627
C45   C     C_R   0.030770 0.524580 0.484498 -0.107941
C46   C     C_3   0.088305 0.021824 0.064805 -0.923485
C47   C     C_3   0.326869 0.618476 0.877951 0.111844
C48   C     C_3   0.316678 0.738089 0.797558 -0.377920
C49   C     C_3   0.253362 0.770932 0.794109 -0.860711
C50   C     C_3   0.338287 0.229331 0.555292 0.083961
C51   C     C_3   0.318822 0.100329 0.604757 -0.322923
C52   C     C_3   0.341292 0.996138 0.511376 -0.969611
C53   C     C_R   0.060359 0.637517 0.515498 -0.055185
C54   C     C_R   0.028593 0.748852 0.542612 0.199753
C55   C     C_R   0.969269 0.746505 0.534207 -0.191977
C56   C     C_R   0.120595 0.416773 0.452012 0.538231
H1    H     H_    0.948898 0.210577 0.422962 0.209507
H2    H     H_    0.578982 0.594193 0.124968 0.145181
H3    H     H_    0.579154 0.593897 0.872542 0.139335
H4    H     H_    0.370107 0.393760 0.879279 0.122945
H5    H     H_    0.387365 0.560034 0.131447 0.232383
H6    H     H_    0.371022 0.387883 0.125090 0.172035
H7    H     H_    0.945830 0.832540 0.553174 0.211582
H8    H     H_    0.222249 0.667811 0.348365 0.162439
H9    H     H_    0.326667 0.657868 0.356071 0.169715
H10   H     H_    0.210428 0.370704 0.641624 0.174214
H11   H     H_    0.802042 0.569401 0.924731 0.205567
H12   H     H_    0.680359 0.446487 0.287596 0.187086
H13   H     H_    0.737570 0.507632 0.861009 0.136564
H14   H     H_    0.775663 0.786878 0.892776 0.252958
H15   H     H_    0.711506 0.744768 0.806143 0.221145
H16   H     H_    0.675419 0.636558 0.017894 0.248731
H17   H     H_    0.688858 0.801953 0.042676 0.270459
H18   H     H_    0.739040 0.688527 0.104797 0.294115
H19   H     H_    0.071815 0.247433 0.194256 0.143317
H20   H     H_    0.009425 0.148964 0.224268 0.131491
H21   H     H_    0.134711 0.064600 0.247797 0.255766
H22   H     H_    0.072318 0.967592 0.272458 0.241603
H23   H     H_    0.677531 0.569182 0.702456 0.161548
H24   H     H_    0.043750 0.004620 0.031870 0.279220
H25   H     H_    0.114051 0.936676 0.041988 0.272129
H26   H     H_    0.106551 0.101767 0.006887 0.273004
H27   H     H_    0.311587 0.633334 0.984099 0.134313
H28   H     H_    0.301767 0.541007 0.830894 0.149495
H29   H     H_    0.340579 0.817338 0.844245 0.223581
H30   H     H_    0.332785 0.724201 0.692191 0.232330
H31   H     H_    0.228725 0.692368 0.748623 0.290536
H32   H     H_    0.247139 0.856217 0.732001 0.286826
H33   H     H_    0.236931 0.789809 0.898338 0.251322
H34   H     H_    0.522055 0.112200 0.280250 0.175750
H35   H     H_    0.385588 0.231784 0.551020 0.142644
H36   H     H_    0.322556 0.241252 0.449429 0.135928
H37   H     H_    0.334366 0.084535 0.709266 0.217666
H38   H     H_    0.271387 0.096815 0.607121 0.248024
H39   H     H_    0.325963 0.009867 0.406381 0.273093
H40   H     H_    0.325640 0.903845 0.547479 0.270612
H41   H     H_    0.388699 0.995423 0.510593 0.267754
H42   H     H_    0.521864 0.884818 0.280552 0.177194
H43   H     H_    0.435754 0.890723 0.727700 0.211919
H44   H     H_    0.501743 0.889287 0.833913 0.214206
H45   H     H_    0.437387 0.116134 0.730384 0.207786
H46   H     H_    0.503685 0.113943 0.834570 0.208627
I1    I     I_    0.062307 0.927471 0.600947 -0.260068
I2    I     I_    0.803837 0.433427 0.190097 -0.394923
N1    N     N_R   0.852579 0.519079 0.489858 -0.334989
N2    N     N_R   0.148599 0.524177 0.488744 -0.349796
N3    N     N_R   0.499610 0.499140 0.142800 -0.090756
N4    N     N_R   0.499610 0.499180 0.857150 -0.082473
O1    O     O_R   0.500010 0.316790 0.614690 -0.622180
O2    O     O_R   0.583850 0.500060 0.614640 -0.630188
O3    O     O_R   0.583840 0.500020 0.385300 -0.628360
O4    O     O_2   0.850402 0.739261 0.512312 -0.527959
O5    O     O_3   0.795152 0.591589 0.721384 -0.629553
O6    O     O_3   0.058638 0.189750 0.393923 -0.572710
O7    O     O_3   0.385896 0.591920 0.876192 -0.585916
O8    O     O_3   0.319301 0.323220 0.647991 -0.671124
O9    O     O_2   0.852882 0.298417 0.473296 -0.526665
O10   O     O_2   0.150941 0.314445 0.414403 -0.526006
O11   O     O_2   0.150672 0.735307 0.555027 -0.546875
O12   O     O_R   0.500000 0.316760 0.385350 -0.621732
O13   O     O_R   0.416160 0.499980 0.614700 -0.561199
O14   O     O_R   0.416150 0.499940 0.385360 -0.627106
O15   O     O_R   0.500000 0.683240 0.614650 -0.603255
O16   O     O_R   0.499990 0.683210 0.385310 -0.623740
Zn1   Zn    Zn3+2 0.500000 0.500020 0.653130 0.983458
Zn2   Zn    Zn3+2 0.500000 0.499980 0.346870 0.945117

loop_
_geom_bond_atom_site_label_1
_geom_bond_atom_site_label_2
_ccdc_geom_bond_type
C34   C56   A    
C31   N4    A    
C49   H31   S    
C19   C20   A    
C18   C26   S    
C7    C8    A    
C53   C54   A    
C27   C33   S    
C47   O7    S    
C12   C23   A    
C29   C30   A    
C3    C9    A    
C36   C37   A    
C16   O15   A    
C43   O6    S    
C38   C39   A    
O12   Zn2   S    
O15   Zn1   S    
C10   C17   A    
C52   H41   S    
C52   H39   S    
C18   C19   A    
C41   C42   S    
C12   C37   A    
C38   C45   A    
C1    O1    A    
C46   H26   S    
C25   H43   S    
C39   C55   A    
C47   C48   S    
C33   H6    S    
C40   H11   S    
C55   H7    S    
C15   O5    S    
C13   C28   S    
C8    H10   S    
C47   H27   S    
N4    Zn1   S    
C50   O8    S    
C41   H15   S    
C45   C53   A    
C13   C14   A    
C49   H32   S    
C44   C46   S    
C28   O3    A    
C43   H19   S    
C42   H18   S    
C1    C19   S    
C40   H13   S    
C27   C31   A    
C51   C52   S    
C54   I1    S    
C24   C25   S    
C5    H9    S    
C8    C9    A    
C48   H30   S    
C51   H38   S    
C28   O2    A    
C9    N2    S    
C47   H28   S    
C20   H34   S    
C2    N2    A    
C1    O12   A    
C7    O8    S    
O14   Zn2   S    
C35   C39   A    
C43   C44   S    
O13   Zn1   S    
C37   C38   A    
C35   N1    A    
C17   N1    S    
C46   H25   S    
C25   H44   S    
C40   O5    S    
C27   N3    A    
C23   C34   A    
C30   H3    S    
O3    Zn2   S    
C42   H16   S    
C50   C51   S    
C4    O14   A    
C34   C45   A    
C14   H23   S    
C29   H2    S    
C36   O9    S    
C56   N2    A    
C51   H37   S    
C12   H1    S    
C50   H36   S    
C40   C41   S    
C18   C24   A    
C4    C6    S    
C32   H4    S    
C11   H12   S    
O16   Zn2   S    
O1    Zn1   S    
C43   H20   S    
C15   C17   A    
C54   C55   A    
C48   C49   S    
C42   H17   S    
C16   C22   S    
C30   N4    A    
C36   N1    A    
C14   C15   A    
C56   O10   S    
C31   C32   S    
N3    Zn2   S    
C49   H33   S    
C3    C5    A    
C2    C53   A    
C2    O11   S    
C6    C7    A    
C3    H8    S    
C44   H21   S    
C32   C33   S    
C44   H22   S    
C25   C26   S    
C26   H45   S    
C26   H46   S    
C23   O6    S    
C46   H24   S    
C21   H42   S    
C11   C13   A    
C5    C6    A    
C10   I2    S    
C4    O13   A    
C52   H40   S    
C22   C24   A    
C32   O7    S    
C16   O16   A    
C10   C11   A    
O2    Zn1   S    
C50   H35   S    
C20   C21   A    
C33   H5    S    
C48   H29   S    
C29   N3    A    
C21   C22   A    
C35   O4    S    
C41   H14   S    
