data_mof_unit_10172.cif
_audit_creation_date              2012-12-10T17:47:04-0500
_audit_creation_method            fapswitch 2.2
_symmetry_space_group_name_H-M    P1
_symmetry_Int_Tables_number       1
_space_group_crystal_system       triclinic
_cell_length_a                    9.936292
_cell_length_b                    10.635623
_cell_length_c                    13.61796
_cell_angle_alpha                 91.562573
_cell_angle_beta                  83.030306
_cell_angle_gamma                 89.963644
_cell_volume                      1427.95075994

loop_
_atom_site_label
_atom_site_type_symbol
_atom_type_description
_atom_site_fract_x
_atom_site_fract_y
_atom_site_fract_z
_atom_type_partial_charge
C1    C     C_R   0.500317 0.739253 0.497504 0.853194
C2    C     C_R   0.558075 0.938021 0.564729 -0.189855
C3    C     C_R   0.558306 0.066497 0.564575 -0.180560
C4    C     C_R   0.475688 0.500575 0.685571 0.886537
C5    C     C_R   0.501968 0.128012 0.490426 -0.099872
C6    C     C_R   0.839903 0.667617 0.627919 -0.192257
C7    C     C_R   0.900111 0.749720 0.690721 -0.227114
C8    C     C_R   0.039411 0.748229 0.691358 0.185799
C9    C     C_R   0.119129 0.664703 0.628948 -0.182232
C10   C     C_R   0.061937 0.581587 0.563349 0.128375
C11   C     C_R   0.917581 0.582230 0.563042 0.178952
C12   C     C_1   0.457203 0.502865 0.789451 -0.161355
C13   C     C_R   0.938700 0.421487 0.439589 -0.105157
C14   C     C_R   0.081664 0.421633 0.439522 -0.092137
C15   C     C_R   0.500537 0.260590 0.497155 0.868037
C16   C     C_R   0.524288 0.499728 0.314427 0.863578
C17   C     C_1   0.542610 0.500772 0.210609 -0.182266
C18   C     C_2   0.558245 0.503135 0.018882 -0.159061
C19   C     C_2   0.441351 0.506623 0.981306 -0.159221
C20   C     C_1   0.445225 0.504913 0.877332 0.032103
C21   C     C_1   0.554401 0.501901 0.122792 0.015711
C22   C     C_R   0.399883 0.863197 0.333098 -0.172599
C23   C     C_R   0.350612 0.926166 0.256292 -0.122500
C24   C     C_R   0.350813 0.056969 0.256190 -0.130525
C25   C     C_R   0.400341 0.125270 0.332869 -0.188831
C26   C     C_R   0.449011 0.062881 0.412120 0.097518
C27   C     C_R   0.448780 0.931032 0.412255 0.098493
C28   C     C_R   0.501554 0.871345 0.490704 -0.084343
H1    H     H_    0.344276 0.509409 0.027774 0.163041
H2    H     H_    0.313878 0.105684 0.195962 0.145071
H3    H     H_    0.401978 0.226586 0.328375 0.141270
H4    H     H_    0.599790 0.118363 0.623600 0.158806
H5    H     H_    0.893436 0.357238 0.390205 0.148212
H6    H     H_    0.732511 0.674121 0.632680 0.208158
H7    H     H_    0.837767 0.814494 0.739383 0.173039
H8    H     H_    0.225009 0.667378 0.634203 0.217424
H9    H     H_    0.143478 0.357453 0.390079 0.144485
H10   H     H_    0.655298 0.499963 0.972389 0.166859
H11   H     H_    0.599406 0.890334 0.623867 0.143640
H12   H     H_    0.401089 0.761624 0.328761 0.152473
H13   H     H_    0.313532 0.873255 0.196134 0.148377
I1    I     I_    0.130891 0.872463 0.786763 -0.397885
N1    N     N_R   0.857120 0.501200 0.500900 -0.114753
N2    N     N_R   0.142720 0.501280 0.500940 -0.113377
O1    O     O_R   0.385310 0.683220 0.500000 -0.634154
O2    O     O_R   0.614640 0.683250 0.500010 -0.630548
O3    O     O_R   0.368830 0.499960 0.640340 -0.617508
O4    O     O_R   0.598160 0.499980 0.640350 -0.627396
O5    O     O_R   0.385360 0.316750 0.499990 -0.609285
O6    O     O_R   0.614690 0.316780 0.500000 -0.611252
O7    O     O_R   0.401840 0.500020 0.359650 -0.623842
O8    O     O_R   0.631170 0.500040 0.359660 -0.600388
Zn1   Zn    Zn3+2 0.346870 0.499980 0.499990 0.943791
Zn2   Zn    Zn3+2 0.653130 0.500020 0.500010 0.947332

loop_
_geom_bond_atom_site_label_1
_geom_bond_atom_site_label_2
_ccdc_geom_bond_type
C25   H3    S    
C1    C28   S    
C23   C24   A    
C11   N1    A    
C6    C7    A    
C4    C12   S    
C18   C21   S    
C9    C10   A    
N1    Zn2   S    
C19   C20   S    
C23   H13   S    
C16   O7    A    
O3    Zn1   S    
C22   H12   S    
O2    Zn2   S    
C2    C3    A    
C18   H10   S    
O1    Zn1   S    
C7    C8    A    
C13   C14   A    
C14   H9    S    
O4    Zn2   S    
C6    C11   A    
C1    O1    A    
C26   C27   A    
O6    Zn2   S    
C12   C20   T    
O5    Zn1   S    
N2    Zn1   S    
O8    Zn2   S    
C18   C19   D    
C22   C27   A    
C15   O5    A    
C3    H4    S    
C24   H2    S    
C1    O2    A    
C5    C15   S    
C10   C11   A    
C10   N2    A    
C5    C26   A    
C19   H1    S    
C9    H8    S    
C16   O8    A    
C13   N1    A    
C24   C25   A    
C14   N2    A    
C13   H5    S    
C4    O4    A    
C15   O6    A    
C27   C28   A    
C22   C23   A    
C16   C17   S    
C2    C28   A    
C3    C5    A    
C25   C26   A    
C7    H7    S    
C2    H11   S    
C17   C21   T    
C6    H6    S    
C8    I1    S    
C8    C9    A    
O7    Zn1   S    
C4    O3    A    
