data_mof_unit_19133.cif
_audit_creation_date              2013-03-05T16:32:51-0500
_audit_creation_method            fapswitch 2.2
_symmetry_space_group_name_H-M    P1
_symmetry_Int_Tables_number       1
_space_group_crystal_system       triclinic
_cell_length_a                    19.393923
_cell_length_b                    10.825379
_cell_length_c                    9.528999
_cell_angle_alpha                 90.238083
_cell_angle_beta                  89.800211
_cell_angle_gamma                 90.52401
_cell_volume                      2000.46778679

loop_
_atom_site_label
_atom_site_type_symbol
_atom_site_description
_atom_site_fract_x
_atom_site_fract_y
_atom_site_fract_z
_atom_type_partial_charge
O1    O     O_R   0.500000 0.319640 0.618810 -0.586824
O2    O     O_R   0.500010 0.319680 0.381230 -0.563797
C1    C     C_R   0.500798 0.262508 0.499732 0.803649
O3    O     O_R   0.400140 0.499970 0.618830 -0.544169
O4    O     O_R   0.400150 0.500010 0.381250 -0.562222
C2    C     C_R   0.367139 0.500397 0.500754 0.835664
Cu1   Cu    Cu3+1 0.500000 0.499980 0.640670 0.975011
Cu2   Cu    Cu3+1 0.500000 0.500020 0.359330 0.964353
O5    O     O_R   0.499990 0.680320 0.618770 -0.579460
O6    O     O_R   0.500000 0.680360 0.381190 -0.584752
O7    O     O_R   0.599850 0.499990 0.618750 -0.565672
O8    O     O_R   0.599860 0.500030 0.381170 -0.586799
C3    C     C_R   0.500636 0.737829 0.500597 0.789545
C4    C     C_R   0.632699 0.497693 0.499887 0.784336
C5    C     C_R   0.252185 0.477520 0.627879 0.214919
C6    C     C_R   0.179744 0.462006 0.621279 -0.051977
C7    C     C_R   0.145162 0.483779 0.493056 -0.049354
C8    C     C_R   0.183521 0.507245 0.371245 -0.158745
H1    H     H_    0.157945 0.523864 0.272289 0.173304
C9    C     C_R   0.255125 0.512364 0.375517 -0.228194
H2    H     H_    0.282783 0.530664 0.278897 0.166318
C10   C     C_R   0.290525 0.498102 0.502501 -0.080177
N1    N     N_R   0.033888 0.460315 0.369375 -0.225259
N2    N     N_R   0.965248 0.465211 0.367432 -0.226435
C11   C     C_R   0.929733 0.501915 0.483233 0.421850
N3    N     N_R   0.965254 0.536679 0.599190 -0.225151
N4    N     N_R   0.033592 0.532581 0.600707 -0.203032
C12   C     C_R   0.069238 0.491793 0.487261 0.452157
C13   C     C_R   0.820038 0.480201 0.615199 -0.169769
H3    H     H_    0.850558 0.464603 0.708087 0.166311
C14   C     C_R   0.747687 0.475757 0.623219 0.257575
C15   C     C_R   0.709017 0.494574 0.498855 -0.101847
C16   C     C_R   0.743929 0.512264 0.370542 -0.227364
H4    H     H_    0.715768 0.525933 0.273989 0.159263
C17   C     C_R   0.815643 0.513558 0.364497 -0.156608
H5    H     H_    0.841054 0.527882 0.264389 0.159091
C18   C     C_R   0.854042 0.499249 0.486987 0.009701
C19   C     C_R   0.488499 0.064868 0.621718 0.065638
C20   C     C_R   0.505680 0.129733 0.500512 -0.073682
C21   C     C_R   0.530519 0.064593 0.383584 -0.184919
H6    H     H_    0.547969 0.112619 0.290361 0.159147
C22   C     C_R   0.530200 0.935709 0.384596 -0.164912
H7    H     H_    0.547112 0.887089 0.291687 0.160415
C23   C     C_R   0.505988 0.871265 0.503141 -0.091194
C24   C     C_R   0.490732 0.937666 0.625640 0.054689
C25   C     C_3   0.428963 0.930944 0.721487 -0.250515
C26   C     C_3   0.425891 0.071922 0.713636 -0.268139
H8    H     H_    0.384632 0.880866 0.672843 0.157763
H9    H     H_    0.437045 0.121375 0.813694 0.160137
C27   C     C_R   0.555638 0.544182 0.073199 0.181086
N5    N     N_R   0.500440 0.500930 0.147930 -0.197180
C28   C     C_R   0.450190 0.437956 0.073711 0.304438
C29   C     C_R   0.449949 0.440124 0.924482 -0.118733
H10   H     H_    0.409326 0.393171 0.867458 0.186873
N6    N     N_R   0.500440 0.500890 0.852020 -0.193021
C30   C     C_R   0.556165 0.542242 0.926056 0.259291
C31   C     C_3   0.589079 0.666630 0.917898 -0.439473
C32   C     C_3   0.586369 0.670811 0.077379 -0.488512
H11   H     H_    0.642439 0.662518 0.875562 0.211558
H12   H     H_    0.556049 0.735353 0.866142 0.239370
H13   H     H_    0.638210 0.672546 0.126672 0.190817
H14   H     H_    0.549624 0.740314 0.117950 0.224581
N7    N     N_2   0.286403 0.472239 0.759798 -0.415220
H15   H     H_    0.269257 0.403879 0.826669 0.281463
C33   C     C_3   0.294560 0.591241 0.828007 -0.551568
H16   H     H_    0.243642 0.632322 0.852064 0.250520
H17   H     H_    0.323827 0.655800 0.759325 0.250818
H18   H     H_    0.323168 0.580070 0.927716 0.220824
C34   C     C_2   0.446271 0.884887 0.866319 0.855963
O9    O     O_2   0.491775 0.934994 0.935429 -0.622902
O10   O     O_R   0.409665 0.784600 0.921585 -0.781364
H19   H     H_    0.425728 0.761357 0.019025 0.327373
C35   C     C_2   0.362692 0.118693 0.639643 0.862297
O11   O     O_2   0.327275 0.197413 0.696220 -0.615937
O12   O     O_R   0.344772 0.072638 0.507147 -0.760358
H20   H     H_    0.301774 0.112572 0.468519 0.335457
N8    N     N_2   0.397409 0.371957 0.145314 -0.385852
H21   H     H_    0.348925 0.403493 0.120881 0.227588
C36   C     C_3   0.401136 0.239049 0.131495 -0.607296
H22   H     H_    0.384995 0.209746 0.024631 0.204084
H23   H     H_    0.365951 0.195265 0.209226 0.244028
H24   H     H_    0.454316 0.206488 0.151307 0.241791
C37   C     C_2   0.140949 0.415998 0.745808 0.863166
O13   O     O_2   0.103890 0.324505 0.734414 -0.561017
O14   O     O_R   0.145953 0.477213 0.874827 -0.776113
H25   H     H_    0.116995 0.436521 0.950730 0.344046
N9    N     N_2   0.713517 0.446059 0.752336 -0.417891
H26   H     H_    0.684335 0.365973 0.748836 0.262803
C38   C     C_3   0.748203 0.467500 0.884690 -0.716008
H27   H     H_    0.788261 0.396498 0.901654 0.234210
H28   H     H_    0.710125 0.460790 0.971667 0.225250
H29   H     H_    0.771596 0.561551 0.887275 0.238879

loop_
_geom_bond_atom_site_label_1
_geom_bond_atom_site_label_2
_geom_bond_distance
_ccdc_geom_bond_type
C32   H14   1.108535 S    
N6    C30   1.363786 A    
N7    C33   1.448123 S    
C35   O11   1.221859 D    
C29   N6    1.362227 A    
C17   H5    1.083264 S    
Cu1   N6    2.013985 S    
N9    H26   1.031475 S    
Cu1   Cu2   2.680890 S    
C26   H9    1.112443 S    
N8    H21   1.031001 S    
C23   C24   1.400469 A    
Cu1   O7    1.946991 S    
N3    N4    1.326617 A    
C17   C18   1.396650 A    
O14   H25   1.013844 S    
C19   C20   1.392052 A    
O7    C4    1.297841 A    
C31   H11   1.110592 S    
C5    C6    1.414967 A    
C2    C10   1.485865 S    
C30   C31   1.487115 S    
C8    H1    1.083445 S    
C34   O10   1.395707 S    
O5    C3    1.288937 A    
C19   C24   1.378755 A    
C11   C18   1.468283 S    
C5    C10   1.422282 A    
C37   O13   1.223088 D    
C6    C7    1.417480 A    
C33   H17   1.110357 S    
N1    N2    1.332927 A    
C38   H28   1.110310 S    
C32   H13   1.111159 S    
C21   C22   1.395247 A    
C1    C20   1.441373 S    
C35   O12   1.399305 S    
C22   C23   1.407144 A    
O3    Cu1   1.948547 S    
C16   H4    1.082961 S    
N8    C36   1.446691 S    
C25   H8    1.113592 S    
C14   N9    1.431780 S    
N5    C28   1.379606 A    
C27   C32   1.490191 S    
N2    C11   1.358669 A    
C26   C35   1.508679 S    
O3    C2    1.296431 A    
C20   C21   1.402403 A    
C36   H23   1.110129 S    
C31   H12   1.104998 S    
C27   N5    1.364042 A    
C11   N3    1.354350 A    
C29   H10   1.080581 S    
C6    C37   1.487983 S    
C27   C30   1.402198 A    
C36   H22   1.110532 S    
O1    C1    1.290153 A    
O12   H20   1.013815 S    
C13   H3    1.081220 S    
C36   H24   1.110044 S    
C14   C15   1.421019 A    
Cu2   O8    1.948545 S    
C33   H18   1.109535 S    
C7    C8    1.399368 A    
N1    C12   1.358660 A    
C38   H29   1.111069 S    
Cu2   N5    2.014483 S    
C19   C26   1.497015 S    
C21   H6    1.082809 S    
C37   O14   1.397480 S    
C9    C10   1.403082 A    
N9    C38   1.448333 S    
C22   H7    1.079665 S    
C28   N8    1.417617 S    
C28   C29   1.422312 A    
Cu1   O5    1.964234 S    
C25   C26   1.529996 S    
O1    Cu1   1.962470 S    
C7    C12   1.477042 S    
O2    Cu2   1.964234 S    
C4    C15   1.480795 S    
O6    C3    1.294569 A    
O4    Cu2   1.946990 S    
C15   C16   1.408510 A    
O2    C1    1.290151 A    
O8    C4    1.300591 A    
O10   H19   1.013835 S    
C13   C14   1.405378 A    
C31   C32   1.520920 S    
O4    C2    1.304444 A    
C16   C17   1.391739 A    
C8    C9    1.390012 A    
C34   O9    1.224369 D    
N7    H15   1.030635 S    
C24   C25   1.505282 S    
C9    H2    1.082022 S    
Cu2   O6    1.962470 S    
C33   H16   1.109536 S    
C13   C18   1.401444 A    
N4    C12   1.355705 A    
C25   C34   1.509294 S    
C5    N7    1.425120 S    
C38   H27   1.110533 S    
C3    C23   1.447387 S    
