data_mof_unit_63187.cif
_audit_creation_date              2012-12-10T17:58:21-0500
_audit_creation_method            fapswitch 2.2
_symmetry_space_group_name_H-M    P1
_symmetry_Int_Tables_number       1
_space_group_crystal_system       triclinic
_cell_length_a                    21.733515
_cell_length_b                    21.736951
_cell_length_c                    22.232065
_cell_angle_alpha                 119.436148
_cell_angle_beta                  119.517242
_cell_angle_gamma                 89.607509
_cell_volume                      7566.48547503

loop_
_atom_site_label
_atom_site_type_symbol
_atom_type_description
_atom_site_fract_x
_atom_site_fract_y
_atom_site_fract_z
_atom_type_partial_charge
C1    C     C_R   0.499700 0.118513 0.499731 0.801103
C2    C     C_3   0.711470 0.297051 0.048345 0.475421
C3    C     C_3   0.791238 0.290195 0.082772 0.171332
C4    C     C_3   0.785938 0.207469 0.050087 -0.343230
C5    C     C_3   0.739901 0.158374 0.952366 0.132580
C6    C     C_1   0.837595 0.337137 0.174995 -0.026961
C7    C     C_1   0.662474 0.161706 0.824982 -0.076841
C8    C     C_1   0.624868 0.124555 0.749605 -0.175411
C9    C     C_R   0.482417 0.242313 0.545983 0.069910
C10   C     C_R   0.498639 0.183750 0.497622 -0.077142
C11   C     C_R   0.515673 0.190901 0.447280 -0.203051
C12   C     C_R   0.579969 0.079990 0.659884 0.820012
C13   C     C_R   0.515505 0.255599 0.446961 -0.207910
C14   C     C_R   0.501060 0.314697 0.499323 -0.112421
C15   C     C_R   0.485301 0.305519 0.548161 0.116146
C16   C     C_3   0.467186 0.341933 0.611912 0.059941
C17   C     C_3   0.464179 0.269613 0.609478 -0.515475
C18   C     C_3   0.219137 0.736742 0.048523 -0.377678
C19   C     C_3   0.334449 0.745486 0.048552 -0.385749
C20   C     C_3   0.285900 0.696974 0.951574 -0.499361
C21   C     C_1   0.124871 0.624805 0.749720 -0.154307
C22   C     C_3   0.291096 0.791403 0.082609 0.242152
C23   C     C_R   0.500559 0.881492 0.500534 0.829065
C24   C     C_3   0.170724 0.688109 0.951550 -0.347062
C25   C     C_3   0.208436 0.708901 0.917409 0.216218
C26   C     C_3   0.220297 0.792674 0.951496 0.493777
C27   C     C_3   0.268524 0.841015 0.048584 -0.405693
C28   C     C_1   0.162456 0.662583 0.825142 -0.043623
C29   C     C_1   0.337266 0.837439 0.174848 -0.079004
C30   C     C_1   0.375036 0.875123 0.250274 -0.169417
C31   C     C_R   0.437381 0.753081 0.441923 0.105896
C32   C     C_R   0.501511 0.814203 0.499115 -0.171862
C33   C     C_R   0.568749 0.807121 0.549944 -0.280840
C34   C     C_R   0.420007 0.920022 0.340077 0.820847
C35   C     C_R   0.568961 0.743143 0.550854 0.585423
C36   C     C_R   0.502110 0.684921 0.498623 -0.211029
C37   C     C_R   0.437916 0.689062 0.440957 0.063845
C38   C     C_3   0.362076 0.677340 0.424264 -0.481664
C39   C     C_3   0.361521 0.747673 0.425198 -0.423414
C40   C     C_R   0.881461 0.500059 0.499814 0.803157
C41   C     C_R   0.920286 0.420078 0.340111 0.819892
C42   C     C_R   0.119141 0.499935 0.500546 0.790399
C43   C     C_R   0.080101 0.579936 0.659923 0.814938
C44   C     C_R   0.618970 0.500019 0.500015 0.815569
C45   C     C_3   0.662785 0.247706 0.951260 -0.396398
C46   C     C_R   0.500426 0.381159 0.499978 0.811965
C47   C     C_R   0.380794 0.499490 0.499829 0.803583
C48   C     C_R   0.500082 0.618984 0.499871 0.861210
C49   C     C_R   0.806118 0.562866 0.550081 0.108365
C50   C     C_R   0.814332 0.499036 0.498007 -0.080682
C51   C     C_R   0.755062 0.432420 0.444242 -0.193359
C52   C     C_R   0.690010 0.432520 0.443890 -0.206429
C53   C     C_R   0.684910 0.498702 0.499385 -0.085465
C54   C     C_R   0.745066 0.562392 0.552019 0.106158
C55   C     C_3   0.773631 0.643257 0.618448 -0.404861
C56   C     C_3   0.775881 0.267285 0.951186 -0.457666
C57   C     C_3   0.843805 0.643572 0.616961 -0.474878
C58   C     C_R   0.182906 0.484194 0.430720 0.095264
C59   C     C_R   0.185243 0.497842 0.500018 -0.063999
C60   C     C_R   0.249831 0.500299 0.564551 -0.224892
C61   C     C_R   0.314341 0.500266 0.564658 -0.197174
C62   C     C_R   0.313578 0.495313 0.498765 -0.090940
C63   C     C_R   0.245932 0.482341 0.429778 0.139073
C64   C     C_3   0.227378 0.520913 0.385869 -0.476000
C65   C     C_3   0.158023 0.522871 0.386978 -0.471282
C66   C     C_3   0.825558 0.314742 0.048160 -0.513582
C67   C     C_1   0.875388 0.375177 0.250377 -0.154988
C68   C     C_3   0.708335 0.206783 0.917277 0.197451
Cu1   Cu    Cu3+1 0.438190 0.000000 0.500020 0.947558
Cu2   Cu    Cu3+1 0.561810 0.000000 0.499980 0.956970
Cu3   Cu    Cu3+1 0.000200 0.561800 0.500000 0.963353
Cu4   Cu    Cu3+1 0.000170 0.438200 0.500000 0.956172
Cu5   Cu    Cu3+1 0.541330 0.541310 0.582630 0.982489
Cu6   Cu    Cu3+1 0.458770 0.458690 0.417370 0.954774
H1    H     H_    0.714724 0.355996 0.070076 0.082544
H2    H     H_    0.612177 0.207415 0.926917 0.205262
H3    H     H_    0.842906 0.202064 0.075208 0.133423
H4    H     H_    0.528215 0.146537 0.407863 0.155369
H5    H     H_    0.527858 0.259958 0.407316 0.152134
H6    H     H_    0.513827 0.391062 0.672393 0.128321
H7    H     H_    0.510003 0.277169 0.668257 0.170979
H8    H     H_    0.408273 0.236723 0.583404 0.213666
H9    H     H_    0.162464 0.628415 0.928641 0.157596
H10   H     H_    0.642624 0.283629 0.927949 0.124515
H11   H     H_    0.233615 0.700255 0.071903 0.166639
H12   H     H_    0.386300 0.783397 0.071674 0.172354
H13   H     H_    0.351184 0.709081 0.071811 0.181454
H14   H     H_    0.279362 0.637381 0.928505 0.194332
H15   H     H_    0.314629 0.711583 0.928350 0.166914
H16   H     H_    0.237110 0.874505 0.072041 0.205643
H17   H     H_    0.319226 0.880839 0.072027 0.126041
H18   H     H_    0.186527 0.768258 0.071505 0.177802
H19   H     H_    0.114764 0.695870 0.928127 0.207664
H20   H     H_    0.809603 0.240964 0.926813 0.183759
H21   H     H_    0.248991 0.808808 0.929134 0.072298
H22   H     H_    0.620173 0.852387 0.591724 0.180182
H23   H     H_    0.320726 0.626335 0.361813 0.203107
H24   H     H_    0.362683 0.682939 0.477049 0.186417
H25   H     H_    0.320026 0.737221 0.363183 0.191674
H26   H     H_    0.361472 0.793813 0.478291 0.207978
H27   H     H_    0.758627 0.380994 0.402148 0.160981
H28   H     H_    0.644608 0.381150 0.401583 0.154237
H29   H     H_    0.740493 0.674960 0.595316 0.246562
H30   H     H_    0.756162 0.304102 0.929101 0.188087
H31   H     H_    0.783726 0.654157 0.677424 0.213204
H32   H     H_    0.851407 0.675961 0.593669 0.216106
H33   H     H_    0.894286 0.653985 0.674806 0.208246
H34   H     H_    0.251356 0.505866 0.616482 0.144634
H35   H     H_    0.364852 0.505810 0.616765 0.171828
H36   H     H_    0.268025 0.576873 0.425128 0.188708
H37   H     H_    0.215009 0.484541 0.322036 0.202069
H38   H     H_    0.158486 0.580009 0.426777 0.213727
H39   H     H_    0.105638 0.487418 0.323786 0.193377
H40   H     H_    0.831653 0.374465 0.072231 0.179756
H41   H     H_    0.882188 0.308721 0.070082 0.196753
H42   H     H_    0.780265 0.139377 0.935711 0.118806
H43   H     H_    0.762709 0.189629 0.075576 0.214326
O1    O     O_R   0.447800 0.090170 0.500010 -0.583676
O2    O     O_R   0.909990 0.447840 0.500030 -0.586725
O3    O     O_R   0.939920 0.491910 0.379430 -0.582051
O4    O     O_R   0.939890 0.387530 0.379440 -0.578413
O5    O     O_R   0.090380 0.552160 0.499970 -0.587377
O6    O     O_R   0.090350 0.447780 0.499980 -0.586431
O7    O     O_R   0.060480 0.612470 0.620560 -0.570752
O8    O     O_R   0.060450 0.508090 0.620570 -0.585702
O9    O     O_R   0.625130 0.534920 0.569820 -0.577045
O10   O     O_R   0.555400 0.465140 0.430260 -0.589599
O11   O     O_R   0.534920 0.444720 0.569790 -0.589519
O12   O     O_R   0.552190 0.090170 0.499980 -0.588291
O13   O     O_R   0.465190 0.374940 0.430230 -0.591098
O14   O     O_R   0.444700 0.534860 0.569740 -0.590083
O15   O     O_R   0.374970 0.465080 0.430180 -0.589132
O16   O     O_R   0.534910 0.625060 0.569770 -0.543192
O17   O     O_R   0.465180 0.555280 0.430210 -0.593253
O18   O     O_R   0.508090 0.060280 0.620580 -0.580749
O19   O     O_R   0.612480 0.060280 0.620550 -0.580321
O20   O     O_R   0.447810 0.909830 0.500020 -0.588390
O21   O     O_R   0.552200 0.909830 0.499990 -0.583685
O22   O     O_R   0.387520 0.939720 0.379450 -0.581433
O23   O     O_R   0.491910 0.939720 0.379420 -0.580939
O24   O     O_R   0.910020 0.552220 0.500020 -0.579968
F1    F     F_    0.678575 0.277132 0.078719 -0.679881
N1    N     N_2   0.396236 0.357355 0.583054 -0.420947
H44   H     H_    0.380683 0.372827 0.624158 0.253411
C69   C     C_3   0.334638 0.309113 0.496087 -0.635419
H45   H     H_    0.285790 0.329582 0.486253 0.220943
H46   H     H_    0.318849 0.251398 0.478223 0.222980
H47   H     H_    0.349247 0.309855 0.455097 0.230549
F2    F     F_    0.152366 0.806120 0.921911 -0.663463
F3    F     F_    0.633650 0.738850 0.603612 -0.677724
N2    N     N_2   0.683291 0.090437 0.912539 -0.433859
H48   H     H_    0.658164 0.052252 0.849385 0.256866
C70   C     C_3   0.643542 0.084891 0.947158 -0.629371
H49   H     H_    0.590389 0.038631 0.896936 0.212717
H50   H     H_    0.630462 0.136501 0.976147 0.273037
H51   H     H_    0.677333 0.072381 0.994324 0.228236

loop_
_geom_bond_atom_site_label_1
_geom_bond_atom_site_label_2
_ccdc_geom_bond_type
Cu1   O22   S    
C13   H5    S    
C44   O10   A    
Cu2   O23   S    
C22   C29   S    
Cu6   O15   S    
Cu4   O4    S    
Cu5   Cu6   S    
Cu1   O1    S    
C23   O21   A    
C35   C36   A    
C38   H24   S    
C3    C6    S    
C61   H35   S    
C43   O8    A    
C47   C62   S    
Cu5   O14   S    
C69   H45   S    
C7    C8    T    
C14   C46   S    
C53   C54   A    
C25   C28   S    
C56   H20   S    
C52   H28   S    
C26   C27   S    
C29   C30   T    
Cu3   O3    S    
C55   H31   S    
C45   H2    S    
C18   C24   S    
C46   O11   A    
C36   C37   A    
C24   H9    S    
C19   H13   S    
C38   H23   S    
C38   C39   S    
C56   C66   S    
C20   C25   S    
C49   C54   A    
C55   H29   S    
C34   O22   A    
C58   C63   A    
C49   C57   S    
C27   H16   S    
C17   H8    S    
C41   O4    A    
Cu3   O5    S    
C7    C68   S    
C21   C43   S    
C39   H25   S    
C44   C53   S    
C31   C32   A    
C16   C17   S    
C12   O18   A    
N2    H48   S    
C27   H17   S    
C35   F3    S    
C70   H50   S    
C9    C10   A    
C60   H34   S    
Cu3   O24   S    
C19   H12   S    
C57   H32   S    
C59   C60   A    
Cu1   O18   S    
C40   O24   A    
Cu2   O19   S    
C61   C62   A    
C45   C68   S    
C5    C68   S    
C69   H46   S    
C42   O6    A    
C2    C45   S    
Cu1   O20   S    
C18   H11   S    
C66   H41   S    
C30   C34   S    
C51   C52   A    
Cu3   O7    S    
C19   C22   S    
C24   C25   S    
C56   H30   S    
C41   C67   S    
Cu6   O17   S    
C64   H37   S    
C58   C59   A    
C56   C68   S    
Cu2   O12   S    
C31   C37   A    
C32   C33   A    
C47   O14   A    
C60   C61   A    
C16   H6    S    
C65   H38   S    
C37   C38   S    
C11   H4    S    
C48   O16   A    
C58   C65   S    
C64   H36   S    
Cu6   O10   S    
C8    C12   S    
C44   O9    A    
C16   N1    S    
C62   C63   A    
C50   C51   A    
C70   H51   S    
C9    C17   S    
C6    C67   T    
C57   H33   S    
C21   C28   T    
Cu5   O16   S    
Cu2   O21   S    
C22   C27   S    
Cu6   O13   S    
Cu4   O6    S    
C2    F1    S    
C4    H43   S    
C3    C66   S    
C3    C4    S    
C33   H22   S    
C69   H47   S    
C52   C53   A    
C42   O5    A    
C48   O17   A    
C26   H21   S    
N1    C69   S    
C54   C55   S    
C66   H40   S    
C18   C22   S    
C65   H39   S    
C23   O20   A    
C26   F2    S    
C1    C10   S    
C4    C5    S    
C42   C59   S    
C46   O13   A    
C51   H27   S    
Cu5   O11   S    
C20   H15   S    
C47   O15   A    
C1    O12   A    
C5    N2    S    
Cu4   O8    S    
C18   H18   S    
C23   C32   S    
C19   C20   S    
C55   C57   S    
N1    H44   S    
C25   C26   S    
C4    H3    S    
C5    H42   S    
C24   H19   S    
C64   C65   S    
C11   C13   A    
C39   H26   S    
C40   C50   S    
C15   C16   S    
C20   H14   S    
Cu4   O2    S    
C34   O23   A    
C33   C35   A    
C31   C39   S    
C36   C48   S    
C17   H7    S    
C1    O1    A    
N2    C70   S    
C41   O3    A    
C9    C15   A    
Cu1   Cu2   S    
C10   C11   A    
C63   C64   S    
C45   H10   S    
Cu3   Cu4   S    
C40   O2    A    
C49   C50   A    
C12   O19   A    
C14   C15   A    
C2    C3    S    
C70   H49   S    
C13   C14   A    
C43   O7    A    
C2    H1    S    
Cu5   O9    S    
