data_mof_unit_21653.cif
_audit_creation_date              2012-12-10T18:22:27-0500
_audit_creation_method            fapswitch 2.2
_symmetry_space_group_name_H-M    P1
_symmetry_Int_Tables_number       1
_space_group_crystal_system       triclinic
_cell_length_a                    23.517802
_cell_length_b                    10.647868
_cell_length_c                    9.40616
_cell_angle_alpha                 90.042961
_cell_angle_beta                  89.986264
_cell_angle_gamma                 89.45856
_cell_volume                      2355.33249132

loop_
_atom_site_label
_atom_site_type_symbol
_atom_type_description
_atom_site_fract_x
_atom_site_fract_y
_atom_site_fract_z
_atom_type_partial_charge
C1    C     C_R   0.500044 0.259301 0.499799 0.785721
C2    C     C_R   0.499960 0.740699 0.500202 0.785609
C3    C     C_R   0.238921 0.514746 0.632690 0.040367
C4    C     C_R   0.761249 0.503329 0.631316 0.036631
C5    C     C_R   0.298482 0.510423 0.630063 -0.311248
C6    C     C_R   0.701665 0.505037 0.629068 -0.312537
C7    C     C_R   0.328316 0.505058 0.500709 -0.030513
C8    C     C_R   0.671676 0.496373 0.500317 -0.030262
C9    C     C_R   0.297920 0.504853 0.372436 -0.215583
C10   C     C_R   0.701919 0.484559 0.372398 -0.215614
C11   C     C_R   0.238755 0.508669 0.373469 -0.143589
C12   C     C_R   0.761088 0.482020 0.373090 -0.143646
C13   C     C_R   0.208937 0.513051 0.502219 0.348408
C14   C     C_R   0.791070 0.491576 0.501114 0.348592
C15   C     C_3   0.546731 0.040965 0.567114 -0.166277
C16   C     C_3   0.453276 0.959034 0.432896 -0.165269
C17   C     C_3   0.546712 0.956993 0.432832 -0.165318
C18   C     C_3   0.453295 0.043004 0.567179 -0.164581
C19   C     C_3   0.499978 0.877712 0.500790 0.018774
C20   C     C_3   0.500029 0.122287 0.499219 0.019193
C21   C     C_3   0.499998 0.959458 0.635221 -0.141223
C22   C     C_3   0.500009 0.040539 0.364789 -0.140830
C23   C     C_R   0.390959 0.501122 0.500114 0.802707
C24   C     C_R   0.609036 0.499108 0.499980 0.802296
C25   C     C_3   0.499849 0.613489 0.050454 -0.039388
C26   C     C_3   0.500150 0.386512 0.949544 -0.039739
C27   C     C_3   0.455450 0.557381 0.949395 -0.039805
C28   C     C_3   0.544549 0.442619 0.050602 -0.038695
C29   C     C_3   0.544441 0.556054 0.949493 -0.038188
C30   C     C_3   0.455559 0.443947 0.050505 -0.039471
C31   C     C_R   0.878429 0.606536 0.478555 0.607878
C32   C     C_R   0.121599 0.396432 0.511314 0.600572
C33   C     C_R   0.882010 0.384314 0.510502 0.620914
C34   C     C_R   0.117998 0.619282 0.482566 0.615750
C35   C     C_R   0.941637 0.385324 0.510446 -0.044661
C36   C     C_R   0.058402 0.618098 0.481068 -0.049487
C37   C     C_R   0.969990 0.500420 0.495300 -0.077043
C38   C     C_R   0.030088 0.502826 0.496337 -0.069687
C39   C     C_R   0.938299 0.613017 0.479951 -0.091708
C40   C     C_R   0.061758 0.390190 0.513154 -0.099109
C41   C     C_R   0.973236 0.274295 0.527888 -0.251006
C42   C     C_R   0.026746 0.729662 0.467177 -0.267503
C43   C     C_R   0.032628 0.275787 0.533024 0.453249
C44   C     C_R   0.967235 0.728321 0.469839 0.468973
Cu1   Cu    Cu3+1 0.500010 0.499990 0.643150 0.932636
Cu2   Cu    Cu3+1 0.499990 0.500010 0.356850 0.932330
H1    H     H_    0.952037 0.185479 0.539679 0.186056
H2    H     H_    0.047872 0.819078 0.456055 0.204252
H3    H     H_    0.418020 0.605810 0.901864 0.110706
H4    H     H_    0.581975 0.394174 0.098129 0.110409
H5    H     H_    0.499716 0.709284 0.097052 0.118577
H6    H     H_    0.500283 0.290717 0.902944 0.118544
H7    H     H_    0.581784 0.603370 0.902067 0.110511
H8    H     H_    0.418215 0.396636 0.097928 0.112021
H9    H     H_    0.321641 0.511439 0.729683 0.144334
H10   H     H_    0.678602 0.514255 0.728388 0.144162
H11   H     H_    0.319789 0.501047 0.271153 0.151724
H12   H     H_    0.679914 0.477327 0.271626 0.151310
H13   H     H_    0.215789 0.506805 0.273709 0.144287
H14   H     H_    0.783927 0.473686 0.273477 0.144718
H15   H     H_    0.584916 0.918766 0.377892 0.135154
H16   H     H_    0.415092 0.081230 0.622122 0.134606
H17   H     H_    0.584952 0.077518 0.622001 0.134051
H18   H     H_    0.415055 0.922477 0.378010 0.135227
H19   H     H_    0.499991 0.923824 0.746128 0.133840
H20   H     H_    0.500016 0.076171 0.253881 0.133972
N1    N     N_R   0.851973 0.493932 0.496221 -0.453113
N2    N     N_R   0.148037 0.509722 0.498456 -0.452246
N3    N     N_3   0.500040 0.499970 0.858290 -0.152385
N4    N     N_3   0.499960 0.500030 0.141710 -0.152262
O1    O     O_R   0.500030 0.316850 0.620870 -0.586244
O2    O     O_R   0.499970 0.683150 0.379130 -0.586051
O3    O     O_R   0.500000 0.316860 0.379090 -0.583799
O4    O     O_R   0.500000 0.683140 0.620910 -0.584062
O5    O     O_R   0.417890 0.499960 0.620920 -0.583142
O6    O     O_R   0.582110 0.500040 0.379080 -0.586154
O7    O     O_R   0.417870 0.499970 0.379140 -0.586374
O8    O     O_R   0.582130 0.500030 0.620860 -0.583158
O9    O     O_2   0.846556 0.711193 0.459944 -0.494698
O10   O     O_2   0.153447 0.290847 0.522287 -0.496577
O11   O     O_2   0.854098 0.275137 0.526057 -0.563202
O12   O     O_2   0.145827 0.728929 0.469400 -0.535493
O13   O     O_3   0.061637 0.163661 0.553158 -0.541195
C45   C     C_3   0.065160 0.140123 0.700740 0.066017
H21   H     H_    0.022090 0.127072 0.747469 0.118984
H22   H     H_    0.086735 0.218599 0.757031 0.176494
C46   C     C_3   0.099757 0.020679 0.725459 -0.677202
H23   H     H_    0.143152 0.031198 0.680665 0.278902
H24   H     H_    0.103210 0.001996 0.841274 0.198132
H25   H     H_    0.078811 0.939610 0.673768 0.234573
O14   O     O_3   0.937333 0.840415 0.462133 -0.530633
C47   C     C_3   0.940707 0.903069 0.594487 0.041126
H26   H     H_    0.976594 0.969730 0.590944 0.161241
H27   H     H_    0.947112 0.838751 0.687160 0.141336
C48   C     C_3   0.885677 0.975818 0.620072 -0.648760
H28   H     H_    0.850547 0.909776 0.642458 0.261727
H29   H     H_    0.890687 0.039574 0.712631 0.195058
H30   H     H_    0.874516 0.031976 0.524603 0.287260
C49   C     C_2   0.210310 0.520693 0.773423 0.371909
H31   H     H_    0.235641 0.516112 0.869808 0.053422
O15   O     O_2   0.158810 0.531785 0.784679 -0.544693
C50   C     C_2   0.790001 0.515267 0.771276 0.374159
H32   H     H_    0.764622 0.522937 0.867393 0.054102
O16   O     O_2   0.841689 0.517064 0.782223 -0.540080

loop_
_geom_bond_atom_site_label_1
_geom_bond_atom_site_label_2
_ccdc_geom_bond_type
C46   H23   S    
Cu1   O1    S    
C18   C21   S    
C43   O13   S    
C36   C42   A    
C48   H28   S    
C45   C46   S    
Cu2   O6    S    
C48   H30   S    
Cu1   Cu2   S    
C31   N1    A    
C30   H8    S    
C1    O1    A    
C28   C29   S    
C10   H12   S    
C45   H22   S    
C33   C35   A    
C11   H13   S    
C18   C20   S    
C7    C9    A    
C22   H20   S    
C17   H15   S    
C28   H4    S    
C40   C43   A    
C49   H31   S    
C4    C50   S    
C14   N1    S    
Cu1   O8    S    
Cu2   O2    S    
C3    C13   A    
C32   N2    A    
C24   O6    A    
C27   C30   S    
C41   C43   A    
C42   C44   A    
C2    O2    A    
C30   N4    S    
C29   N3    S    
C6    H10   S    
C25   C29   S    
C15   C20   S    
Cu1   N3    S    
C45   H21   S    
C4    C6    A    
C23   O5    A    
O14   C47   S    
C5    C7    A    
C17   C19   S    
C6    C8    A    
C47   C48   S    
Cu1   O4    S    
C25   H5    S    
C37   C38   A    
C26   H6    S    
C32   O10   S    
O13   C45   S    
C47   H27   S    
C41   H1    S    
C16   C18   S    
C42   H2    S    
C23   O7    A    
C50   O16   D    
C9    C11   A    
C2    O4    A    
C44   O14   S    
C10   C12   A    
C24   O8    A    
C49   O15   D    
C20   C22   S    
C26   C30   S    
C46   H24   S    
C34   N2    A    
C33   N1    A    
C35   C37   A    
C15   C17   S    
C1    C20   S    
C16   C22   S    
C21   H19   S    
C2    C19   S    
C5    H9    S    
C28   N4    S    
C12   C14   A    
C3    C5    A    
C27   N3    S    
Cu2   O7    S    
C48   H29   S    
C31   O9    S    
C39   C44   A    
C25   C27   S    
C34   O12   S    
C26   C28   S    
C17   C22   S    
Cu1   O5    S    
C1    O3    A    
C36   C38   A    
C37   C39   A    
C38   C40   A    
C11   C13   A    
C29   H7    S    
C16   C19   S    
C7    C23   S    
C47   H26   S    
C8    C24   S    
C34   C36   A    
C31   C39   A    
C9    H11   S    
C32   C40   A    
C4    C14   A    
C50   H32   S    
C35   C41   A    
Cu2   N4    S    
C12   H14   S    
C3    C49   S    
C15   C21   S    
C8    C10   A    
C46   H25   S    
C26   N3    S    
C15   H17   S    
C18   H16   S    
C25   N4    S    
C16   H18   S    
C33   O11   S    
Cu2   O3    S    
C27   H3    S    
C19   C21   S    
C13   N2    S    
