data_mof_unit_48090.cif
_audit_creation_date              2013-03-05T16:05:40-0500
_audit_creation_method            fapswitch 2.2
_symmetry_space_group_name_H-M    P1
_symmetry_Int_Tables_number       1
_space_group_crystal_system       triclinic
_cell_length_a                    10.643593
_cell_length_b                    14.945645
_cell_length_c                    15.507668
_cell_angle_alpha                 81.961801
_cell_angle_beta                  89.512623
_cell_angle_gamma                 104.187684
_cell_volume                      2365.79272371

loop_
_atom_site_label
_atom_site_type_symbol
_atom_site_description
_atom_site_fract_x
_atom_site_fract_y
_atom_site_fract_z
_atom_type_partial_charge
O1    O     O_R   0.462770 0.383110 0.605620 -0.543903
O2    O     O_R   0.510160 0.531900 0.639510 -0.638186
C1    C     C_R   0.475302 0.441284 0.662034 0.897313
O3    O     O_R   0.661510 0.425600 0.483070 -0.637047
O4    O     O_R   0.708900 0.574390 0.516960 -0.626587
C2    C     C_R   0.741750 0.499653 0.501532 0.842533
Zn1   Zn    Zn3+2 0.468350 0.400660 0.477370 0.995191
Zn2   Zn    Zn3+2 0.531650 0.599340 0.522630 0.981286
O5    O     O_R   0.489840 0.468100 0.360490 -0.634833
O6    O     O_R   0.537230 0.616890 0.394380 -0.585875
O7    O     O_R   0.291100 0.425610 0.483040 -0.613336
O8    O     O_R   0.338490 0.574400 0.516930 -0.595115
C3    C     C_R   0.516715 0.558519 0.337983 0.879696
C4    C     C_R   0.257820 0.499255 0.500463 0.857860
C5    C     C_3   0.894037 0.398770 0.498030 -0.398425
H1    H     H_    0.852278 0.372807 0.437873 0.191405
H2    H     H_    0.841544 0.349780 0.555129 0.205737
C6    C     C_3   0.036926 0.398423 0.498063 -0.433826
H3    H     H_    0.054091 0.350006 0.555610 0.242416
H4    H     H_    0.062243 0.371404 0.438504 0.182644
H5    H     H_    0.904142 0.543091 0.360282 0.141162
H6    H     H_    0.110893 0.530937 0.359826 0.087972
C7    C     C_3   0.949342 0.565461 0.420830 -0.428776
C8    C     C_3   0.938404 0.532775 0.585662 -0.392580
C9    C     C_3   0.878198 0.499227 0.501655 0.108573
H7    H     H_    0.931158 0.605281 0.589144 0.204001
H8    H     H_    0.885154 0.487268 0.644321 0.167351
C10   C     C_3   0.120990 0.498867 0.500609 0.030437
C11   C     C_3   0.093330 0.563216 0.418027 0.168354
C12   C     C_3   0.081589 0.530307 0.586223 -0.354849
H9    H     H_    0.096814 0.480697 0.643457 0.172731
H10   H     H_    0.142365 0.600013 0.595084 0.226031
H11   H     H_    0.938826 0.637486 0.422699 0.224190
C13   C     C_R   0.437224 0.406017 0.753972 -0.182409
C14   C     C_R   0.516779 0.594571 0.245604 -0.066112
C15   C     C_R   0.311177 0.295572 0.871772 -0.238994
C16   C     C_R   0.351248 0.318089 0.783502 0.329175
C17   C     C_R   0.477436 0.469015 0.812534 -0.297366
C18   C     C_R   0.424248 0.451924 0.897361 0.100052
C19   C     C_R   0.345580 0.362017 0.928376 0.097062
C20   C     C_R   0.450144 0.521593 0.952474 0.083101
C21   C     C_R   0.415937 0.495474 0.042339 0.069748
C22   C     C_R   0.335943 0.405305 0.071690 -0.213268
C23   C     C_R   0.299995 0.340238 0.015038 -0.168583
C24   C     C_R   0.506331 0.616744 0.920389 -0.222051
C25   C     C_R   0.540693 0.682369 0.976734 -0.204382
C26   C     C_R   0.525215 0.654444 0.066446 0.148231
C27   C     C_R   0.464004 0.560378 0.099797 0.097432
C28   C     C_R   0.573855 0.718598 0.123432 -0.148078
C29   C     C_R   0.569798 0.688679 0.212890 -0.091578
C30   C     C_R   0.462117 0.532091 0.189470 -0.257037
H12   H     H_    0.237629 0.272205 0.039498 0.169508
H13   H     H_    0.424649 0.459890 0.216598 0.159184
H14   H     H_    0.611624 0.738156 0.255912 0.202892
H15   H     H_    0.584555 0.754450 0.950043 0.160920
H16   H     H_    0.247030 0.227869 0.895115 0.185495
H17   H     H_    0.550442 0.532477 0.790316 0.168247
H18   H     H_    0.295556 0.384228 0.137570 0.144513
H19   H     H_    0.521520 0.642828 0.851622 0.153360
H20   H     H_    0.618948 0.790972 0.098595 0.166088
N1    N     N_R   0.573860 0.731700 0.552730 -0.122373
N2    N     N_R   0.426060 0.268290 0.447230 -0.105533
C31   C     C_R   0.687762 0.839497 0.641109 -0.268645
C32   C     C_R   0.658811 0.751434 0.616161 0.013962
C33   C     C_R   0.519769 0.796351 0.508897 0.045151
C34   C     C_R   0.554962 0.889258 0.525303 0.038706
C35   C     C_R   0.632521 0.907929 0.597445 0.098349
C36   C     C_R   0.506958 0.961325 0.477652 -0.112090
C37   C     C_R   0.517010 0.045867 0.513256 -0.058355
C38   C     C_R   0.578345 0.055761 0.594295 0.371649
C39   C     C_R   0.644512 0.991183 0.630288 -0.212798
C40   C     C_R   0.449638 0.952089 0.395771 0.308627
C41   C     C_R   0.373972 0.012091 0.361851 0.263830
C42   C     C_R   0.378420 0.093532 0.398467 -0.034291
C43   C     C_R   0.462434 0.115364 0.467276 -0.022523
C44   C     C_R   0.307339 0.157105 0.364017 -0.203407
C45   C     C_R   0.331324 0.244168 0.390951 0.019049
C46   C     C_R   0.493448 0.208182 0.483465 0.087150
H21   H     H_    0.694862 0.001803 0.689983 0.187534
H22   H     H_    0.574835 0.235708 0.520854 0.162038
H23   H     H_    0.278803 0.294341 0.364056 0.120899
H24   H     H_    0.749511 0.853159 0.695421 0.157169
H25   H     H_    0.700307 0.697534 0.649290 0.132269
H26   H     H_    0.445555 0.772725 0.464686 0.220094
H27   H     H_    0.235757 0.141049 0.315674 0.187035
N3    N     N_R   0.178276 0.658137 0.407432 0.225542
O9    O     O_R   0.260028 0.686894 0.340583 -0.337983
O10   O     O_R   0.168319 0.716043 0.461012 -0.397253
N4    N     N_R   0.297272 0.253549 0.725223 0.232307
O11   O     O_R   0.229083 0.279098 0.661468 -0.406341
O12   O     O_R   0.288294 0.164996 0.748110 -0.316543
N5    N     N_R   0.304282 0.994749 0.284458 0.232073
O13   O     O_R   0.331539 0.055301 0.213761 -0.373845
O14   O     O_R   0.225640 0.913602 0.281364 -0.279058
Cl1   Cl    Cl    0.556839 0.134506 0.664973 -0.583214
Cl2   Cl    Cl    0.497052 0.883644 0.322812 -0.537880

loop_
_geom_bond_atom_site_label_1
_geom_bond_atom_site_label_2
_geom_bond_distance
_ccdc_geom_bond_type
C5    C6    1.522129 S    
C34   C36   1.421566 A    
H6    C11   1.115980 S    
C13   C16   1.417446 A    
C20   C21   1.413025 A    
N2    C45   1.353946 A    
C8    H8    1.113785 S    
C39   H21   1.084985 S    
C32   H25   1.081894 S    
C24   C25   1.388708 A    
Zn1   O7    2.014238 S    
C29   H14   1.082480 S    
C28   H20   1.083777 S    
C42   C44   1.406355 A    
O4    C2    1.300747 A    
C7    C11   1.541496 S    
C10   C11   1.566029 S    
C8    H7    1.113749 S    
C3    C14   1.458279 S    
O1    C1    1.302671 A    
C12   H9    1.114041 S    
O7    C4    1.297153 A    
N3    O10   1.301983 A    
C5    C9    1.559903 S    
C2    C9    1.453881 S    
C5    H1    1.114535 S    
Zn1   O5    1.929389 S    
C6    H3    1.113732 S    
C41   C42   1.404190 A    
O5    C3    1.306430 A    
C22   H18   1.078849 S    
C27   C30   1.394228 A    
C36   C37   1.429217 A    
C7    H11   1.113501 S    
C25   H15   1.084110 S    
C15   C16   1.399923 A    
C37   C43   1.421407 A    
C38   C39   1.388624 A    
N4    O12   1.301050 A    
C35   C39   1.387248 A    
C36   C40   1.422852 A    
Zn2   N1    2.039403 S    
C23   H12   1.084142 S    
C34   C35   1.414577 A    
C13   C17   1.393776 A    
O3    Zn1   2.002547 S    
C31   C35   1.399331 A    
C42   C43   1.419610 A    
C31   H24   1.083859 S    
C15   C19   1.400655 A    
C6    C10   1.553859 S    
C8    C9    1.548742 S    
C18   C20   1.415212 A    
C18   C19   1.413811 A    
N3    O9    1.301252 A    
C33   H26   1.076519 S    
C1    C13   1.466338 S    
C30   H13   1.076880 S    
N1    C32   1.355612 A    
C22   C23   1.387875 A    
Zn1   N2    2.039760 S    
C15   H16   1.084325 S    
C17   H17   1.079309 S    
C26   C27   1.417880 A    
C45   H23   1.082004 S    
Zn2   O8    2.002547 S    
C14   C29   1.400203 A    
N5    O14   1.301202 A    
C46   H22   1.075353 S    
C21   C27   1.415219 A    
C44   C45   1.386995 A    
C11   N3    1.469887 S    
O3    C2    1.290624 A    
O8    C4    1.294221 A    
C28   C29   1.393707 A    
H5    C7    1.114224 S    
C14   C30   1.392093 A    
C21   C22   1.416908 A    
C5    H2    1.114470 S    
C25   C26   1.391709 A    
C24   H19   1.079483 S    
O1    Zn1   1.967829 S    
N2    C46   1.348614 A    
O2    Zn2   1.929389 S    
C41   N5    1.437257 S    
C40   C41   1.399564 A    
O6    C3    1.302643 A    
O4    Zn2   2.014237 S    
C26   C28   1.403475 A    
C16   N4    1.434686 S    
C10   C12   1.555942 S    
C38   Cl1   1.768432 S    
C12   H10   1.110796 S    
C17   C18   1.392367 A    
N5    O13   1.301367 A    
O2    C1    1.308815 A    
C6    H4    1.114530 S    
C7    C9    1.547166 S    
C37   C38   1.430389 A    
C43   C46   1.403832 A    
C8    C12   1.533528 S    
C31   C32   1.386554 A    
C40   Cl2   1.774344 S    
N1    C33   1.350120 A    
C19   C23   1.391627 A    
Zn2   O6    1.967829 S    
C33   C34   1.406616 A    
C20   C24   1.416935 A    
C4    C10   1.454939 S    
N4    O11   1.300980 A    
C44   H27   1.081897 S    
