data_mof_unit_47813.cif
_audit_creation_date              2012-12-10T19:27:32-0500
_audit_creation_method            fapswitch 2.2
_symmetry_space_group_name_H-M    P1
_symmetry_Int_Tables_number       1
_space_group_crystal_system       triclinic
_cell_length_a                    23.319982
_cell_length_b                    10.676438
_cell_length_c                    9.922944
_cell_angle_alpha                 88.624261
_cell_angle_beta                  91.845246
_cell_angle_gamma                 90.390896
_cell_volume                      2468.5203092

loop_
_atom_site_label
_atom_site_type_symbol
_atom_type_description
_atom_site_fract_x
_atom_site_fract_y
_atom_site_fract_z
_atom_type_partial_charge
C1    C     C_R   0.499262 0.257958 0.501686 0.957544
C2    C     C_R   0.501098 0.741696 0.498552 1.003806
C3    C     C_R   0.235168 0.527691 0.606150 -0.128124
C4    C     C_R   0.765558 0.417953 0.556400 -0.124627
C5    C     C_R   0.295072 0.539468 0.604352 0.349792
C6    C     C_R   0.705316 0.411909 0.556196 0.311571
C7    C     C_R   0.325295 0.496840 0.492605 -0.250624
C8    C     C_R   0.672598 0.514522 0.506198 -0.172158
C9    C     C_R   0.293142 0.443571 0.383017 -0.316066
C10   C     C_R   0.699809 0.626440 0.461176 -0.269378
C11   C     C_R   0.233171 0.437887 0.388148 0.351939
C12   C     C_R   0.759651 0.628469 0.454034 0.351106
C13   C     C_R   0.204768 0.508102 0.483225 0.087856
C14   C     C_R   0.792038 0.526763 0.504363 0.116681
C15   C     C_3   0.497211 0.033502 0.629497 -0.293204
C16   C     C_3   0.504673 0.965517 0.371941 -0.210423
C17   C     C_3   0.546692 0.957489 0.573734 -0.209266
C18   C     C_3   0.455226 0.041186 0.428877 -0.222173
C19   C     C_3   0.502521 0.876424 0.496149 -0.246432
C20   C     C_3   0.499317 0.122581 0.505517 -0.268648
C21   C     C_3   0.453331 0.951667 0.552667 0.406435
C22   C     C_3   0.548941 0.047219 0.449552 0.433931
C23   C     C_R   0.389064 0.499929 0.497568 0.956540
C24   C     C_R   0.610178 0.503978 0.501921 0.991501
C25   C     C_3   0.501130 0.387514 0.050455 0.448891
C26   C     C_3   0.498606 0.612234 0.949296 0.450236
C27   C     C_3   0.545010 0.446751 0.957018 -0.184920
C28   C     C_3   0.454618 0.553383 0.043345 -0.194961
C29   C     C_3   0.455793 0.441192 0.949776 -0.196065
C30   C     C_3   0.543627 0.559210 0.049230 -0.207643
C31   C     C_R   0.883403 0.596427 0.592547 0.666102
C32   C     C_R   0.116496 0.538565 0.339501 0.637601
C33   C     C_R   0.877298 0.490666 0.383383 0.562961
C34   C     C_R   0.122665 0.637288 0.544778 0.551420
C35   C     C_R   0.935912 0.512707 0.361157 -0.098261
C36   C     C_R   0.062617 0.639241 0.556136 -0.061361
C37   C     C_R   0.969162 0.571048 0.464510 0.023639
C38   C     C_R   0.029131 0.579451 0.454453 0.021316
C39   C     C_R   0.942448 0.620436 0.578186 -0.072854
C40   C     C_R   0.056053 0.533502 0.339544 -0.092702
C41   C     C_R   0.962094 0.477968 0.240286 -0.228687
C42   C     C_R   0.035549 0.697825 0.663860 -0.256986
C43   C     C_R   0.022209 0.486461 0.230175 -0.075500
C44   C     C_R   0.975424 0.690508 0.673479 -0.094910
N1    N     N_R   0.852968 0.534169 0.495611 -0.325742
N2    N     N_R   0.146689 0.556826 0.457866 -0.314586
N3    N     N_3   0.499960 0.500030 0.863290 -0.172046
N4    N     N_3   0.500040 0.499970 0.136710 -0.175978
O1    O     O_R   0.500000 0.313960 0.616610 -0.612959
O2    O     O_R   0.500000 0.686040 0.383390 -0.586814
O3    O     O_R   0.500030 0.313950 0.383350 -0.552345
O4    O     O_R   0.499970 0.686050 0.616650 -0.529288
O5    O     O_R   0.416140 0.499970 0.616650 -0.577119
O6    O     O_R   0.583860 0.500030 0.383350 -0.558448
O7    O     O_R   0.416170 0.499960 0.383400 -0.592131
O8    O     O_R   0.583830 0.500040 0.616600 -0.579318
O9    O     O_2   0.856143 0.631408 0.703316 -0.477433
O10   O     O_2   0.144358 0.536960 0.222760 -0.484097
O11   O     O_2   0.844350 0.424802 0.295741 -0.486180
O12   O     O_2   0.156472 0.718635 0.612853 -0.498382
Zn1   Zn    Zn3+2 0.499980 0.500010 0.655740 1.091487
Zn2   Zn    Zn3+2 0.500020 0.499990 0.344260 1.096528
C45   C     C_2   0.927137 0.435048 0.121327 1.115922
O13   O     O_2   0.932457 0.328381 0.082004 -0.515225
O14   O     O_R   0.888442 0.515598 0.053168 -0.652492
H1    H     H_    0.888106 0.602112 0.092983 0.349385
C46   C     C_2   0.069283 0.764920 0.770152 1.118516
O15   O     O_2   0.098980 0.705448 0.852183 -0.467081
O16   O     O_R   0.066824 0.895207 0.778810 -0.694516
H2    H     H_    0.041710 0.935025 0.704562 0.319224
C47   C     C_2   0.602100 0.398751 0.916113 1.064242
O17   O     O_2   0.617421 0.293451 0.951061 -0.477475
O18   O     O_R   0.640532 0.481171 0.854407 -0.775328
H3    H     H_    0.680089 0.443887 0.846591 0.372711
C48   C     C_2   0.403646 0.624414 0.090257 1.098730
O19   O     O_2   0.361203 0.636282 0.016351 -0.475357
O20   O     O_R   0.405590 0.682655 0.214325 -0.740040
H4    H     H_    0.368771 0.728142 0.233179 0.353534
Cl1   Cl    Cl    0.500539 0.230967 0.113687 -0.419426
Cl2   Cl    Cl    0.495291 0.768286 0.885162 -0.455632
C49   C     C_2   0.405840 0.370481 0.889017 1.108319
O21   O     O_2   0.357088 0.394063 0.920499 -0.504100
O22   O     O_R   0.415081 0.278654 0.795106 -0.754886
H5    H     H_    0.378085 0.239552 0.759140 0.369147
C50   C     C_2   0.597674 0.622352 0.099056 1.071840
O23   O     O_2   0.635158 0.560588 0.157517 -0.562073
O24   O     O_R   0.607482 0.748232 0.066370 -0.744010
H6    H     H_    0.646788 0.778385 0.098558 0.391410
C51   C     C_2   0.048164 0.441294 0.105523 1.049119
O25   O     O_2   0.080653 0.351794 0.111153 -0.498818
O26   O     O_R   0.032519 0.497323 0.981087 -0.753710
H7    H     H_    0.049330 0.453409 0.902280 0.356704
C52   C     C_2   0.947843 0.761002 0.781169 1.013308
O27   O     O_2   0.958979 0.735419 0.899880 -0.557415
O28   O     O_R   0.909771 0.857805 0.745760 -0.728993
H8    H     H_    0.893875 0.899212 0.827393 0.378771
C53   C     C_2   0.205467 0.509337 0.736357 1.081220
O29   O     O_2   0.223056 0.559560 0.839239 -0.447561
O30   O     O_R   0.157412 0.430530 0.741022 -0.788806
H9    H     H_    0.142643 0.419897 0.835507 0.374804
C54   C     C_2   0.801228 0.310650 0.606794 1.047913
O31   O     O_2   0.787805 0.203504 0.577635 -0.475482
O32   O     O_R   0.850790 0.332232 0.686094 -0.764495
H10   H     H_    0.871641 0.252055 0.713221 0.373029
Cl3   Cl    Cl    0.329478 0.627148 0.731963 -0.343216
Cl4   Cl    Cl    0.670472 0.278355 0.625001 -0.475436
C55   C     C_2   0.318355 0.401000 0.256033 1.051583
O33   O     O_2   0.360237 0.333403 0.258467 -0.549517
O34   O     O_R   0.292628 0.433932 0.131109 -0.644313
H11   H     H_    0.260945 0.497832 0.136868 0.372489
C56   C     C_2   0.667318 0.744013 0.427948 1.019916
O35   O     O_2   0.621948 0.740591 0.363976 -0.594239
O36   O     O_R   0.687790 0.860562 0.470145 -0.660870
H12   H     H_    0.719710 0.854121 0.541604 0.360455
Cl5   Cl    Cl    0.196939 0.312678 0.306399 -0.432418
Cl6   Cl    Cl    0.795514 0.754087 0.371245 -0.491884
C57   C     C_2   0.597470 0.913372 0.659085 1.046389
O37   O     O_2   0.632178 0.989713 0.702639 -0.510699
O38   O     O_R   0.604839 0.785987 0.689452 -0.777852
H13   H     H_    0.640397 0.768634 0.748224 0.365102
C58   C     C_2   0.400125 0.082724 0.360693 1.078125
O39   O     O_2   0.392389 0.071187 0.239287 -0.491042
O40   O     O_R   0.356577 0.128755 0.439094 -0.755446
H14   H     H_    0.319241 0.142056 0.385708 0.382502
C59   C     C_2   0.493869 0.069234 0.774356 1.130919
O41   O     O_2   0.453296 0.034899 0.840773 -0.419636
O42   O     O_R   0.537070 0.141014 0.834613 -0.709709
H15   H     H_    0.567324 0.167508 0.768727 0.358997
C60   C     C_2   0.509851 0.934436 0.226164 1.152916
O43   O     O_2   0.470399 0.881732 0.166826 -0.525066
O44   O     O_R   0.558510 0.971609 0.156892 -0.653443
H16   H     H_    0.554406 0.957280 0.056481 0.410434
Cl7   Cl    Cl    0.389074 0.886696 0.617972 -0.393838
Cl8   Cl    Cl    0.612535 0.113592 0.381550 -0.326172

loop_
_geom_bond_atom_site_label_1
_geom_bond_atom_site_label_2
_ccdc_geom_bond_type
O24   H6    S    
C45   O14   S    
C52   O27   D    
C8    C24   S    
C18   C21   S    
C33   N1    A    
O18   H3    S    
C36   C42   A    
C56   O35   D    
C32   O10   S    
C49   O21   D    
O40   H14   S    
C5    Cl3   S    
O20   H4    S    
C43   C51   S    
C29   N3    S    
C30   N4    S    
C28   C29   S    
C35   C37   A    
O36   H12   S    
O4    Zn1   S    
C57   O38   S    
C13   N2    S    
C24   O6    A    
O7    Zn2   S    
C53   O29   D    
C15   C17   S    
C52   O28   S    
C44   C52   S    
C2    O2    A    
C53   O30   S    
O5    Zn1   S    
C40   C43   A    
O30   H9    S    
C55   O33   D    
C34   N2    A    
C51   O26   S    
C11   Cl5   S    
C18   C20   S    
C3    C13   A    
C17   C57   S    
C59   O41   D    
C33   O11   S    
C27   C30   S    
C34   O12   S    
C41   C43   A    
O3    Zn2   S    
C42   C44   A    
C10   C12   A    
C21   Cl7   S    
C49   O22   S    
C23   O5    A    
C14   N1    S    
C50   O24   S    
C25   C29   S    
C15   C20   S    
O1    Zn1   S    
C46   O15   D    
C54   O31   D    
C4    C6    A    
O26   H7    S    
C47   O18   S    
C17   C19   S    
C6    C8    A    
O6    Zn2   S    
C50   O23   D    
C26   Cl2   S    
C46   O16   S    
C48   O19   D    
C29   C49   S    
C37   C38   A    
C9    C11   A    
C3    C53   S    
N4    Zn2   S    
O22   H5    S    
C4    C54   S    
C6    Cl4   S    
C10   C56   S    
C56   O36   S    
C16   C18   S    
C30   C50   S    
C16   C60   S    
C48   O20   S    
C25   N4    S    
C58   O39   D    
C2    O4    A    
C26   N3    S    
C8    C10   A    
C22   Cl8   S    
C26   C30   S    
C15   C59   S    
C42   C46   S    
O2    Zn2   S    
C24   O8    A    
C41   C45   S    
O44   H16   S    
O32   H10   S    
C27   C47   S    
C5    C7    A    
C60   O43   D    
C27   N3    S    
C7    C9    A    
C28   N4    S    
C1    C20   S    
C16   C22   S    
C19   C21   S    
C2    C19   S    
C25   Cl1   S    
C32   N2    A    
C20   C22   S    
C3    C5    A    
N3    Zn1   S    
O38   H13   S    
C23   O7    A    
C39   C44   A    
C25   C27   S    
C26   C28   S    
C17   C22   S    
C1    O3    A    
C31   O9    S    
C36   C38   A    
C12   C14   A    
C9    C55   S    
C47   O17   D    
C37   C39   A    
O34   H11   S    
C38   C40   A    
C11   C13   A    
C55   O34   S    
C16   C19   S    
C7    C23   S    
C33   C35   A    
C31   C39   A    
C34   C36   A    
C32   C40   A    
C4    C14   A    
O16   H2    S    
C35   C41   A    
C58   O40   S    
C18   C58   S    
C45   O13   D    
C15   C21   S    
C54   O32   S    
O14   H1    S    
C31   N1    A    
O28   H8    S    
C59   O42   S    
O8    Zn1   S    
C60   O44   S    
C51   O25   D    
C57   O37   D    
C28   C48   S    
C1    O1    A    
O42   H15   S    
C12   Cl6   S    
