data_mof_unit_41930.cif
_audit_creation_date              2012-12-11T15:12:01-0500
_audit_creation_method            fapswitch 2.2
_symmetry_space_group_name_H-M    P1
_symmetry_Int_Tables_number       1
_space_group_crystal_system       triclinic
_cell_length_a                    8.261331
_cell_length_b                    17.515074
_cell_length_c                    19.163411
_cell_angle_alpha                 95.151683
_cell_angle_beta                  94.705121
_cell_angle_gamma                 95.859299
_cell_volume                      2735.61180021

loop_
_atom_site_label
_atom_site_type_symbol
_atom_type_description
_atom_site_fract_x
_atom_site_fract_y
_atom_site_fract_z
_atom_type_partial_charge
Ba1   Ba    Ba6+2 0.157360 0.537160 0.466280 1.720465
Ba2   Ba    Ba6+2 0.652820 0.462830 0.533660 1.735697
C1    C     C_3   0.362690 0.738878 0.201880 -0.348156
C2    C     C_3   0.396444 0.712433 0.274483 0.329670
C3    C     C_3   0.437004 0.707362 0.663563 0.203292
C4    C     C_3   0.448911 0.788146 0.703336 -0.293358
C5    C     C_3   0.944106 0.256508 0.724247 0.170803
C6    C     C_3   0.894492 0.171476 0.733523 -0.223913
C7    C     C_3   0.399764 0.296574 0.725126 0.393073
C8    C     C_3   0.402180 0.270056 0.798442 -0.321367
C9    C     C_R   0.724672 0.723962 0.466097 -0.198905
C10   C     C_R   0.868179 0.748252 0.509274 -0.024327
C11   C     C_R   0.923414 0.828929 0.520122 -0.127352
C12   C     C_3   0.918080 0.754162 0.317691 0.304264
C13   C     C_R   0.824874 0.883361 0.491124 -0.008611
C14   C     C_R   0.671459 0.856049 0.455230 -0.159610
C15   C     C_R   0.620350 0.776792 0.443800 0.022851
C16   C     C_R   0.881515 0.174934 0.487043 -0.099829
C17   C     C_R   0.943609 0.253913 0.492270 0.039349
C18   C     C_R   0.194171 0.223524 0.555145 -0.071046
C19   C     C_R   0.129544 0.145411 0.553776 -0.130224
C20   C     C_R   0.973007 0.119995 0.517794 -0.038892
C21   C     C_1   0.913505 0.037080 0.507863 0.097954
C22   C     C_1   0.872398 0.967410 0.500483 0.121425
C23   C     C_3   0.912145 0.834039 0.291978 -0.258344
C24   C     C_R   0.098045 0.276794 0.527124 -0.287110
C25   C     C_R   0.588627 0.553538 0.300649 -0.237337
C26   C     C_R   0.449103 0.502102 0.278232 0.066523
C27   C     C_R   0.398963 0.488963 0.205697 -0.070094
C28   C     C_R   0.497014 0.519926 0.155628 0.032168
C29   C     C_R   0.648810 0.562287 0.179656 -0.144332
C30   C     C_R   0.697549 0.576604 0.251865 0.003268
C31   C     C_R   0.447911 0.571939 0.039700 -0.156208
C32   C     C_R   0.391340 0.566265 0.967978 -0.046485
C33   C     C_R   0.335195 0.492791 0.931919 0.062697
C34   C     C_3   0.842167 0.338875 0.303987 0.264594
C35   C     C_R   0.331186 0.427967 0.970275 -0.157135
C36   C     C_R   0.387847 0.433670 0.042132 -0.024196
C37   C     C_R   0.444613 0.507201 0.078206 0.072383
C38   C     C_R   0.132520 0.443355 0.827812 -0.134011
C39   C     C_R   0.085879 0.435040 0.755157 -0.002881
C40   C     C_R   0.346573 0.501668 0.733889 0.023539
C41   C     C_R   0.394751 0.509583 0.806403 -0.054285
C42   C     C_R   0.287551 0.481081 0.854282 0.039442
C43   C     C_R   0.194984 0.462274 0.708820 -0.274081
C44   C     C_3   0.792287 0.292870 0.232161 -0.380255
C45   C     C_3   0.002589 0.621557 0.679446 0.286485
C46   C     C_3   0.965646 0.635725 0.755738 -0.324602
C47   C     C_3   0.247320 0.293401 0.353111 0.299626
C48   C     C_3   0.170672 0.222355 0.303401 -0.228195
H1    H     H_    0.325716 0.655168 0.275721 0.073525
H2    H     H_    0.657239 0.286453 0.220767 0.178903
H3    H     H_    0.829287 0.233933 0.231117 0.178433
H4    H     H_    0.913180 0.574015 0.654298 0.103832
H5    H     H_    0.058457 0.679657 0.785003 0.155118
H6    H     H_    0.153439 0.321669 0.380257 -0.184100
H7    H     H_    0.229588 0.740443 0.189447 0.142517
H8    H     H_    0.098139 0.241722 0.258552 0.092817
H9    H     H_    0.268833 0.192419 0.280084 0.129023
H10   H     H_    0.529124 0.707608 0.282858 -0.065698
H11   H     H_    0.406297 0.697978 0.162053 0.064386
H12   H     H_    0.417691 0.830977 0.666335 0.037653
H13   H     H_    0.838598 0.868089 0.326688 0.087410
H14   H     H_    0.983293 0.260144 0.670289 0.001715
H15   H     H_    0.048736 0.277532 0.763759 -0.000552
H16   H     H_    0.998913 0.139101 0.720528 0.084025
H17   H     H_    0.274041 0.308801 0.708622 -0.119568
H18   H     H_    0.484077 0.350373 0.727138 0.086214
H19   H     H_    0.358662 0.314684 0.834800 0.045257
H20   H     H_    0.528424 0.260946 0.817662 0.133909
H21   H     H_    0.996883 0.758729 0.368108 0.075797
H22   H     H_    0.590480 0.896485 0.436989 0.109502
H23   H     H_    0.147417 0.336702 0.529558 0.056386
H24   H     H_    0.511821 0.541097 0.825755 0.078582
H25   H     H_    0.286515 0.452490 0.188247 0.078131
H26   H     H_    0.289047 0.371630 0.943133 0.062364
H27   H     H_    0.624938 0.565755 0.356322 0.099584
H28   H     H_    0.974598 0.349837 0.310473 0.026131
O1    O     O_2   0.143190 0.684560 0.534150 -0.449546
O2    O     O_3   0.336249 0.342708 0.312491 -0.635914
O3    O     O_3   0.978423 0.703725 0.267078 -0.612926
O4    O     O_2   0.667110 0.315390 0.465830 -0.418110
O5    O     O_3   0.927950 0.409760 0.464380 -0.453347
O6    O     O_3   0.437660 0.360670 0.591630 -0.494008
O7    O     O_3   0.778372 0.295541 0.355395 -0.576543
O8    O     O_3   0.379150 0.537830 0.583060 -0.434112
O9    O     O_3   0.857920 0.398470 0.626650 -0.475855
O10   O     O_2   0.749699 0.444070 0.748967 -0.500096
O11   O     O_3   0.814215 0.300964 0.734910 -0.585765
O12   O     O_3   0.882350 0.590230 0.535560 -0.473135
O13   O     O_3   0.431150 0.462160 0.416880 -0.467780
O14   O     O_2   0.634060 0.535220 0.669530 -0.458971
O15   O     O_3   0.500393 0.656434 0.708041 -0.641668
O16   O     O_2   0.536142 0.225573 0.550954 -0.466842
O17   O     O_3   0.450767 0.238942 0.678984 -0.569129
O18   O     O_3   0.372640 0.639320 0.408320 -0.454773
O19   O     O_2   0.287193 0.774565 0.456266 -0.441192
O20   O     O_3   0.997008 0.690542 0.647270 -0.665645
O21   O     O_3   0.348826 0.766294 0.325335 -0.601215
O22   O     O_2   0.176230 0.464730 0.330450 -0.473806
O23   O     O_3   0.952380 0.601530 0.373300 -0.435381
O24   O     O_2   0.031078 0.558198 0.246142 -0.494735
P1    P     P_3+3 0.970290 0.672580 0.555000 0.987826
P2    P     P_3+3 0.347000 0.441860 0.341200 1.026050
P3    P     P_3+3 0.914310 0.608984 0.283281 0.987853
P4    P     P_3+3 0.840010 0.327410 0.444950 1.092904
P5    P     P_3+3 0.877797 0.395517 0.718069 0.955868
P6    P     P_3+3 0.408792 0.739849 0.408622 1.027447
P7    P     P_3+3 0.456803 0.559109 0.673026 0.986573
P8    P     P_3+3 0.404726 0.260767 0.592903 0.965916
H29   H     H_    0.849527 0.322344 0.189846 0.080722
H30   H     H_    0.125219 0.602441 0.678020 -0.060548
H31   H     H_    0.966985 0.581603 0.781562 0.092917
H32   H     H_    0.843093 0.656107 0.758164 0.137380
C49   C     C_2   0.359233 0.270180 0.409876 0.489615
H33   H     H_    0.381791 0.308528 0.457659 0.021641
O25   O     O_2   0.424530 0.210665 0.403368 -0.575410
C50   C     C_2   0.068126 0.165177 0.339984 0.441551
H34   H     H_    0.122366 0.139049 0.384146 0.050069
O26   O     O_2   0.924752 0.146094 0.319550 -0.553717
C51   C     C_2   0.535406 0.711538 0.602533 0.534358
H35   H     H_    0.653375 0.745781 0.607680 -0.124707
O27   O     O_2   0.484729 0.673649 0.547523 -0.566680
H36   H     H_    0.308094 0.688557 0.645551 0.049413
H37   H     H_    0.576466 0.805463 0.727001 0.136017
C52   C     C_2   0.333639 0.790888 0.759623 0.615812
H38   H     H_    0.203247 0.786682 0.745141 -0.007550
O28   O     O_2   0.385491 0.799667 0.821633 -0.521535
H39   H     H_    0.427803 0.797151 0.199487 0.122541
C53   C     C_2   0.750188 0.138471 0.682553 0.580255
H40   H     H_    0.755073 0.144352 0.626916 0.002241
O29   O     O_2   0.628354 0.104407 0.702317 -0.548380
C54   C     C_2   0.862545 0.162307 0.808816 0.595536
H41   H     H_    0.765282 0.189956 0.831964 0.023537
O30   O     O_2   0.946016 0.123972 0.844369 -0.553554
H42   H     H_    0.320864 0.215357 0.797677 0.145857
H43   H     H_    0.764533 0.156068 0.457651 0.147602
C55   C     C_2   0.224753 0.091930 0.591422 0.579149
H44   H     H_    0.356506 0.095960 0.591106 0.059986
O31   O     O_2   0.157271 0.045090 0.626048 -0.554794
C56   C     C_2   0.082259 0.855109 0.561072 0.621842
H45   H     H_    0.123347 0.825256 0.605240 -0.038181
O32   O     O_2   0.172610 0.908335 0.543901 -0.537824
H46   H     H_    0.685418 0.662895 0.455919 0.092008
C57   C     C_2   0.386253 0.639435 0.934735 0.503259
H47   H     H_    0.461866 0.691053 0.958461 0.030002
O33   O     O_2   0.293163 0.644208 0.882878 -0.573093
H48   H     H_    0.491171 0.628273 0.066478 0.055555
H49   H     H_    0.791311 0.733733 0.327619 -0.092087
C58   C     C_2   0.394219 0.360463 0.075064 0.465998
H50   H     H_    0.316848 0.309081 0.052002 0.014947
O34   O     O_2   0.490544 0.355342 0.125739 -0.603159
H51   H     H_    0.046816 0.422820 0.863592 0.072482
H52   H     H_    0.732039 0.581024 0.142192 0.080910
H53   H     H_    0.157037 0.457870 0.653060 0.052859
C59   C     C_2   0.079711 0.876048 0.292789 0.578281
H54   H     H_    0.161831 0.857344 0.255098 0.033790
O35   O     O_2   0.123918 0.932102 0.335117 -0.550390
H55   H     H_    0.850360 0.828629 0.237765 0.068111
C60   C     C_2   0.774222 0.413305 0.303598 0.495299
H56   H     H_    0.713044 0.428279 0.255491 -0.066964
O36   O     O_2   0.792241 0.458429 0.356273 -0.568637

loop_
_geom_bond_atom_site_label_1
_geom_bond_atom_site_label_2
_ccdc_geom_bond_type
C46   H5    S    
C6    H16   S    
C52   H38   S    
C44   H2    S    
C1    H39   S    
C12   H21   S    
Ba2   O6    S    
C14   H22   S    
O13   P2    S    
C57   H47   S    
C5    C6    S    
O21   P6    S    
C3    H36   S    
C31   C37   A    
C45   O20   S    
O2    P2    S    
C48   H9    S    
C59   H54   S    
C33   C35   A    
C40   P7    S    
C8    H42   S    
C32   C33   A    
C56   O32   D    
C3    C4    S    
C32   C57   S    
O14   P7    D    
C13   C14   A    
C5    O11   S    
C3    C51   S    
O22   P2    D    
C24   H23   S    
C12   H49   S    
O24   P3    D    
Ba1   Ba2   S    
C23   H13   S    
Ba2   O12   S    
C17   C24   A    
C50   H34   S    
O19   P6    D    
C9    C15   A    
C29   C30   A    
C14   C15   A    
C49   O25   D    
O20   P1    S    
C23   H55   S    
C21   C22   T    
C34   C44   S    
C43   H53   S    
C11   C56   S    
C27   C28   A    
C7    C8    S    
Ba1   P1    S    
C41   H24   S    
O18   P6    S    
Ba1   O13   S    
C16   C20   A    
C44   H29   S    
C23   C59   S    
O1    P1    D    
Ba2   O5    S    
C19   C55   S    
Ba1   O22   S    
C57   O33   D    
C1    H11   S    
O23   P3    S    
O12   P1    S    
O3    P3    S    
C2    H1    S    
C48   H8    S    
O8    P7    S    
C25   C30   A    
C4    C52   S    
C10   P1    S    
C15   P6    S    
O10   P5    D    
C8    H19   S    
C16   C17   A    
Ba2   P4    S    
O6    P8    S    
C40   C43   A    
C60   O36   D    
C16   H43   S    
C53   O29   D    
C41   C42   A    
C7    H17   S    
C35   C36   A    
C31   H48   S    
C5    H15   S    
C26   P2    S    
C45   C46   S    
C28   C29   A    
C2    H10   S    
C31   C32   A    
Ba2   O9    S    
C10   C11   A    
Ba2   O14   S    
C33   C42   S    
Ba1   P2    S    
C51   H35   S    
C55   O31   D    
C45   H4    S    
C18   P8    S    
C1    H7    S    
C13   C22   S    
C47   C49   S    
C35   H26   S    
Ba1   O23   S    
C30   P3    S    
C11   C13   A    
C6    C53   S    
C54   H41   S    
Ba1   O1    S    
C58   O34   D    
C38   H51   S    
Ba2   O4    S    
C40   C41   A    
C1    C2    S    
Ba1   O12   S    
C8    H20   S    
C29   H52   S    
C46   H32   S    
C9    H46   S    
Ba1   O8    S    
C7    O17   S    
C26   C27   A    
C52   O28   D    
C39   P5    S    
C6    C54   S    
C48   C50   S    
C20   C21   S    
O7    P4    S    
C4    H37   S    
C25   H27   S    
O17   P8    S    
C3    O15   S    
C9    C10   A    
O5    P4    S    
C27   H25   S    
C34   O7    S    
Ba1   O5    S    
C47   H6    S    
C45   H30   S    
C47   O2    S    
C60   H56   S    
C4    H12   S    
C59   O35   D    
C53   H40   S    
C7    H18   S    
C34   H28   S    
C56   H45   S    
C36   C37   A    
C18   C24   A    
Ba1   O18   S    
C44   H3    S    
O16   P8    D    
C28   C37   S    
Ba2   O8    S    
O4    P4    D    
C12   C23   S    
Ba2   O13   S    
C50   O26   D    
C5    H14   S    
C51   O27   D    
C55   H44   S    
C34   C60   S    
O11   P5    S    
C17   P4    S    
C38   C42   A    
O9    P5    S    
C18   C19   A    
C47   C48   S    
C2    O21   S    
C25   C26   A    
C54   O30   D    
C39   C43   A    
C58   H50   S    
C38   C39   A    
C12   O3    S    
C19   C20   A    
C36   C58   S    
C49   H33   S    
O15   P7    S    
C46   H31   S    
