data_mof_unit_38869.cif
_audit_creation_date              2012-10-26T19:04:42-0400
_audit_creation_method            fapswitch 2.2
_symmetry_space_group_name_H-M    P1
_symmetry_Int_Tables_number       1
_space_group_crystal_system       triclinic
_cell_length_a                    9.624221
_cell_length_b                    10.775905
_cell_length_c                    13.462636
_cell_angle_alpha                 93.340587
_cell_angle_beta                  72.090083
_cell_angle_gamma                 88.650698
_cell_volume                      1325.02557665

loop_
_atom_site_label
_atom_site_type_symbol
_atom_type_description
_atom_site_fract_x
_atom_site_fract_y
_atom_site_fract_z
_atom_type_partial_charge
C1    C     C_R   0.493612 0.738050 0.511056 0.540486
C2    C     C_R   0.372847 0.491602 0.814644 -0.006536
C3    C     C_R   0.214823 0.886715 0.625338 -0.099589
C4    C     C_R   0.421354 0.494846 0.699736 0.513962
C5    C     C_R   0.085153 0.957573 0.669587 -0.127051
C6    C     C_R   0.085610 0.086442 0.671355 -0.117221
C7    C     C_R   0.215811 0.145358 0.629050 -0.092575
C8    C     C_R   0.348345 0.075674 0.579487 0.028631
C9    C     C_R   0.347820 0.943492 0.577277 0.032203
C10   C     C_R   0.482599 0.873776 0.532572 -0.011196
C11   C     C_R   0.613688 0.935172 0.513431 -0.155808
C12   C     C_R   0.433186 0.489114 0.978834 0.034099
C13   C     C_R   0.613005 0.062985 0.521395 -0.160478
C14   C     C_R   0.483768 0.133422 0.538845 -0.025130
C15   C     C_R   0.940002 0.376010 0.326805 0.092203
C16   C     C_R   0.494491 0.264707 0.514059 0.550711
C17   C     C_R   0.058863 0.357093 0.234971 -0.175396
C18   C     C_R   0.196695 0.338621 0.244005 -0.187464
C19   C     C_R   0.217607 0.363789 0.340120 -0.068011
C20   C     C_R   0.111355 0.434307 0.420445 0.145794
C21   C     C_R   0.963532 0.437029 0.417511 0.128446
C22   C     C_R   0.891102 0.560256 0.577704 -0.005395
C23   C     C_R   0.470515 0.457082 0.869767 0.026355
C24   C     C_R   0.038847 0.560746 0.577352 -0.006709
C25   C     C_R   0.578476 0.501285 0.299931 0.589027
C26   C     C_R   0.793825 0.411178 0.019519 0.263067
C27   C     C_R   0.622466 0.490650 0.184954 -0.037597
C28   C     C_R   0.230909 0.537086 0.870600 -0.099895
C29   C     C_R   0.188834 0.556661 0.978626 -0.106510
C30   C     C_R   0.288977 0.536490 0.032203 -0.124958
C31   C     C_2   0.853907 0.264482 0.336013 0.607269
C32   C     C_3   0.944405 0.238137 0.974534 -0.137606
C33   C     C_R   0.542030 0.473303 0.029512 -0.015831
C34   C     C_R   0.683125 0.421567 0.971507 0.056072
C35   C     C_R   0.710574 0.378240 0.867320 -0.136652
C36   C     C_R   0.604315 0.391398 0.818667 -0.143474
C37   C     C_R   0.515292 0.507672 0.136119 -0.166505
C38   C     C_R   0.763664 0.450538 0.124947 -0.088447
Cu1   Cu    Cu3+1 0.359340 0.500010 0.500010 0.918775
Cu2   Cu    Cu3+1 0.640660 0.499990 0.499990 0.959327
H1    H     H_    0.848961 0.444372 0.160670 0.143860
H2    H     H_    0.317849 0.327983 0.348113 0.192316
H3    H     H_    0.814534 0.333119 0.822542 0.143674
H4    H     H_    0.064778 0.610236 0.641085 0.097132
H5    H     H_    0.410644 0.546310 0.184153 0.140231
H6    H     H_    0.153316 0.561711 0.830553 0.138117
H7    H     H_    0.248718 0.558376 0.115336 0.113310
H8    H     H_    0.079121 0.592371 0.020943 0.135508
H9    H     H_    0.628800 0.347811 0.740571 0.148161
H10   H     H_    0.718637 0.884684 0.489897 0.157883
H11   H     H_    0.702056 0.167685 0.293458 0.325233
H12   H     H_    0.209285 0.788456 0.635314 0.132034
H13   H     H_    0.872010 0.186015 0.938144 0.111304
H14   H     H_    0.918509 0.217309 0.058096 0.139373
H15   H     H_    0.058547 0.203965 0.933646 0.145800
H16   H     H_    0.984654 0.912300 0.706010 0.103102
H17   H     H_    0.985510 0.141226 0.709180 0.107683
H18   H     H_    0.211188 0.245331 0.641756 0.156129
H19   H     H_    0.714865 0.106477 0.511259 0.202086
H20   H     H_    0.807805 0.610190 0.641332 0.122493
H21   H     H_    0.043385 0.320263 0.162789 0.134082
H22   H     H_    0.284349 0.295980 0.178777 0.137643
N1    N     N_R   0.852480 0.498790 0.499000 -0.255013
N2    N     N_R   0.148360 0.498710 0.498970 -0.245454
O1    O     O_R   0.381190 0.680360 0.500010 -0.501166
O2    O     O_R   0.746284 0.252433 0.286595 -0.716651
O3    O     O_3   0.933522 0.366942 0.962932 -0.591853
O4    O     O_R   0.618760 0.680340 0.500000 -0.504947
O5    O     O_R   0.323240 0.499990 0.650990 -0.523925
O6    O     O_R   0.560820 0.499960 0.650980 -0.518281
O7    O     O_R   0.381240 0.319660 0.500000 -0.527497
O8    O     O_R   0.618810 0.319640 0.499990 -0.477795
O9    O     O_R   0.439180 0.500040 0.349020 -0.518599
O10   O     O_R   0.676760 0.500010 0.349010 -0.477389
O11   O     O_2   0.893408 0.174844 0.373514 -0.558975

loop_
_geom_bond_atom_site_label_1
_geom_bond_atom_site_label_2
_ccdc_geom_bond_type
C31   O2    S    
C5    H16   S    
C35   C36   A    
C16   O8    A    
C4    O6    A    
C7    C8    A    
Cu1   N2    S    
C12   C23   A    
C28   H6    S    
Cu2   N1    S    
Cu2   O6    S    
C26   O3    S    
C28   C29   A    
C25   O10   A    
C22   H20   S    
C5    C6    A    
C34   C35   A    
C27   C38   A    
C1    O4    A    
C18   C19   A    
C17   H21   S    
C22   N1    A    
C26   C34   A    
C19   C20   A    
C8    C9    A    
C1    O1    A    
C14   C16   S    
C35   H3    S    
C9    C10   A    
C7    H18   S    
C19   H2    S    
C32   H15   S    
C24   N2    A    
C13   C14   A    
Cu1   O1    S    
C6    H17   S    
C16   O7    A    
C32   H14   S    
C4    O5    A    
C33   C34   A    
C29   H8    S    
C30   H7    S    
C38   H1    S    
Cu1   Cu2   S    
C26   C38   A    
C33   C37   A    
H11   O2    S    
C20   N2    A    
C2    C4    S    
C29   C30   A    
C3    C9    A    
C31   O11   D    
C17   C18   A    
Cu1   O5    S    
C32   O3    S    
C24   H4    S    
C22   C24   A    
C37   H5    S    
C32   H13   S    
C15   C17   A    
C8    C14   A    
Cu2   O8    S    
C12   C30   A    
C18   H22   S    
C1    C10   S    
C3    C5    A    
C3    H12   S    
C15   C31   S    
C6    C7    A    
C13   H19   S    
C25   C27   S    
C11   H10   S    
C11   C13   A    
C27   C37   A    
Cu2   O10   S    
C25   O9    A    
Cu1   O9    S    
C21   N1    A    
C10   C11   A    
C15   C21   A    
C20   C21   A    
C23   C36   A    
Cu2   O4    S    
C2    C23   A    
Cu1   O7    S    
C2    C28   A    
C12   C33   A    
C36   H9    S    
