data_mof_unit_63562.cif
_audit_creation_date              2012-12-10T19:01:40-0500
_audit_creation_method            fapswitch 2.2
_symmetry_space_group_name_H-M    P1
_symmetry_Int_Tables_number       1
_space_group_crystal_system       triclinic
_cell_length_a                    14.259981
_cell_length_b                    13.361563
_cell_length_c                    10.574415
_cell_angle_alpha                 90.006488
_cell_angle_beta                  90.267491
_cell_angle_gamma                 90.00159
_cell_volume                      2014.78090078

loop_
_atom_site_label
_atom_site_type_symbol
_atom_type_description
_atom_site_fract_x
_atom_site_fract_y
_atom_site_fract_z
_atom_type_partial_charge
C1    C     C_R   0.326529 0.499999 0.500497 0.919620
C2    C     C_3   0.552601 0.422473 0.966703 0.220585
C3    C     C_3   0.541318 0.584604 0.965149 0.209913
C4    C     C_3   0.458679 0.415396 0.034852 0.209912
C5    C     C_3   0.413019 0.492754 0.945453 -0.270850
C6    C     C_3   0.586979 0.507246 0.054547 -0.270877
C7    C     C_3   0.508954 0.499987 0.877613 -0.189420
C8    C     C_3   0.491044 0.500013 0.122387 -0.189414
C9    C     C_1   0.500000 0.169407 0.500002 0.063225
C10   C     C_1   0.500000 0.830593 0.499997 0.063232
C11   C     C_1   0.225895 0.499997 0.500282 -0.230114
C12   C     C_R   0.673471 0.500001 0.499503 0.919621
C13   C     C_1   0.774105 0.500002 0.499718 -0.230116
C14   C     C_1   0.141335 0.499998 0.500156 -0.009362
C15   C     C_1   0.858665 0.500002 0.499844 -0.009361
C16   C     C_3   0.351372 0.721737 0.975248 -0.749886
C17   C     C_3   0.648615 0.278256 0.024754 -0.749848
C18   C     C_3   0.620957 0.741066 0.017856 -0.779288
C19   C     C_3   0.379010 0.258954 0.982132 -0.779271
C20   C     C_1   0.042279 0.499999 0.500044 0.007084
C21   C     C_1   0.957721 0.500000 0.499956 0.007084
C22   C     C_1   0.500000 0.049527 0.500001 -0.051688
C23   C     C_1   0.500000 0.950473 0.499999 -0.051690
C24   C     C_R   0.484052 0.500003 0.255858 0.910107
C25   C     C_R   0.515947 0.499996 0.744143 0.910117
C26   C     C_3   0.447396 0.577527 0.033297 0.220603
H1    H     H_    0.343702 0.486839 0.897797 0.155310
H2    H     H_    0.688947 0.324753 0.092995 0.245201
H3    H     H_    0.635302 0.661252 0.851189 0.223565
H4    H     H_    0.648901 0.810302 0.973893 0.238999
H5    H     H_    0.678298 0.704163 0.071927 0.235017
H6    H     H_    0.563925 0.762625 0.083278 0.249418
H7    H     H_    0.364725 0.338730 0.148843 0.223568
H8    H     H_    0.351134 0.189682 0.026081 0.239010
H9    H     H_    0.436005 0.237461 0.916613 0.249415
H10   H     H_    0.321610 0.295852 0.928166 0.234996
H11   H     H_    0.656295 0.513160 0.102202 0.155308
H12   H     H_    0.418648 0.700777 0.148403 0.232896
H13   H     H_    0.303089 0.778070 0.016364 0.231888
H14   H     H_    0.311029 0.675237 0.907022 0.245204
H15   H     H_    0.408468 0.761509 0.924859 0.259550
H16   H     H_    0.581347 0.299223 0.851596 0.232893
H17   H     H_    0.696905 0.221928 0.983641 0.231883
H18   H     H_    0.591514 0.238477 0.075125 0.259552
N1    N     N_1   0.500000 0.261870 0.500000 -0.067764
N2    N     N_1   0.500000 0.738130 0.500000 -0.067760
N3    N     N_2   0.389688 0.660155 0.075230 -0.309442
N4    N     N_2   0.610308 0.339843 0.924771 -0.309437
N5    N     N_2   0.586077 0.675049 0.920122 -0.292519
N6    N     N_2   0.413927 0.324946 0.079872 -0.292523
O1    O     O_R   0.373710 0.576470 0.500000 -0.596348
O2    O     O_R   0.626290 0.423530 0.500000 -0.596346
O3    O     O_R   0.626290 0.576470 0.500000 -0.600876
O4    O     O_R   0.373710 0.423530 0.500000 -0.600878
O5    O     O_R   0.499980 0.576440 0.313950 -0.616434
O6    O     O_R   0.500020 0.423560 0.686050 -0.616445
O7    O     O_R   0.500020 0.576440 0.686050 -0.599685
O8    O     O_R   0.499980 0.423560 0.313950 -0.599700
Zn1   Zn    Zn3+2 0.500000 0.602090 0.500000 0.961289
Zn2   Zn    Zn3+2 0.500000 0.397910 0.500000 0.961278

loop_
_geom_bond_atom_site_label_1
_geom_bond_atom_site_label_2
_ccdc_geom_bond_type
C10   N2    T    
C2    C4    S    
C1    O4    A    
C17   H17   S    
N1    Zn2   S    
C9    N1    T    
C18   H4    S    
O5    Zn1   S    
N2    Zn1   S    
C8    C26   S    
C2    C7    S    
C7    C25   S    
C25   O6    A    
C4    C8    S    
C17   N4    S    
C3    C6    S    
O3    Zn1   S    
C17   H18   S    
C5    C7    S    
H16   N4    S    
C12   C13   S    
C24   O5    A    
C8    C24   S    
C1    O1    A    
C19   N6    S    
H12   N3    S    
C2    C6    S    
C25   O7    A    
C26   N3    S    
C16   H14   S    
C6    C8    S    
C16   N3    S    
C12   O2    A    
C3    C7    S    
C19   H10   S    
C13   C15   T    
C3    N5    S    
C10   C23   S    
C11   C14   T    
C6    H11   S    
C9    C22   S    
O7    Zn1   S    
C18   H6    S    
O6    Zn2   S    
C16   H13   S    
O8    Zn2   S    
C5    C26   S    
C14   C20   S    
C15   C21   S    
O1    Zn1   S    
C20   C21   T    
C24   O8    A    
C19   H9    S    
O4    Zn2   S    
C22   C23   T    
H3    N5    S    
C18   H5    S    
O2    Zn2   S    
C2    N4    S    
H7    N6    S    
C5    H1    S    
C17   H2    S    
C16   H15   S    
C3    C26   S    
C12   O3    A    
C18   N5    S    
C4    N6    S    
C4    C5    S    
C19   H8    S    
C1    C11   S    
