data_mof_unit_36486.cif
_audit_creation_date              2012-12-10T20:31:57-0500
_audit_creation_method            fapswitch 2.2
_symmetry_space_group_name_H-M    P1
_symmetry_Int_Tables_number       1
_space_group_crystal_system       triclinic
_cell_length_a                    9.948547
_cell_length_b                    10.779572
_cell_length_c                    15.080687
_cell_angle_alpha                 89.057611
_cell_angle_beta                  69.334638
_cell_angle_gamma                 89.590825
_cell_volume                      1513.00386077

loop_
_atom_site_label
_atom_site_type_symbol
_atom_type_description
_atom_site_fract_x
_atom_site_fract_y
_atom_site_fract_z
_atom_type_partial_charge
C1    C     C_R   0.501421 0.740054 0.498496 0.941950
C2    C     C_R   0.399356 0.386911 0.916633 -0.100867
C3    C     C_R   0.281987 0.455926 0.975720 -0.385225
C4    C     C_R   0.505090 0.348880 0.955455 -0.109641
C5    C     C_R   0.468686 0.351392 0.056417 -0.175290
C6    C     C_R   0.322809 0.371767 0.112666 0.608762
C7    C     C_R   0.234760 0.434596 0.073272 0.655118
C8    C     C_R   0.652319 0.340155 0.898008 0.653698
C9    C     C_R   0.756704 0.371558 0.935300 0.167312
C10   C     C_R   0.714268 0.411192 0.029042 -0.241411
C11   C     C_R   0.580700 0.371135 0.093400 -0.056650
C12   C     C_R   0.411186 0.495687 0.676475 0.984926
C13   C     C_R   0.784722 0.508590 0.055990 0.205169
C14   C     C_R   0.749065 0.535007 0.152776 0.137290
C15   C     C_R   0.557500 0.382908 0.190505 0.668653
C16   C     C_R   0.382263 0.938370 0.552659 -0.136190
C17   C     C_R   0.505835 0.872737 0.500746 -0.215982
C18   C     C_R   0.637783 0.938736 0.460979 0.135782
C19   C     C_R   0.635283 0.067402 0.459722 0.623981
C20   C     C_R   0.504738 0.130050 0.499253 -0.217589
C21   C     C_R   0.382050 0.064912 0.550242 -0.271763
C22   C     C_3   0.230469 0.075085 0.555140 1.106427
C23   C     C_R   0.501799 0.261065 0.497755 0.984819
C24   C     C_3   0.227608 0.934456 0.561394 1.003064
C25   C     C_R   0.885234 0.523961 0.581223 -0.037582
C26   C     C_R   0.970681 0.466356 0.422125 0.752730
C27   C     C_R   0.113748 0.467367 0.422163 -0.077910
C28   C     C_R   0.027636 0.521468 0.581312 0.027807
C29   C     C_3   0.006589 0.636208 0.636750 0.463772
C30   C     C_3   0.855365 0.642776 0.635170 0.583835
C31   C     C_R   0.588949 0.494759 0.323186 0.931692
C32   C     C_R   0.360148 0.479192 0.779464 -0.385380
C33   C     C_R   0.638475 0.467753 0.220933 -0.322526
C34   C     C_R   0.223589 0.551407 0.936492 0.640931
C35   C     C_R   0.267878 0.566616 0.838261 0.570731
C36   C     C_R   0.418972 0.383676 0.819507 0.225425
H1    H     H_    0.201579 0.443314 0.358917 0.258862
H2    H     H_    0.078947 0.709844 0.595849 0.193189
N1    N     N_R   0.856900 0.500860 0.500610 -0.160729
N2    N     N_R   0.142540 0.500820 0.500610 -0.166909
O1    O     O_R   0.385310 0.683210 0.499990 -0.588956
O2    O     O_R   0.614650 0.683240 0.500000 -0.580103
O3    O     O_R   0.319830 0.499970 0.632240 -0.551411
O4    O     O_R   0.549170 0.500000 0.632250 -0.606709
O5    O     O_R   0.385350 0.316760 0.500000 -0.556026
O6    O     O_R   0.614690 0.316790 0.500010 -0.556158
O7    O     O_R   0.450830 0.500000 0.367750 -0.600524
O8    O     O_R   0.680170 0.500030 0.367760 -0.540647
Zn1   Zn    Zn3+2 0.346870 0.499980 0.499990 1.101414
Zn2   Zn    Zn3+2 0.653130 0.500020 0.500010 1.129061
F1    F     F_    0.105705 0.477814 0.130952 -0.545389
I1    I     I_    0.867279 0.656196 0.955183 0.044420
I2    I     I_    0.847041 0.861932 0.395346 0.078037
F2    F     F_    0.758903 0.131037 0.414667 -0.570337
F3    F     F_    0.142701 0.132744 0.636554 -0.587511
F4    F     F_    0.216761 0.122462 0.472778 -0.575170
F5    F     F_    0.140185 0.891340 0.649724 -0.585668
F6    F     F_    0.204697 0.878832 0.485799 -0.634479
F7    F     F_    0.948015 0.432542 0.342494 -0.541994
F8    F     F_    0.013463 0.613103 0.725295 -0.561150
F9    F     F_    0.465264 0.305606 0.255386 -0.566485
I3    I     I_    0.686793 0.637370 0.770513 -0.085960
F10   F     F_    0.838814 0.741988 0.581219 -0.624313
I4    I     I_    0.850118 0.684962 0.193228 -0.001815
I5    I     I_    0.976839 0.348314 0.850151 -0.021483
F11   F     F_    0.142952 0.640769 0.993135 -0.553746
F12   F     F_    0.222754 0.666767 0.800627 -0.530811
I6    I     I_    0.477344 0.212596 0.745785 -0.070661
F13   F     F_    0.268853 0.350210 0.206986 -0.562145
F14   F     F_    0.697403 0.326134 0.803036 -0.617559

loop_
_geom_bond_atom_site_label_1
_geom_bond_atom_site_label_2
_ccdc_geom_bond_type
C29   H2    S    
C6    F13   S    
C2    C4    A    
C3    C7    A    
C31   C33   S    
C16   C21   A    
C23   O5    A    
C2    C36   A    
O5    Zn1   S    
C12   O3    A    
C13   I1    S    
C9    C10   A    
O6    Zn2   S    
C8    F14   S    
C1    C17   S    
C19   C20   A    
C3    C34   A    
C20   C23   S    
C35   F12   S    
C27   N2    A    
C4    C8    A    
C14   I4    S    
C34   F11   S    
C14   C33   A    
C36   I6    S    
C17   C18   A    
C15   F9    S    
C22   F3    S    
C7    F1    S    
O7    Zn1   S    
C16   C24   S    
C23   O6    A    
C31   O7    A    
C21   C22   S    
C12   C32   S    
C25   C28   A    
C25   N1    A    
C26   C27   A    
C29   C30   S    
O2    Zn2   S    
C32   C36   A    
C19   F2    S    
O8    Zn2   S    
C28   C29   S    
C27   H1    S    
C5    C11   A    
C6    C7    A    
C2    C3    A    
C31   O8    A    
C30   I3    S    
C5    C6    A    
C13   C14   A    
C22   C24   S    
C26   N1    A    
C16   C17   A    
C10   C11   A    
C28   N2    A    
C22   F4    S    
O4    Zn2   S    
N2    Zn1   S    
C32   C35   A    
C1    O2    A    
N1    Zn2   S    
C18   C19   A    
C20   C21   A    
C24   F6    S    
C34   C35   A    
C24   F5    S    
C12   O4    A    
O1    Zn1   S    
C25   C30   S    
C4    C5    A    
C26   F7    S    
C9    I5    S    
C18   I2    S    
C30   F10   S    
C29   F8    S    
C11   C15   A    
C15   C33   A    
O3    Zn1   S    
C1    O1    A    
C8    C9    A    
C10   C13   A    
