data_mof_unit_14182.cif
_audit_creation_date              2012-12-10T19:00:46-0500
_audit_creation_method            fapswitch 2.2
_symmetry_space_group_name_H-M    P1
_symmetry_Int_Tables_number       1
_space_group_crystal_system       triclinic
_cell_length_a                    15.007778
_cell_length_b                    10.871446
_cell_length_c                    9.561794
_cell_angle_alpha                 90.552296
_cell_angle_beta                  90.220935
_cell_angle_gamma                 90.676592
_cell_volume                      1559.87289445

loop_
_atom_site_label
_atom_site_type_symbol
_atom_type_description
_atom_site_fract_x
_atom_site_fract_y
_atom_site_fract_z
_atom_type_partial_charge
C1    C     C_R   0.498882 0.262833 0.499452 0.793564
C2    C     C_R   0.907908 0.589110 0.428079 0.111942
C3    C     C_R   0.948658 0.322213 0.659840 -0.225664
C4    C     C_R   0.041081 0.315595 0.655087 -0.227713
C5    C     C_R   0.091561 0.400517 0.576367 0.090538
C6    C     C_R   0.046529 0.495691 0.505622 0.026639
C7    C     C_R   0.094550 0.585634 0.430757 0.109102
C8    C     C_R   0.049371 0.676695 0.356668 -0.202443
C9    C     C_R   0.956534 0.677545 0.353963 -0.218424
C10   C     C_R   0.185410 0.392065 0.564384 0.037669
C11   C     C_R   0.232291 0.489656 0.499101 -0.085461
C12   C     C_R   0.328977 0.496287 0.499648 0.805386
C13   C     C_R   0.187059 0.583713 0.431521 -0.282019
C14   C     C_R   0.496481 0.063699 0.620704 0.070255
C15   C     C_R   0.497034 0.130355 0.497745 -0.114776
C16   C     C_R   0.497477 0.063525 0.370686 -0.214860
C17   C     C_R   0.498420 0.934498 0.371111 -0.222058
C18   C     C_R   0.501045 0.870257 0.498882 -0.093775
C19   C     C_R   0.501653 0.939946 0.621206 0.097616
C20   C     C_3   0.508414 0.934059 0.776478 -0.503707
C21   C     C_3   0.499730 0.075349 0.776327 -0.101752
C22   C     C_R   0.576084 0.525758 0.075090 0.235363
C23   C     C_R   0.501039 0.737383 0.500302 0.802967
C24   C     C_R   0.426716 0.464319 0.073352 -0.079097
C25   C     C_R   0.426623 0.464509 0.924936 -0.085037
C26   C     C_R   0.577108 0.524947 0.927516 0.211842
C27   C     C_3   0.631414 0.642860 0.929348 -0.175088
C28   C     C_3   0.629216 0.640767 0.088317 -0.500905
C29   C     C_R   0.671002 0.501127 0.500310 0.802368
C30   C     C_R   0.814944 0.588130 0.424507 -0.267733
C31   C     C_R   0.767327 0.501223 0.501972 -0.067809
C32   C     C_R   0.811474 0.415245 0.583785 -0.260079
C33   C     C_R   0.904176 0.412130 0.584371 0.119704
C34   C     C_R   0.952927 0.499330 0.506600 0.070456
Cu1   Cu    Cu3+1 0.500000 0.499980 0.640670 0.924957
Cu2   Cu    Cu3+1 0.500000 0.500020 0.359330 0.934279
H1    H     H_    0.779546 0.655926 0.363924 0.129723
H2    H     H_    0.497897 0.885945 0.271686 0.157590
H3    H     H_    0.451820 0.882547 0.823849 0.204595
H4    H     H_    0.575832 0.906311 0.810531 0.167010
H5    H     H_    0.366632 0.436957 0.869626 0.141812
H6    H     H_    0.593588 0.719530 0.884331 0.174266
H7    H     H_    0.694147 0.623399 0.140184 0.193600
H8    H     H_    0.773382 0.348834 0.643761 0.137580
H9    H     H_    0.911795 0.255248 0.720633 0.142580
H10   H     H_    0.224460 0.655534 0.378764 0.145595
N1    N     N_R   0.500570 0.500930 0.147930 -0.186073
N2    N     N_R   0.500570 0.500890 0.852020 -0.194209
O1    O     O_R   0.500000 0.319640 0.618810 -0.594776
O2    O     O_R   0.500010 0.319680 0.381230 -0.581036
O3    O     O_R   0.370250 0.499950 0.618800 -0.592168
O4    O     O_R   0.370260 0.499990 0.381220 -0.586051
O5    O     O_R   0.499990 0.680320 0.618770 -0.576535
O6    O     O_R   0.500000 0.680360 0.381190 -0.587925
O7    O     O_R   0.629740 0.500010 0.618780 -0.597776
O8    O     O_R   0.629750 0.500050 0.381200 -0.575404
C35   C     C_3   0.411733 0.120759 0.839280 -0.351740
C36   C     C_3   0.416472 0.123306 0.999220 -0.357705
C37   C     C_3   0.326560 0.155788 0.062852 -0.867000
H11   H     H_    0.302386 0.244232 0.020796 0.240444
H12   H     H_    0.276658 0.082283 0.038700 0.252159
H13   H     H_    0.333469 0.164646 0.178176 0.247907
H14   H     H_    0.436562 0.031734 0.038430 0.221641
H15   H     H_    0.467183 0.192659 0.033659 0.218943
H16   H     H_    0.398475 0.214987 0.801731 0.208523
H17   H     H_    0.355425 0.060322 0.804722 0.208705
H18   H     H_    0.560353 0.125747 0.813798 0.161248
H19   H     H_    0.366855 0.436768 0.127624 0.151269
C38   C     C_3   0.726429 0.631202 0.870237 -0.338248
C39   C     C_3   0.785163 0.743558 0.906854 -0.375003
C40   C     C_3   0.876164 0.734356 0.836711 -0.833874
H20   H     H_    0.910911 0.650207 0.871450 0.259360
H21   H     H_    0.868493 0.731281 0.721066 0.259748
H22   H     H_    0.917661 0.815971 0.865669 0.237843
H23   H     H_    0.752090 0.828702 0.870977 0.214591
H24   H     H_    0.795383 0.750682 0.021755 0.221151
H25   H     H_    0.758313 0.545982 0.908685 0.199715
H26   H     H_    0.722462 0.626420 0.755332 0.230736
H27   H     H_    0.590779 0.717782 0.134502 0.191363
H28   H     H_    0.071840 0.243102 0.713934 0.155047
C41   C     C_3   0.233233 0.274170 0.604741 -0.427505
C42   C     C_3   0.207935 0.169183 0.502285 -0.341057
C43   C     C_3   0.244924 0.046084 0.548510 -0.862942
H29   H     H_    0.318569 0.050135 0.551064 0.264597
H30   H     H_    0.219268 0.022004 0.653655 0.248670
H31   H     H_    0.223970 0.972897 0.473091 0.244928
H32   H     H_    0.134497 0.159068 0.492611 0.229563
H33   H     H_    0.234542 0.191054 0.396951 0.216895
H34   H     H_    0.306617 0.284889 0.601620 0.194514
H35   H     H_    0.217773 0.249488 0.714435 0.188809
H36   H     H_    0.085898 0.746221 0.299160 0.140959
H37   H     H_    0.922785 0.747312 0.294095 0.140750
H38   H     H_    0.497922 0.110351 0.271527 0.166347

loop_
_geom_bond_atom_site_label_1
_geom_bond_atom_site_label_2
_ccdc_geom_bond_type
Cu1   O5    S    
C38   H25   S    
C19   C20   S    
C35   H17   S    
C41   C42   S    
C7    C8    A    
C16   H38   S    
C14   C21   S    
C4    H28   S    
C5    C6    A    
C20   H4    S    
C3    C33   A    
C42   H32   S    
Cu2   N1    S    
C18   C19   A    
C28   H27   S    
C31   C32   A    
C8    C9    A    
Cu1   O1    S    
C39   C40   S    
C1    C15   S    
C1    O2    A    
C27   C38   S    
C26   N2    A    
C41   H34   S    
C2    C34   A    
C22   N1    A    
C37   H11   S    
C22   C28   S    
C21   H18   S    
C38   H26   S    
Cu1   N2    S    
C9    H37   S    
C12   O4    A    
C23   O5    A    
C36   H15   S    
C37   H12   S    
Cu1   O7    S    
C18   C23   S    
C24   C25   A    
C25   H5    S    
C40   H21   S    
C20   H3    S    
C16   C17   A    
C29   O7    A    
C36   C37   S    
C3    H9    S    
C6    C34   A    
C30   H1    S    
Cu1   Cu2   S    
C26   C27   S    
C21   C35   S    
Cu2   O8    S    
C43   H29   S    
C17   C18   A    
C32   H8    S    
C8    H36   S    
C25   N2    A    
C41   H35   S    
C43   H30   S    
Cu1   O3    S    
C3    C4    A    
C39   H23   S    
C12   O3    A    
Cu2   O2    S    
C23   O6    A    
C36   H14   S    
C37   H13   S    
C28   H7    S    
C14   C15   A    
C24   N1    A    
C14   C19   A    
C35   H16   S    
C4    C5    A    
Cu2   O4    S    
C40   H22   S    
C11   C12   S    
C6    C7    A    
C29   O8    A    
C10   C41   S    
C2    C30   A    
C32   C33   A    
C5    C10   A    
C29   C31   S    
C39   H24   S    
C11   C13   A    
C27   H6    S    
C35   C36   S    
C30   C31   A    
C42   H33   S    
C33   C34   A    
C17   H2    S    
C38   C39   S    
Cu2   O6    S    
C10   C11   A    
C24   H19   S    
C7    C13   A    
C43   H31   S    
C40   H20   S    
C20   C21   S    
C42   C43   S    
C22   C26   A    
C27   C28   S    
C13   H10   S    
C2    C9    A    
C1    O1    A    
C15   C16   A    
