data_mof_unit_26670.cif
_audit_creation_date              2012-12-10T17:13:35-0500
_audit_creation_method            fapswitch 2.2
_symmetry_space_group_name_H-M    P1
_symmetry_Int_Tables_number       1
_space_group_crystal_system       triclinic
_cell_length_a                    10.739134
_cell_length_b                    13.038508
_cell_length_c                    11.658117
_cell_angle_alpha                 99.678853
_cell_angle_beta                  94.05781
_cell_angle_gamma                 89.458816
_cell_volume                      1605.12108148

loop_
_atom_site_label
_atom_site_type_symbol
_atom_type_description
_atom_site_fract_x
_atom_site_fract_y
_atom_site_fract_z
_atom_type_partial_charge
C1    C     C_R   0.504371 0.299170 0.479156 0.907347
C2    C     C_3   0.878368 0.501127 0.500319 0.090128
C3    C     C_3   0.922732 0.588911 0.437940 -0.391717
C4    C     C_3   0.923496 0.394881 0.436073 -0.337668
C5    C     C_R   0.502677 0.813461 0.533464 -0.087874
C6    C     C_R   0.508110 0.185648 0.467710 -0.248719
C7    C     C_R   0.447281 0.019422 0.349310 0.445778
C8    C     C_R   0.456096 0.127193 0.363763 -0.315238
C9    C     C_R   0.556272 0.135111 0.559647 0.378201
C10   C     C_R   0.530143 0.028647 0.552631 -0.010938
C11   C     C_R   0.482294 0.969299 0.445091 -0.028716
C12   C     C_R   0.259855 0.501392 0.500408 0.746683
C13   C     C_R   0.471854 0.861306 0.436708 -0.142814
C14   C     C_R   0.537129 0.873453 0.641572 -0.199255
C15   C     C_R   0.549859 0.979929 0.651317 -0.041553
C16   C     C_R   0.376481 0.405087 0.022714 0.317460
C17   C     C_R   0.390430 0.414924 0.145401 0.016202
C18   C     C_R   0.552292 0.538770 0.156250 0.045189
C19   C     C_R   0.542861 0.532347 0.033573 0.011114
C20   C     C_R   0.453821 0.465084 0.965195 -0.070645
C21   C     C_R   0.446187 0.460774 0.842030 0.157481
C22   C     C_R   0.609568 0.583993 0.856224 0.084231
C23   C     C_R   0.500282 0.700674 0.521159 0.802419
C24   C     C_R   0.620627 0.591832 0.978120 -0.237837
C25   C     C_R   0.740386 0.501060 0.500080 0.794687
C26   C     C_3   0.081045 0.521402 0.627770 -0.314745
C27   C     C_3   0.938681 0.519568 0.627396 -0.341753
C28   C     C_3   0.066572 0.588811 0.438307 -0.382385
C29   C     C_3   0.067825 0.394472 0.434333 -0.169749
C30   C     C_3   0.122097 0.500606 0.500755 0.075075
Cu1   Cu    Cu3+1 0.509350 0.507730 0.615930 0.987794
Cu2   Cu    Cu3+1 0.490650 0.492270 0.384070 0.961421
H1    H     H_    0.116268 0.598775 0.673212 0.168591
H2    H     H_    0.881447 0.380408 0.344727 0.164794
H3    H     H_    0.094012 0.578066 0.346749 0.195159
H4    H     H_    0.881823 0.577801 0.346265 0.183908
H5    H     H_    0.440441 0.813147 0.355378 0.218483
H6    H     H_    0.556968 0.837998 0.718504 0.170012
H7    H     H_    0.573860 0.023285 0.737341 0.213758
H8    H     H_    0.421380 0.166278 0.293088 0.234421
H9    H     H_    0.379405 0.410498 0.786403 0.190022
H10   H     H_    0.121259 0.462731 0.678730 0.243791
H11   H     H_    0.670142 0.629904 0.814358 0.123422
H12   H     H_    0.689755 0.643995 0.028650 0.152831
H13   H     H_    0.332025 0.369854 0.190244 0.179919
H14   H     H_    0.620076 0.590561 0.209197 0.137024
H15   H     H_    0.911253 0.456942 0.674353 0.210491
H16   H     H_    0.905919 0.594678 0.676104 0.162215
H17   H     H_    0.103886 0.665656 0.483150 0.177431
H18   H     H_    0.890454 0.665741 0.482668 0.171750
H19   H     H_    0.090489 0.386916 0.341461 0.132143
H20   H     H_    0.889940 0.331208 0.478696 0.231601
N1    N     N_R   0.523430 0.519360 0.790130 -0.205305
N2    N     N_R   0.476570 0.480640 0.209880 -0.216975
O1    O     O_R   0.506640 0.354460 0.582000 -0.520328
O2    O     O_R   0.490840 0.341410 0.386200 -0.598159
O3    O     O_R   0.325590 0.506510 0.597900 -0.594468
O4    O     O_R   0.309790 0.493450 0.402100 -0.596861
O5    O     O_R   0.509160 0.658590 0.613800 -0.591110
O6    O     O_R   0.493360 0.645540 0.418000 -0.583598
O7    O     O_R   0.690210 0.506550 0.597900 -0.587720
O8    O     O_R   0.674410 0.493490 0.402100 -0.591079
S1    S     S_3+6 0.385981 0.951853 0.212205 0.000771
O9    O     O_2   0.480687 0.874496 0.162029 -0.305846
O10   O     O_2   0.269026 0.895236 0.228806 -0.293607
O11   O     O_3   0.352158 0.035014 0.118620 -0.498316
H21   H     H_    0.318603 0.990820 0.045666 0.391045
S2    S     S_3+6 0.661158 0.198996 0.675490 0.024366
O12   O     O_2   0.587779 0.239608 0.778628 -0.279709
O13   O     O_2   0.758070 0.124003 0.710556 -0.263518
O14   O     O_3   0.737103 0.297627 0.635515 -0.540177
H22   H     H_    0.763029 0.343148 0.710106 0.376667
S3    S     S_3+6 0.261911 0.317876 0.945940 0.011595
O15   O     O_2   0.167849 0.377497 0.881745 -0.305586
O16   O     O_2   0.323270 0.237937 0.859722 -0.240423
O17   O     O_3   0.188589 0.257302 0.038644 -0.532211
H23   H     H_    0.129190 0.208782 0.988310 0.398743
C31   C     C_2   0.126099 0.301064 0.478872 0.381586
H24   H     H_    0.196521 0.256287 0.429986 0.070679
O18   O     O_2   0.098131 0.276734 0.570449 -0.471826

loop_
_geom_bond_atom_site_label_1
_geom_bond_atom_site_label_2
_ccdc_geom_bond_type
C27   H16   S    
S1    O10   D    
S3    O15   D    
Cu1   O7    S    
C2    C4    S    
C19   C20   A    
Cu2   O4    S    
C6    C9    A    
C7    C8    A    
C7    C11   A    
C26   C27   S    
C4    H20   S    
C3    C28   S    
C1    O2    A    
C17   H13   S    
C10   C15   A    
C31   O18   D    
C18   C19   A    
Cu1   O5    S    
C29   C31   S    
Cu1   Cu2   S    
C28   H3    S    
C16   C17   A    
C2    C27   S    
C9    C10   A    
C13   H5    S    
C4    C29   S    
C12   O4    A    
O11   H21   S    
S1    O11   S    
S3    O16   D    
C18   H14   S    
Cu2   N2    S    
C3    H18   S    
C22   N1    A    
C23   O6    A    
C4    H2    S    
C1    C6    S    
O17   H23   S    
C31   H24   S    
S2    O12   D    
C6    C8    A    
C16   S3    S    
C23   O5    A    
C29   C30   S    
C14   H6    S    
C28   H17   S    
C26   H1    S    
C22   H11   S    
C5    C23   S    
C16   C20   A    
C7    S1    S    
C25   O7    A    
Cu1   N1    S    
C15   H7    S    
C5    C14   A    
C21   H9    S    
C12   O3    A    
C26   C30   S    
C24   H12   S    
S3    O17   S    
C22   C24   A    
Cu2   O6    S    
C26   H10   S    
C29   H19   S    
C27   H15   S    
C12   C30   S    
C5    C13   A    
Cu1   O3    S    
C28   C30   S    
C19   C24   A    
C1    O1    A    
C9    S2    S    
Cu2   O8    S    
O14   H22   S    
C21   N1    A    
C11   C13   A    
C3    H4    S    
S2    O14   S    
C2    C3    S    
C2    C25   S    
C25   O8    A    
C10   C11   A    
C18   N2    A    
S1    O9    D    
C20   C21   A    
S2    O13   D    
C14   C15   A    
C8    H8    S    
Cu1   O1    S    
C17   N2    A    
Cu2   O2    S    
