data_mof_unit_6192.cif
_audit_creation_date              2012-12-11T15:54:03-0500
_audit_creation_method            fapswitch 2.2
_symmetry_space_group_name_H-M    P1
_symmetry_Int_Tables_number       1
_space_group_crystal_system       triclinic
_cell_length_a                    10.662625
_cell_length_b                    10.63306
_cell_length_c                    16.96257
_cell_angle_alpha                 80.510676
_cell_angle_beta                  99.48896
_cell_angle_gamma                 118.607651
_cell_volume                      1657.05233113

loop_
_atom_site_label
_atom_site_type_symbol
_atom_type_description
_atom_site_fract_x
_atom_site_fract_y
_atom_site_fract_z
_atom_type_partial_charge
C1    C     C_R   0.358204 0.222621 0.626126 0.539909
C2    C     C_1   0.293313 0.109533 0.771897 -0.001862
C3    C     C_1   0.319101 0.683568 0.280217 -0.037757
C4    C     C_R   0.414169 0.619406 0.601867 0.555567
C5    C     C_1   0.297417 0.707322 0.209541 -0.045177
C6    C     C_R   0.789288 0.646439 0.146781 0.015116
C7    C     C_R   0.761897 0.516060 0.194105 -0.004745
C8    C     C_R   0.730873 0.495446 0.271742 0.001235
C9    C     C_R   0.707996 0.712955 0.251839 -0.179114
C10   C     C_R   0.745716 0.738998 0.172522 -0.028340
C11   C     C_3   0.845241 0.431922 0.214045 -0.254507
C12   C     C_R   0.515257 0.709581 0.735932 -0.151509
C13   C     C_3   0.813826 0.412344 0.300388 -0.064108
C14   C     C_R   0.716063 0.599011 0.304351 0.015519
C15   C     C_R   0.318300 0.152237 0.163911 0.013961
C16   C     C_R   0.781768 0.621482 0.626082 0.552293
C17   C     C_R   0.210969 0.165531 0.192223 0.033399
C18   C     C_R   0.211018 0.170162 0.271621 0.031469
C19   C     C_R   0.421706 0.133026 0.300941 -0.159591
C20   C     C_R   0.420107 0.127260 0.219273 -0.161615
C21   C     C_3   0.158747 0.274295 0.165373 -0.271797
C22   C     C_3   0.158412 0.281597 0.253399 -0.250394
C23   C     C_R   0.492796 0.725607 0.811882 -0.125399
C24   C     C_R   0.322005 0.164176 0.326509 0.024607
C25   C     C_R   0.948109 0.725347 0.851530 0.530730
C26   C     C_R   0.316258 0.705253 0.898733 0.542373
C27   C     C_R   0.252175 0.057843 0.851343 0.535835
C28   C     C_R   0.350393 0.225020 0.400483 0.531532
C29   C     C_R   0.880543 0.688061 0.081657 0.566847
C30   C     C_R   0.284776 0.739135 0.125403 0.557839
C31   C     C_R   0.286712 0.109223 0.084565 0.546572
C32   C     C_R   0.362754 0.657299 0.361657 0.537682
C33   C     C_R   0.700910 0.582921 0.389500 0.571842
C34   C     C_3   0.094775 0.492266 0.771511 -0.252704
C35   C     C_R   0.354111 0.649435 0.838173 0.010933
C36   C     C_R   0.250109 0.535647 0.795671 0.009267
C37   C     C_R   0.272865 0.518597 0.720917 0.024709
C38   C     C_2   0.948289 0.488048 0.355515 0.607699
C39   C     C_2   0.039570 0.321048 0.667486 0.612919
C40   C     C_2   0.740810 0.862855 0.119354 0.617888
C41   C     C_3   0.119203 0.473931 0.689191 -0.057558
C42   C     C_R   0.399778 0.616276 0.686353 -0.018253
C43   C     C_1   0.850695 0.669976 0.702498 -0.051932
C44   C     C_1   0.897691 0.704631 0.769206 -0.052284
C45   C     C_1   0.329487 0.155896 0.705457 -0.013876
Cr1   Cr    Cr6+3 0.608440 0.389080 0.519680 1.060384
Cr2   Cr    Cr6+3 0.288640 0.400090 0.490760 1.090391
Cr3   Cr    Cr6+3 0.602940 0.710800 0.489510 1.019907
Cr4   Cr    Cr6+3 0.052530 0.947560 0.964210 1.080593
Cr5   Cr    Cr6+3 0.059970 0.626800 0.992920 1.016803
Cr6   Cr    Cr6+3 0.373320 0.938440 0.995370 1.075172
H1    H     H_    0.618927 0.778598 0.713592 0.151323
H2    H     H_    0.579634 0.808780 0.845537 0.175285
H3    H     H_    0.070032 0.582604 0.770108 0.116971
H4    H     H_    0.023878 0.391061 0.806320 0.177623
H5    H     H_    0.106466 0.552942 0.640982 0.136115
H6    H     H_    0.679112 0.784884 0.273638 0.143539
H7    H     H_    0.961279 0.496820 0.205227 0.171636
H8    H     H_    0.113560 0.676199 0.387630 0.339771
H9    H     H_    0.910300 0.186458 0.584512 0.333556
H10   H     H_    0.829802 0.000451 0.205817 0.286228
H11   H     H_    0.790494 0.329324 0.185494 0.137326
H12   H     H_    0.745019 0.298126 0.321700 0.102387
H13   H     H_    0.505339 0.122730 0.342857 0.136126
H14   H     H_    0.497665 0.103633 0.199744 0.151315
H15   H     H_    0.049577 0.227494 0.132668 0.189328
H16   H     H_    0.239837 0.375256 0.135218 0.154253
H17   H     H_    0.238947 0.387992 0.273269 0.160454
H18   H     H_    0.048952 0.240691 0.271712 0.152883
O1    O     O_R   0.754020 0.497590 0.609930 -0.479820
O2    O     O_R   0.406180 0.826930 0.920660 -0.491319
O3    O     O_R   0.358620 0.062870 0.901950 -0.491602
O4    O     O_R   0.481420 0.271390 0.600630 -0.494378
O5    O     O_R   0.163910 0.085460 0.050210 -0.499860
O6    O     O_R   0.935200 0.815170 0.045770 -0.465657
O7    O     O_R   0.916120 0.596690 0.069430 -0.525125
O8    O     O_R   0.192310 0.631200 0.086170 -0.508035
O9    O     O_R   0.406770 0.819480 0.096420 -0.463840
O10   O     O_R   0.359170 0.055960 0.064880 -0.513012
O11   O     O_3   0.161940 0.837600 0.984160 -0.322429
O12   O     O_R   0.295080 0.533620 0.397890 -0.472268
O13   O     O_R   0.263810 0.254550 0.589590 -0.485039
O14   O     O_R   0.300820 0.531200 0.560890 -0.468162
O15   O     O_R   0.491480 0.744020 0.564270 -0.510259
O16   O     O_R   0.726290 0.693800 0.583010 -0.512365
O17   O     O_R   0.747830 0.500190 0.434090 -0.472212
O18   O     O_R   0.475680 0.273800 0.437630 -0.526088
O19   O     O_R   0.257620 0.257160 0.413750 -0.505877
O20   O     O_2   0.982437 0.418084 0.411235 -0.469619
O21   O     O_R   0.031302 0.637621 0.343999 -0.700372
O22   O     O_2   0.045453 0.222893 0.714325 -0.509211
O23   O     O_R   0.485280 0.746620 0.388440 -0.526183
O24   O     O_R   0.958669 0.292402 0.592948 -0.643131
O25   O     O_2   0.696104 0.849353 0.048599 -0.449500
O26   O     O_R   0.782888 0.994334 0.148624 -0.691845
O27   O     O_R   0.720550 0.696220 0.420010 -0.496547
O28   O     O_3   0.500010 0.499990 0.499980 -0.313805
O29   O     O_R   0.163320 0.092900 0.874450 -0.464095
O30   O     O_R   0.934650 0.822080 0.882840 -0.482324
O31   O     O_R   0.915520 0.604140 0.893670 -0.495460
O32   O     O_R   0.191760 0.638110 0.923230 -0.515146

loop_
_geom_bond_atom_site_label_1
_geom_bond_atom_site_label_2
_ccdc_geom_bond_type
Cr5   O8    S    
C27   O29   A    
C8    C13   S    
C21   H15   S    
C19   C20   A    
C9    C14   A    
C11   H11   S    
C14   C33   S    
C7    C8    A    
C39   C41   S    
C29   O7    A    
C7    C11   S    
C32   O12   A    
C38   O20   D    
C18   C24   A    
C36   C37   A    
C5    C30   S    
C4    O15   A    
C26   O32   A    
C10   C40   S    
Cr2   O13   S    
C37   C42   A    
Cr6   O11   S    
C39   O24   S    
C12   C42   A    
Cr4   O29   S    
C30   O8    A    
C25   O30   A    
C35   C36   A    
C13   H12   S    
C28   O19   A    
Cr4   O6    S    
C2    C27   S    
Cr2   O14   S    
C11   H7    S    
C9    C10   A    
C22   H18   S    
C9    H6    S    
H9    O24   S    
C34   H4    S    
C21   C22   S    
C21   H16   S    
C26   O2    A    
C34   C41   S    
Cr6   O2    S    
C25   C44   S    
C39   O22   D    
C12   H1    S    
C23   H2    S    
C2    C45   T    
C15   C20   A    
C20   H14   S    
C16   O1    A    
C31   O5    A    
C1    O13   A    
C17   C21   S    
Cr3   O15   S    
H8    O21   S    
C33   O17   A    
C41   H5    S    
Cr3   O28   S    
Cr5   O7    S    
Cr4   O30   S    
C25   O31   A    
C12   C23   A    
C19   H13   S    
C28   O18   A    
C17   C18   A    
C15   C31   S    
C16   C43   S    
C22   H17   S    
C13   C38   S    
Cr1   O28   S    
C34   H3    S    
C23   C35   A    
C43   C44   T    
C16   O16   A    
Cr6   O3    S    
C40   O26   S    
C33   O27   A    
Cr1   O18   S    
C15   C17   A    
C8    C14   A    
Cr3   O27   S    
C18   C22   S    
Cr3   O16   S    
C24   C28   S    
C40   O25   D    
C3    C5    T    
Cr5   O11   S    
C6    C10   A    
H10   O26   S    
C31   O10   A    
C6    C7    A    
C29   O6    A    
C38   O21   S    
Cr5   O31   S    
Cr2   O28   S    
Cr4   O11   S    
C1    O4    A    
Cr2   O19   S    
C19   C24   A    
Cr6   O9    S    
C11   C13   S    
C1    C45   S    
C32   O23   A    
C4    O14   A    
C4    C42   S    
C34   C36   S    
Cr2   O12   S    
C37   C41   S    
C3    C32   S    
Cr6   O10   S    
Cr1   O1    S    
C30   O9    A    
C26   C35   S    
C6    C29   S    
Cr5   O32   S    
Cr3   O23   S    
Cr4   O5    S    
Cr1   O4    S    
C27   O3    A    
Cr1   O17   S    
