data_mof_unit_25161.cif
_audit_creation_date              2012-12-11T15:48:56-0500
_audit_creation_method            fapswitch 2.2
_symmetry_space_group_name_H-M    P1
_symmetry_Int_Tables_number       1
_space_group_crystal_system       triclinic
_cell_length_a                    11.067109
_cell_length_b                    11.035911
_cell_length_c                    18.796863
_cell_angle_alpha                 90.211705
_cell_angle_beta                  89.968563
_cell_angle_gamma                 59.985461
_cell_volume                      1987.87975659

loop_
_atom_site_label
_atom_site_type_symbol
_atom_type_description
_atom_site_fract_x
_atom_site_fract_y
_atom_site_fract_z
_atom_type_partial_charge
C1    C     C_R   0.235935 0.646742 0.609467 0.526434
C2    C     C_R   0.592716 0.113881 0.703805 -0.037928
C3    C     C_R   0.592639 0.112662 0.777247 -0.085755
C4    C     C_R   0.631574 0.592240 0.608645 0.525449
C5    C     C_3   0.941666 0.053235 0.778261 -0.259689
C6    C     C_3   0.935291 0.069331 0.698309 -0.283101
C7    C     C_R   0.681267 0.147845 0.667144 0.005362
C8    C     C_R   0.176639 0.667406 0.834301 0.070442
C9    C     C_R   0.145410 0.580254 0.793498 -0.046315
C10   C     C_R   0.150166 0.579272 0.719697 0.010706
C11   C     C_R   0.197701 0.768008 0.724105 -0.183838
C12   C     C_3   0.719940 0.503343 0.808437 0.009849
C13   C     C_R   0.205110 0.760450 0.797991 -0.134805
C14   C     C_3   0.204145 0.426059 0.797408 -0.176817
C15   C     C_3   0.204318 0.425692 0.716604 0.274799
C16   C     C_R   0.631557 0.221975 0.600019 0.532317
C17   C     C_R   0.184596 0.668348 0.683162 0.032921
C18   C     C_R   0.654459 0.655745 0.165028 0.012537
C19   C     C_R   0.754419 0.538763 0.202951 -0.053060
C20   C     C_R   0.749121 0.533744 0.275761 0.023918
C21   C     C_R   0.530921 0.748631 0.276734 -0.171423
C22   C     C_R   0.534852 0.753453 0.201833 -0.172388
C23   C     C_3   0.682786 0.661749 0.818325 0.000093
C24   C     C_3   0.910266 0.472733 0.204947 -0.162031
C25   C     C_3   0.902452 0.469804 0.284817 0.284120
C26   C     C_R   0.644068 0.642398 0.314541 -0.023662
C27   C     C_R   0.635389 0.179300 0.170584 0.002344
C28   C     C_R   0.221126 0.649060 0.401900 0.562772
C29   C     C_R   0.540499 0.162705 0.212321 0.067865
C30   C     C_R   0.537489 0.177731 0.284594 0.117231
C31   C     C_R   0.711782 0.245794 0.276115 -0.178993
C32   C     C_R   0.711457 0.234899 0.201907 -0.167782
C33   C     C_3   0.518629 0.040442 0.217968 -0.248163
C34   C     C_3   0.648067 0.620262 0.684268 -0.005407
C35   C     C_3   0.512332 0.059414 0.297732 -0.256688
C36   C     C_R   0.631955 0.206099 0.318112 0.000967
C37   C     C_R   0.131079 0.685351 0.186706 -0.089387
C38   C     C_R   0.087302 0.806335 0.228349 0.008791
C39   C     C_R   0.094016 0.799615 0.301208 -0.079667
C40   C     C_R   0.639086 0.619836 0.390609 0.546543
C41   C     C_R   0.175671 0.550652 0.294115 0.354113
C42   C     C_R   0.173127 0.556103 0.219587 -0.036291
C43   C     C_3   0.142208 0.906707 0.226258 -0.083628
C44   C     C_3   0.134946 0.910041 0.306292 -0.264146
C45   C     C_3   0.773461 0.644641 0.692001 -0.216397
C46   C     C_R   0.150251 0.669992 0.334644 -0.006172
C47   C     C_R   0.707379 0.087492 0.892419 0.528154
C48   C     C_R   0.718346 0.685119 0.891003 0.591965
C49   C     C_R   0.118311 0.705524 0.905966 0.537307
C50   C     C_R   0.672866 0.110178 0.102353 0.545292
C51   C     C_R   0.695543 0.687904 0.096667 0.558750
C52   C     C_R   0.613118 0.236952 0.393081 0.539618
C53   C     C_R   0.092077 0.710637 0.112838 0.524841
C54   C     C_3   0.523573 0.757447 0.794746 -0.063811
C55   C     C_3   0.517791 0.753925 0.712478 0.284235
C56   C     C_3   0.670909 0.491645 0.730313 -0.216877
C57   C     C_3   0.776091 0.693379 0.768045 -0.270317
C58   C     C_2   0.431938 0.903263 0.825645 0.234544
C59   C     C_2   0.225537 0.425863 0.176711 0.266073
C60   C     C_2   0.051459 0.047802 0.193867 0.261162
C61   C     C_2   0.877921 0.401352 0.812098 0.192058
C62   C     C_2   0.654459 0.459280 0.868015 0.355252
C63   C     C_2   0.543136 0.473296 0.723380 0.184560
C64   C     C_R   0.693446 0.125961 0.816949 -0.002953
C65   C     C_R   0.789647 0.147548 0.779636 0.000698
C66   C     C_R   0.782096 0.161029 0.705576 0.000192
Cr1   Cr    Cr6+3 0.392960 0.397920 0.502240 1.121371
Cr2   Cr    Cr6+3 0.398340 0.708480 0.501250 1.044406
Cr3   Cr    Cr6+3 0.708670 0.393570 0.496460 1.051198
Cr4   Cr    Cr6+3 0.937650 0.938540 0.007610 1.106107
Cr5   Cr    Cr6+3 0.625330 0.937370 0.994520 1.030719
Cr6   Cr    Cr6+3 0.937940 0.625230 0.001190 1.063600
F1    F     F_    0.336841 0.354363 0.689304 -0.608707
F2    F     F_    0.964524 0.335252 0.311409 -0.620668
F3    F     F_    0.220236 0.424975 0.326085 -0.566643
F4    F     F_    0.510785 0.871740 0.682046 -0.618264
H1    H     H_    0.756668 0.398690 0.703702 0.117337
H2    H     H_    0.207069 0.850961 0.699122 0.163733
H3    H     H_    0.467768 0.704078 0.813481 0.128225
H4    H     H_    0.217261 0.838884 0.826654 0.146477
H5    H     H_    0.129655 0.398470 0.821183 0.133313
H6    H     H_    0.310039 0.371064 0.821408 0.208690
H7    H     H_    0.130547 0.397302 0.692048 0.101347
H8    H     H_    0.445073 0.832251 0.305029 0.129414
H9    H     H_    0.453177 0.841375 0.173686 0.132675
H10   H     H_    0.945137 0.545613 0.186905 0.128801
H11   H     H_    0.963488 0.367458 0.179565 0.207256
H12   H     H_    0.885615 0.641202 0.786431 0.112329
H13   H     H_    0.425350 0.750575 0.695753 0.135573
H14   H     H_    0.932476 0.539302 0.313115 0.143727
H15   H     H_    0.775936 0.281860 0.300696 0.208756
H16   H     H_    0.777156 0.259658 0.169706 0.158066
H17   H     H_    0.612629 0.942688 0.200003 0.138069
H18   H     H_    0.417940 0.062255 0.194211 0.198423
H19   H     H_    0.406856 0.095250 0.320340 0.209979
H20   H     H_    0.599995 0.970868 0.326162 0.113298
H21   H     H_    0.250348 0.855170 0.205533 0.136806
H22   H     H_    0.237681 0.877980 0.329418 0.166010
H23   H     H_    0.872734 0.547478 0.679451 0.102204
H24   H     H_    0.049224 0.007767 0.330273 0.162128
H25   H     H_    0.737902 0.807754 0.768298 0.158525
H26   H     H_    0.765543 0.725214 0.653846 0.186616
H27   H     H_    0.415841 0.917751 0.882566 0.144106
H28   H     H_    0.263486 0.420865 0.122942 0.112165
H29   H     H_    0.984788 0.136139 0.227272 0.142855
H30   H     H_    0.943829 0.388708 0.766891 0.082600
H31   H     H_    0.683284 0.351036 0.873259 0.154702
H32   H     H_    0.506591 0.468306 0.670734 0.157311
H33   H     H_    0.513390 0.102092 0.676170 0.254616
H34   H     H_    0.515231 0.096054 0.802718 0.205406
H35   H     H_    0.962278 0.949766 0.796598 0.148841
H36   H     H_    0.000765 0.096724 0.805270 0.204708
H37   H     H_    0.986260 0.127716 0.678584 0.158747
H38   H     H_    0.961964 0.972230 0.668233 0.142445
O1    O     O_R   0.507380 0.255700 0.581440 -0.452523
O2    O     O_R   0.837170 0.593410 0.915250 -0.461928
O3    O     O_R   0.065200 0.635530 0.931570 -0.507000
O4    O     O_R   0.280320 0.527350 0.578930 -0.453044
O5    O     O_R   0.068260 0.828890 0.091840 -0.447809
O6    O     O_R   0.798870 0.057410 0.079340 -0.467573
O7    O     O_R   0.584930 0.080350 0.076780 -0.517306
O8    O     O_R   0.626960 0.809650 0.067060 -0.504092
O9    O     O_R   0.816040 0.596610 0.076510 -0.510370
O10   O     O_R   0.045610 0.638500 0.081060 -0.531097
O11   O     O_3   0.833640 0.833710 0.001100 -0.284993
O12   O     O_R   0.524480 0.695810 0.424040 -0.505984
O13   O     O_R   0.260510 0.739590 0.584590 -0.545316
O14   O     O_R   0.532300 0.695080 0.573820 -0.451916
O15   O     O_R   0.744840 0.503500 0.576370 -0.522112
O16   O     O_R   0.699120 0.276560 0.571960 -0.532454
O17   O     O_R   0.498940 0.256500 0.419860 -0.473969
O18   O     O_R   0.272500 0.528080 0.429150 -0.430934
O19   O     O_R   0.252060 0.740380 0.423010 -0.539014
O20   O     O_2   0.359347 0.003605 0.787893 -0.483811
O21   O     O_2   0.225785 0.323098 0.200572 -0.460043
O22   O     O_2   0.059178 0.066635 0.130515 -0.474521
O23   O     O_R   0.736390 0.504290 0.414790 -0.463921
O24   O     O_2   0.933456 0.330750 0.864889 -0.504235
O25   O     O_2   0.572174 0.541933 0.911546 -0.526488
O26   O     O_2   0.478792 0.465273 0.773962 -0.496114
O27   O     O_R   0.691300 0.277290 0.422170 -0.506659
O28   O     O_3   0.499990 0.499990 0.499980 -0.310083
O29   O     O_R   0.089400 0.825690 0.930570 -0.518348
O30   O     O_R   0.818460 0.054440 0.929850 -0.485364
O31   O     O_R   0.606060 0.077150 0.915510 -0.531306
O32   O     O_R   0.646550 0.806680 0.917570 -0.535855

loop_
_geom_bond_atom_site_label_1
_geom_bond_atom_site_label_2
_ccdc_geom_bond_type
C21   C26   A    
C47   O31   A    
C2    H33   S    
C34   C56   S    
C8    C13   A    
C27   C29   A    
C28   C46   S    
C51   O9    A    
C63   O26   D    
Cr5   O8    S    
C2    C7    A    
C43   C44   S    
C33   H18   S    
C32   H16   S    
C35   H20   S    
C58   O20   D    
C12   C23   S    
C45   C57   S    
Cr4   O29   S    
C37   C38   A    
C30   C35   S    
C50   O6    A    
C59   H28   S    
Cr2   O19   S    
C18   C19   A    
C10   C15   S    
C31   C36   A    
C5    C6    S    
C61   O24   D    
C20   C25   S    
C3    H34   S    
Cr3   O27   S    
C29   C33   S    
C25   F2    S    
C41   C42   A    
C22   H9    S    
C37   C42   A    
Cr1   O1    S    
C6    H38   S    
C44   H22   S    
C49   O3    A    
Cr1   O18   S    
Cr4   O6    S    
Cr3   O16   S    
C48   O32   A    
Cr6   O3    S    
C41   C46   A    
Cr2   O28   S    
C62   O25   D    
C16   O16   A    
C9    C10   A    
Cr2   O14   S    
C36   C52   S    
C27   C50   S    
C48   O2    A    
C37   C53   S    
C13   H4    S    
C34   C55   S    
C21   C22   A    
Cr6   O10   S    
C50   O7    A    
Cr1   O4    S    
C18   C51   S    
Cr3   O23   S    
C4    C34   S    
C4    O14   A    
C28   O19   A    
C1    O13   A    
C24   C25   S    
C5    C65   S    
C45   H23   S    
C47   C64   S    
C8    C9    A    
C15   H7    S    
C62   H31   S    
C5    H35   S    
Cr3   O28   S    
C3    C64   A    
C44   H24   S    
C47   O30   A    
C56   H1    S    
C28   O18   A    
C9    C14   S    
C6    H37   S    
C29   C30   A    
C11   H2    S    
C41   F3    S    
C12   C62   S    
C31   C32   A    
C21   H8    S    
Cr4   O5    S    
C40   O12   A    
C40   O23   A    
C25   H14   S    
C56   C63   S    
C34   C45   S    
C61   H30   S    
Cr2   O13   S    
C12   C56   S    
C43   C60   S    
C39   C46   A    
C55   F4    S    
Cr4   O11   S    
C7    C16   S    
Cr5   O31   S    
C31   H15   S    
Cr6   O9    S    
C14   H6    S    
C16   O1    A    
Cr2   O12   S    
C23   C54   S    
C54   H3    S    
C54   C58   S    
C23   C57   S    
C60   O22   D    
C54   C55   S    
C11   C17   A    
C23   C48   S    
C15   F1    S    
C27   C32   A    
C18   C22   A    
C52   O17   A    
Cr4   O30   S    
Cr5   O7    S    
Cr1   O17   S    
C43   H21   S    
C53   O10   A    
C33   H17   S    
C42   C59   S    
C53   O5    A    
C39   C44   S    
C5    H36   S    
C35   H19   S    
C57   H25   S    
Cr6   O2    S    
C1    C17   S    
C52   O27   A    
C57   H12   S    
C30   C36   A    
Cr6   O11   S    
C4    O15   A    
C64   C65   A    
C19   C20   A    
C2    C3    A    
C38   C43   S    
C55   H13   S    
C7    C66   A    
C12   C61   S    
C11   C13   A    
C26   C40   S    
C38   C39   A    
C20   C26   A    
C49   O29   A    
C59   O21   D    
C33   C35   S    
C19   C24   S    
C1    O4    A    
C24   H11   S    
C45   H26   S    
C6    C66   S    
Cr5   O32   S    
Cr3   O15   S    
C65   C66   A    
C51   O8    A    
C14   C15   S    
Cr5   O11   S    
C58   H27   S    
C10   C17   A    
C14   H5    S    
C63   H32   S    
Cr1   O28   S    
C24   H10   S    
C8    C49   S    
C60   H29   S    
