data_mof_unit_59315.cif
_audit_creation_date              2012-10-26T21:10:27-0400
_audit_creation_method            fapswitch 2.2
_symmetry_space_group_name_H-M    P1
_symmetry_Int_Tables_number       1
_space_group_crystal_system       triclinic
_cell_length_a                    10.833503
_cell_length_b                    10.928599
_cell_length_c                    9.673007
_cell_angle_alpha                 90.140553
_cell_angle_beta                  90.296428
_cell_angle_gamma                 90.267625
_cell_volume                      1145.20442683

loop_
_atom_site_label
_atom_site_type_symbol
_atom_type_description
_atom_site_fract_x
_atom_site_fract_y
_atom_site_fract_z
_atom_type_partial_charge
C1    C     C_R   0.499085 0.265287 0.499926 0.545983
C2    C     C_R   0.828971 0.389559 0.980014 -0.121177
C3    C     C_R   0.758032 0.283433 0.962458 -0.093963
C4    C     C_R   0.262263 0.502177 0.499481 0.561774
C5    C     C_R   0.748343 0.228605 0.832067 -0.089002
C6    C     C_R   0.809104 0.280110 0.718858 -0.053505
C7    C     C_R   0.879357 0.387641 0.735434 0.049068
C8    C     C_2   0.504847 0.932810 0.386446 -0.119547
C9    C     C_2   0.509795 0.866669 0.502794 -0.091790
C10   C     C_2   0.509524 0.066855 0.386768 -0.140655
C11   C     C_2   0.494258 0.133281 0.501952 -0.117040
C12   C     C_R   0.233671 0.714809 0.033653 -0.119942
C13   C     C_2   0.433312 0.424936 0.921465 -0.022601
C14   C     C_2   0.437260 0.421645 0.077290 -0.016324
C15   C     C_R   0.502169 0.734714 0.500229 0.570992
C16   C     C_R   0.737668 0.496778 0.500558 0.547586
C17   C     C_R   0.228359 0.781692 0.156630 -0.112368
C18   C     C_R   0.170307 0.733239 0.274675 0.093816
C19   C     C_R   0.119493 0.612911 0.266783 0.028431
C20   C     C_R   0.124523 0.547712 0.141535 -0.121303
C21   C     C_R   0.180848 0.598611 0.025756 -0.111454
C22   C     C_2   0.162606 0.811847 0.400920 0.557201
C23   C     C_R   0.932903 0.545076 0.388613 -0.132347
C24   C     C_R   0.871568 0.493912 0.501619 0.003563
C25   C     C_R   0.938996 0.446175 0.614689 -0.027208
C26   C     C_R   0.066998 0.452145 0.611956 -0.139620
C27   C     C_R   0.128302 0.502942 0.498519 0.035834
C28   C     C_R   0.060639 0.551595 0.386331 0.008616
C29   C     C_R   0.889744 0.441462 0.867046 -0.099704
Cu1   Cu    Cu3+1 0.500020 0.500020 0.638630 0.947421
Cu2   Cu    Cu3+1 0.499980 0.499980 0.361370 0.936344
H1    H     H_    0.278266 0.753616 0.943861 0.129449
H2    H     H_    0.560915 0.556007 0.894515 0.208284
H3    H     H_    0.383399 0.351246 0.128265 0.137969
H4    H     H_    0.269100 0.872331 0.158501 0.145208
H5    H     H_    0.545863 0.568609 0.106350 0.203618
H6    H     H_    0.085551 0.456437 0.134073 0.104727
H7    H     H_    0.184414 0.547394 0.929949 0.121498
H8    H     H_    0.881105 0.583864 0.303146 0.124894
H9    H     H_    0.119021 0.413957 0.697594 0.115939
H10   H     H_    0.942797 0.524772 0.881399 0.115030
H11   H     H_    0.836163 0.432062 0.080959 0.112666
H12   H     H_    0.710399 0.243844 0.049821 0.112810
H13   H     H_    0.205517 0.973243 0.491996 0.338588
H14   H     H_    0.693184 0.146568 0.818516 0.100044
H15   H     H_    0.800038 0.237464 0.618081 0.097992
H16   H     H_    0.497559 0.887882 0.286407 0.144216
H17   H     H_    0.522259 0.907799 0.603732 0.090748
H18   H     H_    0.523707 0.111610 0.287895 0.138322
H19   H     H_    0.475700 0.092371 0.601429 0.094404
H20   H     H_    0.372038 0.360757 0.869439 0.129421
N1    N     N_2   0.498640 0.498660 0.846910 -0.342977
N2    N     N_2   0.498610 0.498630 0.153040 -0.346024
O1    O     O_R   0.500020 0.321960 0.617040 -0.501618
O2    O     O_R   0.216095 0.928609 0.400825 -0.722326
O3    O     O_R   0.499980 0.321920 0.382900 -0.498824
O4    O     O_R   0.319660 0.500030 0.617070 -0.502224
O5    O     O_R   0.319620 0.499990 0.382930 -0.491013
O6    O     O_R   0.500020 0.678080 0.617100 -0.495530
O7    O     O_R   0.499980 0.678040 0.382960 -0.498670
O8    O     O_R   0.680380 0.500010 0.617070 -0.482224
O9    O     O_R   0.680340 0.499970 0.382930 -0.512071
O10   O     O_2   0.108520 0.776709 0.504142 -0.529403

loop_
_geom_bond_atom_site_label_1
_geom_bond_atom_site_label_2
_ccdc_geom_bond_type
C4    O4    A    
C12   C17   A    
C23   C24   A    
C24   C25   A    
C14   H3    S    
C6    C7    A    
C7    C29   A    
Cu2   O3    S    
C13   N1    D    
C6    H15   S    
C15   O7    A    
C19   C20   A    
C7    C25   S    
Cu1   Cu2   S    
C1    O1    A    
C26   H9    S    
Cu1   O6    S    
C14   N2    D    
C17   C18   A    
C9    C15   S    
C8    H16   S    
C16   C24   S    
C11   H19   S    
C18   C22   S    
C13   C14   S    
C12   H1    S    
H2    N1    S    
C20   H6    S    
Cu1   O1    S    
Cu2   O9    S    
C3    H12   S    
C26   C27   A    
C22   O2    S    
C15   O6    A    
C2    H11   S    
C2    C29   A    
H13   O2    S    
Cu2   O5    S    
C1    O3    A    
C2    C3    A    
C19   C28   S    
C5    C6    A    
C23   H8    S    
C23   C28   A    
C16   O8    A    
Cu1   O4    S    
C4    C27   S    
C20   C21   A    
C9    H17   S    
C8    C10   S    
C18   C19   A    
C10   C11   D    
Cu1   O8    S    
C4    O5    A    
C27   C28   A    
Cu1   N1    S    
H5    N2    S    
C17   H4    S    
Cu2   O7    S    
C29   H10   S    
C25   C26   A    
C13   H20   S    
C10   H18   S    
C5    H14   S    
C12   C21   A    
C16   O9    A    
Cu2   N2    S    
C21   H7    S    
C22   O10   D    
C8    C9    D    
C3    C5    A    
C1    C11   S    
