data_mof_unit_31277.cif
_audit_creation_date              2012-12-11T14:30:12-0500
_audit_creation_method            fapswitch 2.2
_symmetry_space_group_name_H-M    P1
_symmetry_Int_Tables_number       1
_space_group_crystal_system       triclinic
_cell_length_a                    12.840494
_cell_length_b                    12.840493
_cell_length_c                    27.213619
_cell_angle_alpha                 90.0
_cell_angle_beta                  89.999986
_cell_angle_gamma                 120.000199
_cell_volume                      3885.79148012

loop_
_atom_site_label
_atom_site_type_symbol
_atom_type_description
_atom_site_fract_x
_atom_site_fract_y
_atom_site_fract_z
_atom_type_partial_charge
C1    C     C_R   0.557543 0.454938 0.822169 0.527289
C2    C     C_R   0.452468 0.562329 0.176494 0.548807
C3    C     C_R   0.862441 0.290398 0.460136 -0.089362
C4    C     C_R   0.276664 0.842813 0.010728 -0.088644
C5    C     C_R   0.709601 0.572042 0.460136 -0.089361
C6    C     C_R   0.433853 0.157189 0.510728 -0.088644
C7    C     C_R   0.137559 0.427959 0.960136 -0.089361
C8    C     C_R   0.723336 0.566148 0.510728 -0.088644
C9    C     C_R   0.290398 0.862441 0.960136 -0.089362
C10   C     C_R   0.842812 0.276664 0.510728 -0.088644
C11   C     C_R   0.572043 0.709601 0.960136 -0.089361
C12   C     C_3   0.010840 0.696420 0.134883 -0.352802
C13   C     C_R   0.442457 0.897395 0.322169 0.527288
C14   C     C_3   0.536234 0.789810 0.392892 -0.325070
C15   C     C_3   0.303577 0.314419 0.134883 -0.352801
C16   C     C_3   0.210190 0.746424 0.392892 -0.325070
C17   C     C_3   0.685580 0.989158 0.134883 -0.352802
C18   C     C_3   0.253575 0.463765 0.392892 -0.325069
C19   C     C_3   0.696420 0.010840 0.634883 -0.352802
C20   C     C_3   0.789810 0.536234 0.892891 -0.325070
C21   C     C_3   0.314419 0.303578 0.634883 -0.352801
C22   C     C_3   0.746424 0.210190 0.892892 -0.325069
C23   C     C_3   0.989159 0.685581 0.634883 -0.352802
C24   C     C_R   0.109862 0.547532 0.176494 0.548806
C25   C     C_3   0.463765 0.253575 0.892891 -0.325070
C26   C     C_R   0.025392 0.532768 0.970692 0.021589
C27   C     C_R   0.540281 0.046765 0.521814 0.025105
C28   C     C_R   0.467232 0.492623 0.970692 0.021589
C29   C     C_R   0.953235 0.493516 0.521814 0.025105
C30   C     C_R   0.507376 0.974608 0.970692 0.021589
C31   C     C_R   0.506483 0.459719 0.521814 0.025105
C32   C     C_R   0.532768 0.025391 0.470692 0.021589
C33   C     C_R   0.890138 0.437671 0.676495 0.548807
C34   C     C_R   0.046765 0.540281 0.021814 0.025105
C35   C     C_R   0.492623 0.467232 0.470692 0.021589
C36   C     C_R   0.493516 0.953235 0.021814 0.025105
C37   C     C_R   0.974608 0.507376 0.470692 0.021589
C38   C     C_R   0.459719 0.506483 0.021814 0.025105
C39   C     C_R   0.921587 0.645361 0.981837 0.092953
C40   C     C_R   0.632179 0.922705 0.532387 0.108854
C41   C     C_R   0.354637 0.276225 0.981837 0.092953
C42   C     C_R   0.077294 0.709475 0.532387 0.108853
C43   C     C_R   0.723774 0.078412 0.981837 0.092953
C44   C     C_R   0.545061 0.102605 0.822169 0.527289
C45   C     C_R   0.290524 0.367819 0.532387 0.108854
C46   C     C_R   0.645360 0.921586 0.481837 0.092953
C47   C     C_R   0.922705 0.632180 0.032387 0.108854
C48   C     C_R   0.276225 0.354638 0.481837 0.092954
C49   C     C_R   0.709475 0.077293 0.032386 0.108853
C50   C     C_R   0.078413 0.723774 0.481837 0.092953
C51   C     C_R   0.367818 0.290524 0.032387 0.108854
C52   C     C_R   0.908306 0.543482 0.903461 -0.011900
C53   C     C_R   0.604710 0.024154 0.604036 -0.011054
C54   C     C_R   0.456517 0.364823 0.903461 -0.011900
C55   C     C_R   0.562329 0.452468 0.676494 0.548807
C56   C     C_R   0.975846 0.580557 0.604036 -0.011054
C57   C     C_R   0.635176 0.091693 0.903461 -0.011900
C58   C     C_R   0.419443 0.395288 0.604036 -0.011054
C59   C     C_R   0.543482 0.908306 0.403461 -0.011900
C60   C     C_R   0.024154 0.604711 0.104036 -0.011055
C61   C     C_R   0.364823 0.456517 0.403461 -0.011900
C62   C     C_R   0.580557 0.975845 0.104036 -0.011055
C63   C     C_R   0.091694 0.635176 0.403461 -0.011900
C64   C     C_R   0.395288 0.419442 0.104036 -0.011054
C65   C     C_R   0.078468 0.541446 0.124112 0.028038
C66   C     C_R   0.897395 0.442457 0.822169 0.527289
C67   C     C_R   0.485272 0.952029 0.371710 -0.007086
C68   C     C_R   0.458554 0.537021 0.124112 0.028038
C69   C     C_R   0.047970 0.533242 0.371710 -0.007086
C70   C     C_R   0.462978 0.921532 0.124112 0.028038
C71   C     C_R   0.466758 0.514728 0.371710 -0.007085
C72   C     C_R   0.541446 0.078468 0.624112 0.028038
C73   C     C_R   0.952029 0.485272 0.871710 -0.007085
C74   C     C_R   0.537021 0.458554 0.624112 0.028038
C75   C     C_R   0.533242 0.047970 0.871710 -0.007086
C76   C     C_R   0.921532 0.462978 0.624112 0.028038
C77   C     C_R   0.547532 0.109862 0.676494 0.548806
C78   C     C_R   0.514728 0.466758 0.871710 -0.007085
C79   C     C_R   0.956383 0.579656 0.950942 0.004377
C80   C     C_R   0.591641 0.996185 0.553245 0.016747
C81   C     C_R   0.420343 0.376726 0.950942 0.004377
C82   C     C_R   0.003815 0.595457 0.553245 0.016747
C83   C     C_R   0.623273 0.043616 0.950942 0.004377
C84   C     C_R   0.404543 0.408358 0.553245 0.016747
C85   C     C_R   0.579656 0.956382 0.450942 0.004378
C86   C     C_R   0.996185 0.591641 0.053245 0.016747
C87   C     C_R   0.376726 0.420344 0.450942 0.004378
C88   C     C_R   0.454938 0.557543 0.322169 0.527289
C89   C     C_R   0.595457 0.003814 0.053245 0.016747
C90   C     C_R   0.043617 0.623273 0.450942 0.004378
C91   C     C_R   0.408357 0.404543 0.053245 0.016747
C92   C     C_R   0.035571 0.455077 0.890090 -0.147002
C93   C     C_R   0.486698 0.123545 0.592473 -0.114541
C94   C     C_R   0.544924 0.580495 0.890090 -0.147002
C95   C     C_R   0.876456 0.363153 0.592473 -0.114541
C96   C     C_R   0.419504 0.964429 0.890090 -0.147002
C97   C     C_R   0.636847 0.513303 0.592473 -0.114542
C98   C     C_R   0.455077 0.035571 0.390090 -0.147002
C99   C     C_R   0.437671 0.890138 0.176495 0.548807
C100  C     C_R   0.123544 0.486698 0.092473 -0.114541
C101  C     C_R   0.580495 0.544924 0.390090 -0.147002
C102  C     C_R   0.363153 0.876456 0.092473 -0.114541
C103  C     C_R   0.964429 0.419504 0.390090 -0.147002
C104  C     C_R   0.513303 0.636846 0.092473 -0.114541
C105  C     C_R   0.068351 0.473683 0.939891 0.021572
C106  C     C_R   0.488873 0.111531 0.541690 0.028993
C107  C     C_R   0.526317 0.594667 0.939891 0.021572
C108  C     C_R   0.888469 0.377341 0.541690 0.028993
C109  C     C_R   0.405332 0.931649 0.939891 0.021572
C110  C     C_R   0.102605 0.545061 0.322169 0.527289
C111  C     C_R   0.622659 0.511128 0.541690 0.028993
C112  C     C_R   0.473684 0.068351 0.439891 0.021572
C113  C     C_R   0.111531 0.488872 0.041690 0.028993
C114  C     C_R   0.594667 0.526317 0.439891 0.021572
C115  C     C_R   0.377341 0.888469 0.041690 0.028993
C116  C     C_R   0.931649 0.405332 0.439891 0.021572
C117  C     C_R   0.511128 0.622659 0.041690 0.028993
C118  C     C_R   0.157188 0.433853 0.010728 -0.088644
C119  C     C_R   0.427959 0.137560 0.460136 -0.089361
C120  C     C_R   0.566149 0.723336 0.010728 -0.088644
Cr1   Cr    Cr6+3 0.487630 0.241180 0.750000 1.015529
Cr2   Cr    Cr6+3 0.753550 0.512370 0.750000 1.015529
Cr3   Cr    Cr6+3 0.758820 0.246450 0.750000 1.015529
Cr4   Cr    Cr6+3 0.241180 0.487630 0.250000 1.015529
Cr5   Cr    Cr6+3 0.512370 0.753550 0.250000 1.015529
Cr6   Cr    Cr6+3 0.246450 0.758820 0.250000 1.015529
H1    H     H_    0.172097 0.445268 0.107367 0.128193
H2    H     H_    0.341081 0.932907 0.866697 0.139609
H3    H     H_    0.827904 0.273171 0.607367 0.128194
H4    H     H_    0.591825 0.658918 0.866697 0.139609
H5    H     H_    0.203377 0.390538 0.025932 0.129529
H6    H     H_    0.382236 0.171314 0.437258 0.145900
H7    H     H_    0.609464 0.812840 0.025932 0.129530
H8    H     H_    0.828686 0.210920 0.437258 0.145901
H9    H     H_    0.187160 0.796624 0.025932 0.129530
H10   H     H_    0.789079 0.617766 0.437258 0.145901
H11   H     H_    0.390539 0.203378 0.525932 0.129529
H12   H     H_    0.408176 0.067094 0.366697 0.139609
H13   H     H_    0.171313 0.382235 0.937258 0.145901
H14   H     H_    0.812840 0.609463 0.525932 0.129530
H15   H     H_    0.210920 0.828687 0.937258 0.145901
H16   H     H_    0.796623 0.187160 0.525932 0.129530
H17   H     H_    0.617766 0.789079 0.937258 0.145901
H18   H     H_    0.987360 0.754323 0.113114 0.165111
H19   H     H_    0.943787 0.650743 0.164561 0.167954
H20   H     H_    0.097852 0.764387 0.150661 0.157067
H21   H     H_    0.530908 0.739125 0.426718 0.156838
H22   H     H_    0.451248 0.729108 0.374134 0.122986
H23   H     H_    0.554734 0.726829 0.107367 0.128193
H24   H     H_    0.615340 0.805853 0.370817 0.203085
H25   H     H_    0.245674 0.233037 0.113114 0.165111
H26   H     H_    0.349253 0.293042 0.164561 0.167954
H27   H     H_    0.235612 0.333466 0.150661 0.157067
H28   H     H_    0.260875 0.791783 0.426718 0.156839
H29   H     H_    0.270891 0.722140 0.374135 0.122985
H30   H     H_    0.194147 0.809488 0.370817 0.203086
H31   H     H_    0.766963 0.012637 0.113114 0.165111
H32   H     H_    0.706958 0.056212 0.164561 0.167955
H33   H     H_    0.666534 0.902146 0.150661 0.157067
H34   H     H_    0.932907 0.341081 0.366697 0.139609
H35   H     H_    0.208216 0.469091 0.426718 0.156838
H36   H     H_    0.277859 0.548751 0.374134 0.122985
H37   H     H_    0.190512 0.384659 0.370817 0.203085
H38   H     H_    0.754323 0.987360 0.613114 0.165111
H39   H     H_    0.764386 0.097852 0.650661 0.157067
H40   H     H_    0.650743 0.943787 0.664561 0.167954
H41   H     H_    0.739125 0.530908 0.926718 0.156839
H42   H     H_    0.805853 0.615340 0.870817 0.203086
H43   H     H_    0.729109 0.451248 0.874134 0.122986
H44   H     H_    0.233036 0.245674 0.613114 0.165111
H45   H     H_    0.273171 0.827905 0.107367 0.128194
H46   H     H_    0.333466 0.235612 0.650661 0.157067
H47   H     H_    0.293043 0.349254 0.664561 0.167954
H48   H     H_    0.791783 0.260874 0.926718 0.156839
H49   H     H_    0.809488 0.194147 0.870817 0.203086
H50   H     H_    0.722140 0.270891 0.874135 0.122985
H51   H     H_    0.012638 0.766963 0.613114 0.165111
H52   H     H_    0.902147 0.666534 0.650661 0.157067
H53   H     H_    0.056212 0.706958 0.664561 0.167954
H54   H     H_    0.469090 0.208216 0.926718 0.156838
H55   H     H_    0.384659 0.190512 0.870817 0.203085
H56   H     H_    0.658918 0.591825 0.366697 0.139609
H57   H     H_    0.548751 0.277860 0.874135 0.122986
H58   H     H_    0.445269 0.172097 0.607367 0.128193
H59   H     H_    0.067093 0.408176 0.866697 0.139609
H60   H     H_    0.726829 0.554733 0.607367 0.128193
I1    I     I_    0.767730 0.610710 0.070132 -0.354009
I2    I     I_    0.894191 0.110261 0.955496 -0.322669
I3    I     I_    0.232269 0.842983 0.570131 -0.354009
I4    I     I_    0.216069 0.105808 0.955496 -0.322668
I5    I     I_    0.783929 0.889737 0.455497 -0.322669
I6    I     I_    0.389284 0.157017 0.070132 -0.354009
I7    I     I_    0.110262 0.894192 0.455496 -0.322669
I8    I     I_    0.842983 0.232268 0.070131 -0.354009
I9    I     I_    0.105807 0.216070 0.455497 -0.322669
I10   I     I_    0.610710 0.767729 0.570132 -0.354008
I11   I     I_    0.889738 0.783929 0.955497 -0.322669
I12   I     I_    0.157017 0.389285 0.570132 -0.354008
O1    O     O_R   0.460870 0.120930 0.805240 -0.522338
O2    O     O_R   0.120930 0.460870 0.194760 -0.506885
O3    O     O_R   0.539130 0.660060 0.305240 -0.522338
O4    O     O_R   0.339940 0.879070 0.194760 -0.506884
O5    O     O_R   0.498910 0.350470 0.801870 -0.497256
O6    O     O_R   0.851560 0.501090 0.698130 -0.519318
O7    O     O_R   0.649530 0.148440 0.801870 -0.497256
O8    O     O_R   0.498910 0.350470 0.698130 -0.519317
O9    O     O_R   0.851560 0.501090 0.801870 -0.497256
O10   O     O_R   0.649530 0.148440 0.698130 -0.519317
O11   O     O_R   0.350470 0.498910 0.301870 -0.497256
O12   O     O_R   0.660060 0.539130 0.694760 -0.506885
O13   O     O_R   0.501090 0.851560 0.198130 -0.519318
O14   O     O_R   0.148440 0.649530 0.301870 -0.497255
O15   O     O_R   0.350470 0.498910 0.198130 -0.519317
O16   O     O_R   0.501090 0.851560 0.301870 -0.497256
O17   O     O_R   0.148440 0.649530 0.198130 -0.519317
O18   O     O_3   0.666667 0.333333 0.750000 -0.258585
O19   O     O_3   0.333333 0.666667 0.250000 -0.258585
O20   O     O_R   0.879070 0.339940 0.805240 -0.522338
O21   O     O_R   0.460870 0.120930 0.694760 -0.506884
O22   O     O_R   0.660060 0.539130 0.805240 -0.522338
O23   O     O_R   0.879070 0.339940 0.694760 -0.506884
O24   O     O_R   0.120930 0.460870 0.305240 -0.522338
O25   O     O_R   0.539130 0.660060 0.194760 -0.506885
O26   O     O_R   0.339940 0.879070 0.305240 -0.522338

loop_
_geom_bond_atom_site_label_1
_geom_bond_atom_site_label_2
_ccdc_geom_bond_type
C36   C89   A    
C12   H19   S    
C5    H10   S    
C56   C76   A    
C5    C114  A    
C100  H1    S    
C43   C83   A    
C4    C115  A    
C10   C108  A    
C42   C82   A    
C46   I5    S    
C44   O7    A    
C22   C57   S    
C15   H25   S    
C22   H49   S    
Cr5   O13   S    
C25   H54   S    
C23   C56   S    
C37   C116  A    
C99   O13   A    
Cr6   O4    S    
C34   C113  A    
C40   C46   A    
C14   C59   S    
Cr3   O23   S    
Cr5   O3    S    
C94   H4    S    
Cr2   O22   S    
C41   I4    S    
C98   H12   S    
C64   C68   A    
C2    C68   S    
C3    C116  A    
C76   C95   A    
C10   H16   S    
C97   C111  A    
C18   H35   S    
Cr6   O26   S    
C103  H34   S    
Cr4   O11   S    
C28   C107  A    
C12   H20   S    
C21   H44   S    
C62   C89   A    
C14   H22   S    
C102  H45   S    
C62   C70   A    
C35   C114  A    
C120  H7    S    
C34   C86   A    
Cr2   O6    S    
C30   C83   A    
C20   H41   S    
Cr1   O1    S    
C23   H52   S    
C102  C115  A    
C61   C87   A    
C67   C98   A    
C51   C91   A    
C55   C74   S    
C35   C87   A    
C50   C90   A    
C63   C69   A    
C25   H55   S    
C93   C106  A    
C16   H30   S    
C15   C64   S    
C40   C80   A    
C29   C108  A    
C33   O23   A    
C118  H5    S    
C19   H40   S    
C88   O3    A    
C52   C79   A    
C17   H31   S    
C53   C72   A    
C23   H53   S    
Cr6   O19   S    
C42   I3    S    
C46   C85   A    
C59   C67   A    
C61   C71   A    
Cr5   O25   S    
C20   H43   S    
C71   C101  A    
Cr3   O18   S    
C101  C114  A    
C38   C117  A    
C7    C118  A    
Cr1   O8    S    
C11   C120  A    
C26   C105  A    
C15   H26   S    
C22   H48   S    
C26   C34   A    
C75   C96   A    
C74   C97   A    
Cr4   O15   S    
C69   C103  A    
C9    C109  A    
C97   H60   S    
C20   H42   S    
C40   I10   S    
C94   C107  A    
C98   C112  A    
C30   C109  A    
C1    C78   S    
C15   H27   S    
C47   C86   A    
C53   C80   A    
C25   C54   S    
Cr1   O5    S    
C27   C80   A    
Cr6   O17   S    
C117  C120  A    
C11   C107  A    
C9    H15   S    
C92   H59   S    
C43   C49   A    
C27   C106  A    
C45   I12   S    
C66   C73   S    
Cr3   O10   S    
C38   C91   A    
C31   C84   A    
C113  C118  A    
C39   C79   A    
C104  H23   S    
C44   C75   S    
Cr1   O18   S    
C72   C77   S    
C58   C84   A    
C17   C62   S    
C5    C8    A    
C96   H2    S    
Cr5   O16   S    
C33   C76   S    
C110  O14   A    
C28   C38   A    
C41   C81   A    
C14   H24   S    
C16   H29   S    
Cr2   O12   S    
C119  H6    S    
C6    C106  A    
C48   C87   A    
C57   C83   A    
C17   H32   S    
C24   C65   S    
C42   C50   A    
C4    H9    S    
C72   C93   A    
C37   C90   A    
C16   C63   S    
C69   C110  S    
Cr4   O24   S    
C60   C65   A    
C52   C73   A    
C21   H47   S    
C88   O11   A    
C48   I9    S    
C16   H28   S    
C31   C35   A    
C8    C111  A    
C45   C84   A    
C13   O26   A    
C47   I1    S    
C1    O5    A    
C6    C119  A    
C70   C99   S    
C58   C74   A    
C39   C47   A    
C104  C117  A    
C13   C67   S    
C45   C48   A    
C93   H58   S    
C66   O20   A    
C55   O8    A    
Cr4   O19   S    
C60   C86   A    
C32   C112  A    
C27   C32   A    
Cr1   O21   S    
Cr2   O9    S    
Cr3   O20   S    
C77   O21   A    
C100  C113  A    
C68   C104  A    
C73   C92   A    
C49   C89   A    
C65   C100  A    
C112  C119  A    
C22   H50   S    
C50   I7    S    
C70   C102  A    
C18   C61   S    
C56   C82   A    
C44   O1    A    
C21   H46   S    
C96   C109  A    
Cr4   O2    S    
C33   O6    A    
C26   C79   A    
C30   C36   A    
C8    H14   S    
C3    H8    S    
C57   C75   A    
C6    H11   S    
C103  C116  A    
C28   C81   A    
C29   C82   A    
C99   O4    A    
C3    C10   A    
Cr6   O14   S    
C55   O12   A    
C7    H13   S    
C66   O9    A    
C18   H36   S    
C18   H37   S    
C19   C53   S    
C39   I11   S    
C43   I2    S    
C78   C94   A    
C32   C85   A    
C14   H21   S    
C63   C90   A    
C2    O25   A    
C24   O17   A    
Cr2   O18   S    
C7    C105  A    
C1    O22   A    
C19   H38   S    
Cr3   O7    S    
C17   H33   S    
C23   H51   S    
C95   C108  A    
C101  H56   S    
C71   C88   S    
C12   C60   S    
C12   H18   S    
C92   C105  A    
C21   C58   S    
C77   O10   A    
C24   O2    A    
C2    O15   A    
C20   C52   S    
C49   I8    S    
C29   C37   A    
C95   H3    S    
C31   C111  A    
C19   H39   S    
C64   C91   A    
C4    C9    A    
C36   C115  A    
C11   H17   S    
C59   C85   A    
C41   C51   A    
C54   C81   A    
C51   I6    S    
C25   H57   S    
Cr5   O19   S    
C54   C78   A    
C13   O16   A    
C110  O24   A    
