data_mof_unit_53749.cif
_audit_creation_date              2012-12-11T16:48:26-0500
_audit_creation_method            fapswitch 2.2
_symmetry_space_group_name_H-M    P1
_symmetry_Int_Tables_number       1
_space_group_crystal_system       triclinic
_cell_length_a                    17.333844
_cell_length_b                    24.476665
_cell_length_c                    14.954435
_cell_angle_alpha                 90.179458
_cell_angle_beta                  125.568328
_cell_angle_gamma                 89.67363
_cell_volume                      5160.90922804

loop_
_atom_site_label
_atom_site_type_symbol
_atom_type_description
_atom_site_fract_x
_atom_site_fract_y
_atom_site_fract_z
_atom_type_partial_charge
C1    C     C_R   0.355776 0.348059 0.908414 -0.148417
C2    C     C_R   0.539363 0.496926 0.712778 0.068794
C3    C     C_R   0.057047 0.847096 0.909825 -0.140815
C4    C     C_R   0.383679 0.316369 0.997811 0.087418
C5    C     C_R   0.617337 0.315794 0.002906 0.088194
C6    C     C_R   0.883680 0.816368 0.997812 0.087423
C7    C     C_R   0.117337 0.815794 0.002905 0.088194
C8    C     C_1   0.503725 0.228430 0.827251 0.033021
C9    C     C_1   0.494841 0.227544 0.168843 0.036816
C10   C     C_1   0.003725 0.728431 0.827250 0.033019
C11   C     C_1   0.994842 0.727548 0.168860 0.036814
C12   C     C_1   0.267101 0.665985 0.812394 -0.006919
C13   C     C_R   0.063092 0.997856 0.365630 0.079014
C14   C     C_1   0.748061 0.653746 0.200851 -0.000956
C15   C     C_1   0.767102 0.165985 0.812394 -0.006920
C16   C     C_1   0.248064 0.153744 0.200851 -0.000952
C17   C     C_R   0.039363 0.996926 0.712778 0.068794
C18   C     C_R   0.173738 0.497546 0.693801 0.129943
C19   C     C_R   0.795981 0.497164 0.369176 0.126820
C20   C     C_R   0.673738 0.997546 0.693801 0.129943
C21   C     C_R   0.295980 0.997164 0.369176 0.126820
C22   C     C_2   0.919851 0.451944 0.537342 -0.110502
C23   C     C_2   0.021366 0.456005 0.624182 -0.115108
C24   C     C_2   0.419850 0.951944 0.537342 -0.110504
C25   C     C_R   0.646153 0.348189 0.092185 -0.135915
C26   C     C_2   0.521366 0.956005 0.624182 -0.115105
C27   C     C_2   0.868795 0.497035 0.486883 -0.196970
C28   C     C_2   0.071457 0.497516 0.623842 -0.192845
C29   C     C_2   0.368795 0.997035 0.486883 -0.196970
C30   C     C_2   0.571456 0.997516 0.623842 -0.192845
C31   C     C_R   0.280806 0.699325 0.109681 0.159960
C32   C     C_R   0.712010 0.706267 0.892335 0.151416
C33   C     C_R   0.780806 0.199325 0.109681 0.159960
C34   C     C_R   0.211995 0.206277 0.892335 0.151400
C35   C     C_R   0.250600 0.673476 0.011266 0.025981
C36   C     C_R   0.855777 0.848059 0.908415 -0.148425
C37   C     C_R   0.743749 0.679431 0.990248 0.028271
C38   C     C_R   0.750600 0.173476 0.011266 0.025980
C39   C     C_R   0.243743 0.179433 0.990245 0.028275
C40   C     C_R   0.155499 0.679658 0.920937 -0.249114
C41   C     C_R   0.840612 0.682262 0.077509 -0.249398
C42   C     C_R   0.655499 0.179658 0.920937 -0.249114
C43   C     C_R   0.340610 0.182260 0.077498 -0.249395
C44   C     C_R   0.600877 0.222111 0.921240 0.044930
C45   C     C_R   0.396590 0.223126 0.076757 0.042167
C46   C     C_R   0.100877 0.722110 0.921240 0.044931
C47   C     C_R   0.146152 0.848189 0.092185 -0.135915
C48   C     C_R   0.896594 0.723127 0.076768 0.042166
C49   C     C_R   0.644740 0.258629 0.011603 -0.038463
C50   C     C_R   0.353038 0.260432 0.988097 -0.037139
C51   C     C_R   0.144740 0.758629 0.011603 -0.038464
C52   C     C_R   0.853046 0.760429 0.988101 -0.037143
C53   C     C_R   0.404027 0.624781 0.093034 -0.165886
C54   C     C_R   0.589560 0.632925 0.908399 -0.166152
C55   C     C_R   0.904027 0.124782 0.093034 -0.165886
C56   C     C_R   0.089560 0.132924 0.908398 -0.166147
C57   C     C_R   0.728828 0.241627 0.109812 0.147694
C58   C     C_R   0.318889 0.643816 0.003224 0.030555
C59   C     C_R   0.265946 0.246314 0.891183 0.153478
C60   C     C_R   0.228829 0.741627 0.109812 0.147692
C61   C     C_R   0.765962 0.746304 0.891183 0.153490
C62   C     C_3   0.816588 0.272789 0.193559 -0.496606
C63   C     C_3   0.180308 0.280750 0.812582 -0.505214
C64   C     C_3   0.316588 0.772789 0.193558 -0.496607
C65   C     C_3   0.680323 0.780733 0.812556 -0.505226
C66   C     C_3   0.373383 0.726005 0.193431 -0.509474
C67   C     C_3   0.621192 0.736402 0.813762 -0.510907
C68   C     C_3   0.873383 0.226005 0.193432 -0.509472
C69   C     C_R   0.676254 0.649649 0.998457 0.026112
C70   C     C_3   0.121178 0.236419 0.813788 -0.510887
C71   C     C_R   0.592292 0.445431 0.614590 0.160270
C72   C     C_R   0.598971 0.445701 0.527277 0.153833
C73   C     C_R   0.092295 0.945431 0.614593 0.160270
C74   C     C_R   0.098975 0.945702 0.527280 0.153833
C75   C     C_R   0.585728 0.494758 0.657245 0.036449
C76   C     C_R   0.599288 0.495328 0.481073 0.035314
C77   C     C_R   0.085729 0.994758 0.657246 0.036448
C78   C     C_R   0.099290 0.995329 0.481074 0.035314
C79   C     C_R   0.612742 0.543025 0.631613 -0.197678
C80   C     C_R   0.818889 0.143817 0.003224 0.030556
C81   C     C_R   0.619387 0.543347 0.542838 -0.197833
C82   C     C_R   0.112741 0.043026 0.631612 -0.197678
C83   C     C_R   0.119387 0.043348 0.542837 -0.197832
C84   C     C_3   0.536294 0.396676 0.476190 -0.508420
C85   C     C_3   0.529086 0.396436 0.571795 -0.511469
C86   C     C_3   0.036302 0.896675 0.476195 -0.508418
C87   C     C_3   0.029093 0.896435 0.571800 -0.511466
C88   C     C_R   0.547933 0.453116 0.301569 -0.142812
C89   C     C_R   0.516524 0.452306 0.748866 -0.144359
C90   C     C_R   0.047933 0.953117 0.301570 -0.142812
C91   C     C_R   0.176254 0.149648 0.998456 0.026108
C92   C     C_R   0.016524 0.952306 0.748866 -0.144358
C93   C     C_R   0.229556 0.543686 0.725964 -0.153909
C94   C     C_R   0.750753 0.543201 0.307265 -0.139803
C95   C     C_R   0.729555 0.043686 0.725965 -0.153909
C96   C     C_R   0.250753 0.043201 0.307266 -0.139801
C97   C     C_R   0.547921 0.544068 0.303683 -0.139654
C98   C     C_R   0.507676 0.543343 0.736222 -0.118709
C99   C     C_R   0.047921 0.044068 0.303683 -0.139654
C100  C     C_R   0.007676 0.043343 0.736221 -0.118709
C101  C     C_R   0.232299 0.452334 0.735687 -0.120203
C102  C     C_R   0.563091 0.497856 0.365629 0.079014
C103  C     C_R   0.751787 0.452574 0.302390 -0.111622
C104  C     C_R   0.732299 0.952334 0.735687 -0.120202
C105  C     C_R   0.251786 0.952574 0.302390 -0.111622
C106  C     C_R   0.316506 0.632759 0.910134 0.067109
C107  C     C_R   0.683494 0.632465 0.091544 0.074351
C108  C     C_R   0.816507 0.132759 0.910134 0.067110
C109  C     C_R   0.183494 0.132464 0.091544 0.074348
C110  C     C_R   0.442677 0.347706 0.090990 -0.125142
C111  C     C_R   0.557047 0.347096 0.909825 -0.140815
C112  C     C_R   0.942677 0.847706 0.090990 -0.125139
H1    H     H_    0.893051 0.536627 0.526780 0.136770
H2    H     H_    0.177240 0.319590 0.849270 0.202800
H3    H     H_    0.325223 0.811215 0.160767 0.204853
H4    H     H_    0.677239 0.819576 0.849222 0.202798
H5    H     H_    0.414352 0.737477 0.160431 0.204307
H6    H     H_    0.584507 0.749560 0.851396 0.204944
H7    H     H_    0.914352 0.237477 0.160432 0.204306
H8    H     H_    0.084508 0.249572 0.851444 0.204944
H9    H     H_    0.414199 0.703295 0.272587 0.188082
H10   H     H_    0.575701 0.715317 0.733139 0.185807
H11   H     H_    0.914199 0.203295 0.272588 0.188081
H12   H     H_    0.037675 0.531949 0.568203 0.137406
H13   H     H_    0.075672 0.215341 0.733158 0.185806
H14   H     H_    0.467191 0.405725 0.396823 0.204717
H15   H     H_    0.563674 0.360165 0.625899 0.197188
H16   H     H_    0.967198 0.905722 0.396827 0.204716
H17   H     H_    0.063683 0.860165 0.625906 0.197188
H18   H     H_    0.568987 0.411401 0.328545 0.100736
H19   H     H_    0.531646 0.409914 0.745846 0.110534
H20   H     H_    0.068988 0.911401 0.328545 0.100736
H21   H     H_    0.031647 0.909914 0.745846 0.110533
H22   H     H_    0.204129 0.584276 0.696348 0.117121
H23   H     H_    0.393052 0.036626 0.526780 0.136771
H24   H     H_    0.756698 0.583152 0.341293 0.111487
H25   H     H_    0.704129 0.084276 0.696348 0.117121
H26   H     H_    0.256698 0.083152 0.341293 0.111486
H27   H     H_    0.566863 0.585526 0.333554 0.085924
H28   H     H_    0.504342 0.583839 0.706758 0.085607
H29   H     H_    0.066863 0.085526 0.333554 0.085924
H30   H     H_    0.004342 0.083839 0.706758 0.085607
H31   H     H_    0.212367 0.409754 0.721894 0.091960
H32   H     H_    0.759409 0.410487 0.328098 0.081737
H33   H     H_    0.712367 0.909754 0.721895 0.091961
H34   H     H_    0.537675 0.031949 0.568202 0.137406
H35   H     H_    0.259409 0.910487 0.328098 0.081738
H36   H     H_    0.484402 0.334572 0.175711 0.103719
H37   H     H_    0.513414 0.333380 0.825631 0.105569
H38   H     H_    0.984403 0.834573 0.175712 0.103720
H39   H     H_    0.013413 0.833380 0.825631 0.105569
H40   H     H_    0.893961 0.411760 0.501764 0.119038
H41   H     H_    0.056751 0.421060 0.677971 0.124303
H42   H     H_    0.393960 0.911760 0.501764 0.119039
H43   H     H_    0.556751 0.921060 0.677972 0.124301
H44   H     H_    0.322029 0.334317 0.824729 0.106603
H45   H     H_    0.126629 0.654813 0.847972 0.145777
H46   H     H_    0.680898 0.334959 0.176285 0.102574
H47   H     H_    0.822033 0.834316 0.824731 0.106606
H48   H     H_    0.180898 0.834959 0.176285 0.102573
H49   H     H_    0.825267 0.277057 0.272997 0.187997
H50   H     H_    0.168419 0.285084 0.731422 0.187205
H51   H     H_    0.325268 0.777058 0.272996 0.187998
H52   H     H_    0.668449 0.785059 0.731403 0.187213
H53   H     H_    0.617004 0.581524 0.670018 0.128062
H54   H     H_    0.627962 0.582157 0.515320 0.126220
H55   H     H_    0.117001 0.081524 0.670016 0.128062
H56   H     H_    0.870696 0.655899 0.148510 0.150085
H57   H     H_    0.127959 0.082159 0.515318 0.126220
H58   H     H_    0.574964 0.360510 0.475332 0.194581
H59   H     H_    0.455965 0.405429 0.546474 0.201876
H60   H     H_    0.074974 0.860509 0.475340 0.194581
H61   H     H_    0.955971 0.905427 0.546478 0.201875
H62   H     H_    0.430014 0.626604 0.178260 0.120388
H63   H     H_    0.556866 0.643946 0.824499 0.110869
H64   H     H_    0.930014 0.126605 0.178260 0.120388
H65   H     H_    0.056865 0.143946 0.824498 0.110866
H66   H     H_    0.626629 0.154814 0.847972 0.145777
H67   H     H_    0.370697 0.155893 0.148496 0.150083
H68   H     H_    0.825224 0.311215 0.160768 0.204852
N1    N     N_R   0.395410 0.396350 0.944340 -0.040187
N2    N     N_R   0.474920 0.471030 0.794350 -0.041461
N3    N     N_R   0.025080 0.971030 0.205650 -0.038832
N4    N     N_R   0.974920 0.971030 0.794350 -0.041462
N5    N     N_R   0.320260 0.527820 0.794570 -0.043671
N6    N     N_R   0.679740 0.527820 0.205430 -0.044733
N7    N     N_R   0.820260 0.027820 0.794570 -0.043671
N8    N     N_R   0.179740 0.027820 0.205430 -0.044733
N9    N     N_R   0.524590 0.527840 0.205200 -0.037889
N10   N     N_R   0.475410 0.527840 0.794800 -0.039289
N11   N     N_R   0.024590 0.027840 0.205200 -0.037889
N12   N     N_R   0.604590 0.396350 0.055660 -0.040198
N13   N     N_R   0.975410 0.027840 0.794800 -0.039289
N14   N     N_R   0.320750 0.471000 0.795020 -0.044883
N15   N     N_R   0.679250 0.471000 0.204980 -0.045186
N16   N     N_R   0.820750 0.971000 0.795020 -0.044883
N17   N     N_R   0.179250 0.971000 0.204980 -0.045186
N18   N     N_R   0.393620 0.602490 0.942710 -0.059817
N19   N     N_R   0.606380 0.602490 0.057290 -0.062409
N20   N     N_R   0.893620 0.102490 0.942710 -0.059817
N21   N     N_R   0.106380 0.102490 0.057290 -0.062409
N22   N     N_R   0.451720 0.396350 0.057510 -0.041501
N23   N     N_R   0.895410 0.896350 0.944340 -0.040187
N24   N     N_R   0.548280 0.396350 0.942490 -0.040978
N25   N     N_R   0.951720 0.896350 0.057510 -0.041501
N26   N     N_R   0.048280 0.896350 0.942490 -0.040978
N27   N     N_1   0.425652 0.233229 0.751921 -0.101975
N28   N     N_1   0.573743 0.230937 0.242583 -0.102402
N29   N     N_1   0.925652 0.733230 0.751919 -0.101975
N30   N     N_1   0.073742 0.730943 0.242605 -0.102403
N31   N     N_1   0.227638 0.693021 0.734315 -0.091674
N32   N     N_1   0.800185 0.671727 0.288011 -0.095616
N33   N     N_1   0.727639 0.193021 0.734315 -0.091674
N34   N     N_R   0.104590 0.896350 0.055660 -0.040197
N35   N     N_1   0.300192 0.171725 0.288011 -0.095616
N36   N     N_R   0.449930 0.602500 0.055880 -0.050938
N37   N     N_R   0.550070 0.602500 0.944120 -0.048794
N38   N     N_R   0.949930 0.102500 0.055880 -0.050939
N39   N     N_R   0.050070 0.102500 0.944120 -0.048795
N40   N     N_R   0.525080 0.471030 0.205650 -0.038832
Ni1   Ni    Ni4+2 0.435420 0.434270 0.870230 0.209505
Ni2   Ni    Ni4+2 0.564580 0.434270 0.129770 0.204419
Ni3   Ni    Ni4+2 0.935420 0.934270 0.870230 0.209505
Ni4   Ni    Ni4+2 0.064580 0.934270 0.129770 0.204420
Ni5   Ni    Ni4+2 0.563430 0.564580 0.128740 0.211668
Ni6   Ni    Ni4+2 0.436570 0.564580 0.871260 0.220494
Ni7   Ni    Ni4+2 0.063430 0.064580 0.128740 0.211667
Ni8   Ni    Ni4+2 0.936570 0.064580 0.871260 0.220494

loop_
_geom_bond_atom_site_label_1
_geom_bond_atom_site_label_2
_ccdc_geom_bond_type
C44   C49   A    
C15   C108  S    
C31   C66   S    
C71   C75   A    
N6    Ni5   S    
C47   N34   A    
C9    C45   S    
N7    Ni8   S    
C37   C69   S    
N7    N16   A    
N4    Ni3   S    
N20   N38   A    
C73   C74   A    
C96   N8    A    
N1    N22   A    
N19   N37   A    
C88   H18   S    
N5    N14   A    
C15   N33   T    
N8    Ni7   S    
N18   N36   A    
C103  H32   S    
N40   Ni2   S    
C69   C107  A    
C95   N7    A    
C57   C62   S    
C20   C30   S    
C100  N13   A    
C40   C46   A    
C105  N17   A    
N23   N25   A    
C43   H67   S    
C82   H55   S    
C85   H59   S    
C63   H50   S    
C103  N15   A    
C56   H65   S    
C35   C58   S    
C86   H60   S    
C50   C59   A    
N8    N17   A    
C13   C99   A    
C24   C26   S    
C32   C61   A    
C38   C42   A    
C76   C81   A    
C3    C7    A    
C52   C61   A    
C68   H7    S    
C62   H68   S    
C13   C90   A    
N11   Ni7   S    
N13   Ni8   S    
C62   H49   S    
N4    N13   A    
C105  H35   S    
C41   H56   S    
C49   C57   A    
N20   Ni8   S    
N22   Ni2   S    
C24   C29   D    
C73   C87   S    
C2    C89   A    
C36   H47   S    
C71   C85   S    
C63   H2    S    
C19   C103  A    
C78   C83   A    
C56   C91   A    
C92   H21   S    
C70   H8    S    
N3    Ni4   S    
C99   N11   A    
C66   H5    S    
C110  N22   A    
C10   C46   S    
C94   H24   S    
C81   H54   S    
C36   N23   A    
N39   Ni8   S    
C19   C27   S    
C34   C70   S    
C97   C102  A    
N9    N40   A    
C98   N10   A    
N37   Ni6   S    
C106  N18   A    
C90   H20   S    
N26   N34   A    
C97   N9    A    
C64   H3    S    
C76   C102  S    
C5    C49   S    
C26   H43   S    
C17   C92   A    
C42   C44   A    
C64   H51   S    
C110  H36   S    
C111  H37   S    
C68   H11   S    
C39   C91   S    
C67   H6    S    
C24   H42   S    
C16   C109  S    
C30   H34   S    
C55   N38   A    
C47   H48   S    
C84   H14   S    
C87   H61   S    
C16   N35   T    
C22   H40   S    
C95   H25   S    
N1    Ni1   S    
C34   C39   A    
C94   N6    A    
N6    N15   A    
C18   C28   S    
C84   C85   S    
N21   N39   A    
C93   H22   S    
C92   N4    A    
C79   C81   A    
C1    N1    A    
C86   C87   S    
C96   H26   S    
C39   C43   A    
C5    C111  A    
C65   C67   S    
C23   C28   D    
C86   H16   S    
C46   C51   A    
C25   N12   A    
C79   H53   S    
C88   N40   A    
C4    C50   S    
C58   C106  A    
C18   C101  A    
C7    C47   A    
C54   H63   S    
C108  N20   A    
C1    H44   S    
C43   C45   A    
C40   H45   S    
C10   N29   T    
C63   C70   S    
N26   Ni3   S    
C8    N27   T    
C17   C77   S    
C104  N16   A    
C66   H9    S    
N23   Ni3   S    
C72   C76   A    
C32   C37   A    
C74   C86   S    
C11   C48   S    
N19   Ni5   S    
C2    C98   A    
C72   C84   S    
C19   C94   A    
N34   Ni4   S    
C32   C67   S    
C5    C25   A    
C27   H1    S    
C70   H13   S    
C14   C107  S    
C29   H23   S    
C20   C95   A    
C26   C30   D    
C53   N36   A    
C22   C27   D    
N14   Ni1   S    
C34   C59   A    
C65   H4    S    
C31   C35   A    
C59   C63   S    
C85   H15   S    
C67   H10   S    
N38   Ni7   S    
C101  N14   A    
C54   N37   A    
N21   Ni7   S    
C4    C110  A    
C13   C78   S    
N2    Ni1   S    
C33   C57   A    
N12   N24   A    
N10   Ni6   S    
C3    N26   A    
C6    C112  A    
C104  H33   S    
C99   H29   S    
N9    Ni5   S    
C8    C44   S    
C12   N31   T    
C3    H39   S    
C9    N28   T    
N3    N11   A    
C111  N24   A    
C112  N25   A    
N15   Ni2   S    
C88   C102  A    
C53   C58   A    
C28   H12   S    
C20   C104  A    
C21   C96   A    
C14   N32   T    
C12   C106  S    
C80   C108  A    
N25   Ni4   S    
C84   H58   S    
N36   Ni5   S    
C89   H19   S    
C62   C68   S    
C60   C64   S    
C1    C4    A    
C89   N2    A    
C91   C109  A    
C51   C60   A    
C23   H41   S    
C35   C40   A    
N12   Ni2   S    
C71   C72   A    
C11   N30   T    
C100  H30   S    
C107  N19   A    
C55   C80   A    
C101  H31   S    
C87   H17   S    
C54   C69   A    
C21   C29   S    
C77   C82   A    
C42   H66   S    
N5    Ni6   S    
C83   H57   S    
C65   H52   S    
C109  N21   A    
C53   H62   S    
C41   C48   A    
C6    C36   A    
C112  H38   S    
C37   C41   A    
C17   C100  A    
C55   H64   S    
N16   Ni3   S    
N17   Ni4   S    
C7    C51   S    
C61   C65   S    
C48   C52   A    
C90   N3    A    
C38   C80   S    
C82   C83   A    
C74   C78   A    
C98   H28   S    
C25   H46   S    
C18   C93   A    
C73   C77   A    
C22   C23   S    
C33   C38   A    
C45   C50   A    
N2    N10   A    
C31   C60   A    
C6    C52   S    
C75   C79   A    
C97   H27   S    
C56   N39   A    
C21   C105  A    
C2    C75   S    
N18   Ni6   S    
C33   C68   S    
C64   C66   S    
N24   Ni1   S    
C93   N5    A    
