data_mof_unit_31163.cif
_audit_creation_date              2012-12-10T17:16:34-0500
_audit_creation_method            fapswitch 2.2
_symmetry_space_group_name_H-M    P1
_symmetry_Int_Tables_number       1
_space_group_crystal_system       triclinic
_cell_length_a                    10.300483
_cell_length_b                    10.540308
_cell_length_c                    10.83304
_cell_angle_alpha                 89.161155
_cell_angle_beta                  93.740491
_cell_angle_gamma                 84.084999
_cell_volume                      1167.12149536

loop_
_atom_site_label
_atom_site_type_symbol
_atom_type_description
_atom_site_fract_x
_atom_site_fract_y
_atom_site_fract_z
_atom_type_partial_charge
C1    C     C_R   0.445787 0.511327 0.268362 0.949995
C2    C     C_R   0.507538 0.738803 0.515171 0.872113
C3    C     C_R   0.664295 0.093889 0.330945 -0.135820
C4    C     C_R   0.336873 0.905316 0.669363 -0.177093
C5    C     C_R   0.782365 0.023483 0.305995 -0.070039
C6    C     C_R   0.219481 0.975987 0.695279 -0.084946
C7    C     C_R   0.829124 0.918983 0.383790 -0.211638
C8    C     C_R   0.172208 0.080037 0.617138 -0.218194
C9    C     C_R   0.751733 0.876863 0.475328 -0.006361
C10   C     C_R   0.246957 0.120385 0.522403 -0.100599
C11   C     C_R   0.620338 0.931005 0.478027 0.011137
C12   C     C_R   0.554392 0.494803 0.731518 0.945219
C13   C     C_R   0.379756 0.068358 0.521826 0.038429
C14   C     C_R   0.586477 0.050835 0.422129 0.033988
C15   C     C_R   0.414322 0.948845 0.578285 0.084923
C16   C     C_R   0.522799 0.873324 0.538069 -0.139705
C17   C     C_R   0.477548 0.126315 0.461993 -0.153473
C18   C     C_2   0.859454 0.063324 0.203871 1.029074
C19   C     C_2   0.140291 0.935569 0.796219 1.061977
C20   C     C_2   0.816634 0.800510 0.582407 1.017721
C21   C     C_2   0.181075 0.192116 0.411079 1.014532
C22   C     C_2   0.923968 0.431001 0.652960 1.004426
C23   C     C_2   0.416339 0.528790 0.137143 -0.291987
C24   C     C_2   0.089406 0.533640 0.346417 1.000075
C25   C     C_2   0.838164 0.480417 0.320956 1.079049
C26   C     C_2   0.154663 0.544792 0.681789 1.081768
C27   C     C_2   0.584471 0.501495 0.862524 -0.292007
C28   C     C_2   0.514730 0.536053 0.065061 -0.135069
C29   C     C_2   0.489476 0.542714 0.933717 -0.164893
C30   C     C_2   0.068595 0.510001 0.478314 -0.101611
C31   C     C_2   0.940158 0.468745 0.523319 -0.107086
C32   C     C_R   0.492584 0.261028 0.485054 0.897468
H1    H     H_    0.076376 0.127168 0.629951 0.206651
H2    H     H_    0.296434 0.859362 0.907510 0.296531
H3    H     H_    0.812037 0.750877 0.762997 0.395106
H4    H     H_    0.992193 0.168135 0.448553 0.301993
H5    H     H_    0.895461 0.484587 0.827726 0.338299
H6    H     H_    0.112227 0.664447 0.213752 0.352243
H7    H     H_    0.813054 0.619356 0.188793 0.328314
H8    H     H_    0.189463 0.436377 0.837853 0.339006
H9    H     H_    0.927519 0.873724 0.376341 0.238090
H10   H     H_    0.631817 0.181225 0.278797 0.193768
H11   H     H_    0.368558 0.816649 0.719464 0.142609
H12   H     H_    0.390478 0.573217 0.896028 0.204258
H13   H     H_    0.615948 0.528153 0.102044 0.206884
H14   H     H_    0.682816 0.470835 0.901381 0.168864
H15   H     H_    0.315335 0.535458 0.099360 0.177865
H16   H     H_    0.867651 0.178377 0.054579 0.378189
N1    N     N_2   0.157300 0.551390 0.551120 -0.194555
N2    N     N_2   0.842700 0.448610 0.448880 -0.208480
O1    O     O_R   0.568940 0.489660 0.307530 -0.631900
O2    O     O_R   0.805890 0.159999 0.120215 -0.759226
O3    O     O_2   0.021938 0.963562 0.788930 -0.543785
O4    O     O_R   0.197473 0.867073 0.901118 -0.730287
O5    O     O_2   0.929318 0.753006 0.578291 -0.603688
O6    O     O_R   0.753018 0.792264 0.692066 -0.794743
O7    O     O_2   0.246670 0.223338 0.328056 -0.542987
O8    O     O_R   0.044893 0.216022 0.391905 -0.746240
O9    O     O_2   0.923301 0.318197 0.680170 -0.622891
O10   O     O_R   0.901203 0.523284 0.742326 -0.786584
O11   O     O_2   0.101924 0.445835 0.274460 -0.555799
O12   O     O_R   0.431060 0.510340 0.692470 -0.628550
O13   O     O_R   0.097988 0.658751 0.305310 -0.757800
O14   O     O_2   0.843702 0.395648 0.245203 -0.567709
O15   O     O_R   0.815145 0.608384 0.282026 -0.813580
O16   O     O_2   0.132164 0.642462 0.739383 -0.582914
O17   O     O_R   0.190959 0.428390 0.744792 -0.806104
O18   O     O_R   0.348880 0.522640 0.340350 -0.592776
O19   O     O_R   0.651120 0.477360 0.659650 -0.590232
O20   O     O_R   0.610030 0.300280 0.483580 -0.608865
O21   O     O_R   0.389970 0.699720 0.516420 -0.603027
O22   O     O_R   0.389970 0.333270 0.516400 -0.605201
O23   O     O_R   0.610030 0.666730 0.483600 -0.609491
O24   O     O_2   0.969162 0.010654 0.191257 -0.567364
Zn1   Zn    Zn3+2 0.646940 0.477980 0.478080 1.026419
Zn2   Zn    Zn3+2 0.353060 0.522020 0.521920 1.028311

loop_
_geom_bond_atom_site_label_1
_geom_bond_atom_site_label_2
_ccdc_geom_bond_type
C2    O23   A    
C32   O20   A    
C12   O19   A    
C10   C13   A    
C3    H10   S    
C21   O7    D    
C24   O11   D    
C4    H11   S    
C27   C29   D    
C2    C16   S    
C11   C16   A    
H7    O15   S    
C9    C20   S    
C13   C17   A    
O22   Zn2   S    
O23   Zn1   S    
C19   O3    D    
C4    C15   A    
C7    H9    S    
N1    Zn2   S    
C18   O2    S    
C21   O8    S    
C29   H12   S    
N2    Zn1   S    
C6    C19   S    
C1    O1    A    
C14   C17   A    
O12   Zn2   S    
O21   Zn2   S    
C3    C14   A    
C20   O5    D    
C26   O17   S    
C9    C11   A    
C27   H14   S    
C8    C10   A    
C28   C29   S    
C30   N1    D    
O1    Zn1   S    
C1    C23   S    
C24   O13   S    
H4    O8    S    
C20   O6    S    
C13   C15   A    
C10   C21   S    
C22   O10   S    
C30   C31   S    
C17   C32   S    
C11   C14   A    
C24   C30   S    
C28   H13   S    
H5    O10   S    
O18   Zn2   S    
C22   C31   S    
C23   H15   S    
O19   Zn1   S    
C2    O21   A    
C26   O16   D    
C7    C9    A    
H16   O2    S    
C1    O18   A    
C12   O12   A    
C19   O4    S    
C18   O24   D    
C4    C6    A    
C26   N1    S    
C22   O9    D    
C5    C7    A    
C25   O15   S    
H2    O4    S    
C25   N2    S    
O20   Zn1   S    
C6    C8    A    
C5    C18   S    
C12   C27   S    
C3    C5    A    
H3    O6    S    
H6    O13   S    
C31   N2    D    
H8    O17   S    
C23   C28   D    
C15   C16   A    
C8    H1    S    
C32   O22   A    
C25   O14   D    
