data_mof_unit_55524.cif
_audit_creation_date              2012-10-26T19:06:53-0400
_audit_creation_method            fapswitch 2.2
_symmetry_space_group_name_H-M    P1
_symmetry_Int_Tables_number       1
_space_group_crystal_system       triclinic
_cell_length_a                    12.395247
_cell_length_b                    13.180908
_cell_length_c                    27.791016
_cell_angle_alpha                 76.448947
_cell_angle_beta                  101.338609
_cell_angle_gamma                 116.76262
_cell_volume                      3919.50661666

loop_
_atom_site_label
_atom_site_type_symbol
_atom_type_description
_atom_site_fract_x
_atom_site_fract_y
_atom_site_fract_z
_atom_type_partial_charge
C1    C     C_R   0.854928 0.285912 0.504611 0.555589
C2    C     C_R   0.929619 0.395565 0.030755 0.019600
C3    C     C_R   0.062391 0.604545 0.019264 0.054712
C4    C     C_R   0.999599 0.499399 0.592427 0.538664
C5    C     C_R   0.997521 0.499591 0.050479 -0.007625
C6    C     C_R   0.873328 0.292119 0.063834 -0.133427
C7    C     C_R   0.879013 0.291677 0.114283 -0.106789
C8    C     C_R   0.940385 0.394290 0.133631 0.033208
C9    C     C_R   0.999479 0.498560 0.101814 -0.041262
C10   C     C_R   0.059865 0.601699 0.121431 -0.009070
C11   C     C_R   0.060864 0.598781 0.172385 0.405651
C12   C     C_R   0.082183 0.468051 0.731830 0.144992
C13   C     C_R   0.943919 0.395138 0.184331 0.401382
C14   C     C_R   0.107348 0.516685 0.286978 -0.067758
C15   C     C_R   0.105461 0.516830 0.336908 -0.187164
C16   C     C_R   0.144861 0.713960 0.491993 0.564129
C17   C     C_R   0.890371 0.475438 0.321600 0.222309
C18   C     C_R   0.893618 0.475307 0.271329 -0.050808
C19   C     C_R   0.001566 0.496039 0.254086 0.205885
C20   C     C_R   0.920993 0.397966 0.978872 0.017862
C21   C     C_R   0.996425 0.499240 0.948949 0.021175
C22   C     C_R   0.072372 0.600572 0.969614 0.037599
C23   C     C_R   0.999062 0.497598 0.746592 0.249349
C24   C     C_R   0.839758 0.302218 0.955738 -0.135282
C25   C     C_R   0.161037 0.690815 0.890714 -0.119176
C26   C     C_R   0.111819 0.709372 0.038661 0.222889
C27   C     C_R   0.113314 0.705980 0.089650 -0.104117
C28   C     C_R   0.999270 0.499036 0.407651 0.569120
C29   C     C_R   0.159526 0.692472 0.940406 -0.091953
C30   C     C_R   0.279866 0.027954 0.431929 -0.114926
C31   C     C_R   0.227512 0.836846 0.480798 0.041266
C32   C     C_R   0.813093 0.078118 0.535594 0.238902
C33   C     C_R   0.730533 0.962142 0.543894 -0.125815
C34   C     C_R   0.997114 0.498749 0.897970 -0.026867
C35   C     C_R   0.608654 0.928388 0.526775 -0.139878
C36   C     C_R   0.565196 0.008997 0.498484 0.030432
C37   C     C_R   0.650615 0.124106 0.484457 -0.022031
C38   C     C_R   0.439722 0.978013 0.482521 0.036860
C39   C     C_R   0.403035 0.057936 0.448491 0.031206
C40   C     C_R   0.918836 0.402817 0.825696 0.393878
C41   C     C_R   0.489924 0.165936 0.430281 -0.123782
C42   C     C_R   0.611828 0.197969 0.447355 -0.106043
C43   C     C_R   0.349415 0.869923 0.499716 -0.136406
C44   C     C_R   0.191744 0.917366 0.447330 0.091615
C45   C     C_R   0.917214 0.401068 0.876252 0.026846
C46   C     C_R   0.772858 0.161209 0.507023 0.033829
C47   C     C_R   0.343252 0.317884 0.575019 -0.080897
C48   C     C_R   0.758415 0.641966 0.430744 0.019467
C49   C     C_R   0.654839 0.658032 0.409531 -0.090533
C50   C     C_R   0.545983 0.593024 0.430976 0.284433
C51   C     C_R   0.545574 0.523345 0.478762 0.010781
C52   C     C_R   0.077054 0.593692 0.818353 0.394332
C53   C     C_R   0.651227 0.501905 0.496312 0.130727
C54   C     C_R   0.443966 0.468642 0.508338 0.010352
C55   C     C_R   0.442586 0.378943 0.547916 -0.058187
C56   C     C_R   0.837762 0.304121 0.905350 -0.106447
C57   C     C_R   0.542133 0.352405 0.561633 -0.171335
C58   C     C_R   0.645964 0.415727 0.537658 -0.089516
C59   C     C_R   0.346819 0.502418 0.502068 0.334978
C60   C     C_R   0.245377 0.346260 0.564898 0.371169
C61   C     C_R   0.916122 0.526394 0.710936 -0.073076
C62   C     C_R   0.915868 0.526677 0.660739 -0.155081
C63   C     C_R   0.081843 0.468831 0.681469 -0.078139
C64   C     C_R   0.078344 0.595661 0.868741 0.023578
C65   C     C_R   0.999089 0.498377 0.645513 -0.022967
C66   C     C_R   0.997860 0.497064 0.354677 0.045155
Cu1   Cu    Cu3+1 0.098270 0.475420 0.511360 0.985319
Cu2   Cu    Cu3+1 0.901730 0.524580 0.488640 0.959800
H1    H     H_    0.146274 0.445946 0.670623 0.168849
H2    H     H_    0.551589 0.837432 0.534909 0.141662
H3    H     H_    0.760178 0.897279 0.565030 0.114808
H4    H     H_    0.675084 0.279995 0.429613 0.187283
H5    H     H_    0.541617 0.284544 0.592592 0.126920
H6    H     H_    0.341553 0.247589 0.604915 0.147656
H7    H     H_    0.840097 0.687664 0.412044 0.163312
H8    H     H_    0.773970 0.228595 0.889366 0.169626
H9    H     H_    0.656686 0.714109 0.374015 0.143318
H10   H     H_    0.719464 0.392483 0.552176 0.185749
H11   H     H_    0.188771 0.533846 0.361567 0.153186
H12   H     H_    0.851881 0.548760 0.722233 0.134366
H13   H     H_    0.191072 0.532626 0.273788 0.151924
H14   H     H_    0.834414 0.210139 0.138087 0.167704
H15   H     H_    0.826838 0.209151 0.052035 0.114620
H16   H     H_    0.774124 0.225246 0.975418 0.115390
H17   H     H_    0.850813 0.549441 0.633905 0.141281
H18   H     H_    0.178226 0.877747 0.026510 0.329132
H19   H     H_    0.717548 0.438870 0.311195 0.320079
H20   H     H_    0.062729 0.897967 0.388704 0.229889
H21   H     H_    0.039495 0.943304 0.436227 0.237480
H22   H     H_    0.117900 0.366028 0.793251 0.255097
H23   H     H_    0.228509 0.764170 0.869728 0.170663
H24   H     H_    0.221677 0.505223 0.786429 0.259819
H25   H     H_    0.945181 0.042967 0.574362 0.335174
H26   H     H_    0.092381 0.311021 0.587466 0.393853
H27   H     H_    0.287854 0.598041 0.452390 0.369385
H28   H     H_    0.376653 0.509453 0.409315 0.314251
H29   H     H_    0.153702 0.786161 0.104158 0.156489
H30   H     H_    0.812322 0.459186 0.245388 0.118523
H31   H     H_    0.231749 0.764695 0.955746 0.187839
H32   H     H_    0.463646 0.226056 0.402554 0.120179
H33   H     H_    0.252125 0.089291 0.405807 0.114491
H34   H     H_    0.371523 0.808634 0.527903 0.140622
N1    N     N_R   0.998174 0.498119 0.798017 -0.402666
N2    N     N_R   0.003328 0.496498 0.202597 -0.393303
N3    N     N_R   0.246290 0.438210 0.528570 -0.249790
N4    N     N_R   0.754320 0.561170 0.471730 -0.247804
N5    N     N_3   0.067418 0.886441 0.427462 -0.615030
N6    N     N_3   0.166836 0.436300 0.767474 -0.610397
O1    O     O_R   0.972510 0.318140 0.514280 -0.447178
O2    O     O_R   0.082990 0.479230 0.439860 -0.550382
O3    O     O_R   0.917010 0.520730 0.420680 -0.446817
O4    O     O_2   0.842381 0.309959 0.804384 -0.490636
O5    O     O_3   0.147906 0.814237 0.007045 -0.714590
O6    O     O_3   0.783400 0.452589 0.339079 -0.695400
O7    O     O_3   0.932839 0.111452 0.555518 -0.653756
O8    O     O_3   0.152286 0.279419 0.594223 -0.667725
O9    O     O_3   0.363168 0.608324 0.474498 -0.660758
O10   O     O_3   0.441712 0.587826 0.400885 -0.679849
O11   O     O_2   0.888534 0.295545 0.215178 -0.495855
O12   O     O_2   0.153877 0.686366 0.789862 -0.490840
O13   O     O_2   0.117544 0.697466 0.191501 -0.490726
O14   O     O_R   0.806530 0.359640 0.495100 -0.544097
O15   O     O_R   0.082990 0.479270 0.579320 -0.528738
O16   O     O_R   0.917010 0.520770 0.560140 -0.521940
O17   O     O_R   0.193470 0.640360 0.504900 -0.499633
O18   O     O_R   0.027490 0.681860 0.485720 -0.465387

loop_
_geom_bond_atom_site_label_1
_geom_bond_atom_site_label_2
_ccdc_geom_bond_type
C10   C27   A    
C63   C65   A    
C52   N1    A    
C8    C13   A    
C56   H8    S    
C22   C29   A    
C41   C42   A    
C35   C36   A    
C48   N4    A    
Cu2   O16   S    
C7    C8    A    
C39   C41   A    
C11   O13   S    
H27   O9    S    
C16   C31   S    
C12   C23   A    
C26   C27   A    
C59   N3    A    
C31   C43   A    
H18   O5    S    
H28   O10   S    
C36   C37   A    
Cu1   O17   S    
C4    C65   S    
C1    C46   S    
C61   H12   S    
C4    O16   A    
C18   C19   A    
H25   O7    S    
C57   H5    S    
C37   C42   A    
C1    O14   A    
H19   O6    S    
C1    O1    A    
C47   C60   A    
C53   N4    A    
Cu1   O1    S    
C15   H11   S    
C20   C24   A    
C35   H2    S    
C8    C9    A    
C11   N2    A    
C9    C10   A    
C59   O9    S    
C21   C22   A    
C48   H7    S    
C30   C44   A    
C2    C6    A    
C58   H10   S    
Cu2   N4    S    
C42   H4    S    
C13   O11   S    
H24   N6    S    
C17   O6    S    
C50   C51   A    
C54   C59   A    
C28   O3    A    
C25   C29   A    
C40   C45   A    
C62   H17   S    
C23   N1    S    
C25   H23   S    
C31   C44   A    
C29   H31   S    
C2    C20   A    
Cu1   Cu2   S    
C63   H1    S    
C45   C56   A    
C40   O4    S    
C52   C64   A    
Cu2   O14   S    
C12   N6    S    
H20   N5    S    
H26   O8    S    
Cu1   N3    S    
C21   C34   A    
C28   O2    A    
C15   C66   A    
C4    O15   A    
C51   C53   A    
Cu2   O3    S    
C28   C66   S    
C5    C9    A    
C19   N2    S    
Cu1   O2    S    
H21   N5    S    
C34   C64   A    
C17   C18   A    
C17   C66   A    
C41   H32   S    
C34   C45   A    
C13   N2    A    
C52   O12   S    
C48   C49   A    
C55   C57   A    
C60   O8    S    
C2    C5    A    
Cu2   O18   S    
C47   C55   A    
C16   O17   A    
C44   N5    S    
C12   C63   A    
C54   C55   A    
C27   H29   S    
C6    H15   S    
C62   C65   A    
C50   O10   S    
C32   C46   A    
C14   C19   A    
C3    C26   A    
C47   H6    S    
C3    C5    A    
Cu1   O15   S    
C53   C58   A    
C6    C7    A    
C24   C56   A    
C51   C54   A    
C32   C33   A    
C36   C38   A    
C24   H16   S    
C43   H34   S    
H22   N6    S    
C38   C43   A    
C40   N1    A    
C57   C58   A    
C38   C39   A    
C30   H33   S    
C33   C35   A    
C49   H9    S    
C30   C39   A    
C32   O7    S    
C61   C62   A    
C26   O5    S    
C10   C11   A    
C33   H3    S    
C23   C61   A    
C7    H14   S    
C20   C21   A    
C49   C50   A    
C14   C15   A    
C3    C22   A    
C18   H30   S    
C14   H13   S    
C37   C46   A    
C16   O18   A    
C25   C64   A    
C60   N3    A    
