data_mof_unit_8265.cif
_audit_creation_date              2012-12-11T15:34:18-0500
_audit_creation_method            fapswitch 2.2
_symmetry_space_group_name_H-M    P1
_symmetry_Int_Tables_number       1
_space_group_crystal_system       triclinic
_cell_length_a                    15.062941
_cell_length_b                    15.083382
_cell_length_c                    34.713429
_cell_angle_alpha                 90.717151
_cell_angle_beta                  90.298959
_cell_angle_gamma                 59.860964
_cell_volume                      6820.12194542

loop_
_atom_site_label
_atom_site_type_symbol
_atom_type_description
_atom_site_fract_x
_atom_site_fract_y
_atom_site_fract_z
_atom_type_partial_charge
C1    C     C_R   0.301379 0.608995 0.555604 0.528373
C2    C     C_R   0.248525 0.695511 0.379956 0.006270
C3    C     C_R   0.741906 0.059158 0.269894 0.040698
C4    C     C_R   0.736555 0.060223 0.228977 -0.006657
C5    C     C_R   0.690431 0.155126 0.209255 0.031475
C6    C     C_R   0.760763 0.158902 0.357627 0.049536
C7    C     C_R   0.733457 0.191057 0.396610 0.100167
C8    C     C_R   0.560907 0.221004 0.384284 0.094669
C9    C     C_R   0.749071 0.597958 0.644605 0.141427
C10   C     C_R   0.590024 0.184574 0.346817 -0.092014
C11   C     C_R   0.685310 0.161813 0.332509 -0.006345
C12   C     C_R   0.629244 0.234366 0.408631 0.013111
C13   C     C_R   0.212216 0.694983 0.342261 -0.007871
C14   C     C_R   0.085142 0.705052 0.095125 0.020458
C15   C     C_R   0.126937 0.599756 0.104608 -0.010264
C16   C     C_R   0.147132 0.569822 0.143095 -0.149675
C17   C     C_R   0.136225 0.639788 0.171831 0.041554
C18   C     C_R   0.113491 0.739369 0.161986 0.200003
C19   C     C_R   0.085649 0.773128 0.123880 0.136022
C20   C     C_R   0.241572 0.564388 0.229644 -0.146058
C21   C     C_2   0.853448 0.129973 0.919927 0.252126
C22   C     C_3   0.877550 0.194776 0.677235 -0.305476
C23   C     C_3   0.456421 0.134510 0.837962 -0.324045
C24   C     C_R   0.171912 0.630146 0.333556 0.000770
C25   C     C_2   0.782989 0.959714 0.700719 0.200773
C26   C     C_3   0.718518 0.908006 0.780932 -0.290041
C27   C     C_3   0.475865 0.127592 0.667013 -0.294039
C28   C     C_2   0.847244 0.179781 0.839171 0.197139
C29   C     C_3   0.832673 0.276383 0.582694 -0.248840
C30   C     C_2   0.218898 0.764717 0.930719 0.276842
C31   C     C_2   0.400194 0.492444 0.722159 0.238037
C32   C     C_3   0.368200 0.399006 0.808198 -0.322743
C33   C     C_2   0.257465 0.759550 0.846339 0.167448
C34   C     C_3   0.023087 0.905311 0.784071 -0.262745
C35   C     C_R   0.570029 0.732939 0.647967 -0.137437
C36   C     C_2   0.852753 0.513096 0.903676 0.258732
C37   C     C_2   0.172549 0.819948 0.592680 0.234691
C38   C     C_2   0.509433 0.855723 0.078679 0.291690
C39   C     C_3   0.936191 0.485731 0.128956 -0.295104
C40   C     C_3   0.739247 0.454201 0.212948 -0.299922
C41   C     C_3   0.447060 0.969901 0.166007 -0.274734
C42   C     C_3   0.870980 0.441750 0.675708 -0.290024
C43   C     C_3   0.526134 0.848103 0.453929 -0.279438
C44   C     C_3   0.797850 0.387331 0.380564 -0.272404
C45   C     C_2   0.842388 0.141669 0.079024 0.275357
C46   C     C_R   0.243912 0.631042 0.408497 -0.060215
C47   C     C_2   0.510813 0.151628 0.086858 0.233922
C48   C     C_2   0.587189 0.351418 0.212103 0.199248
C49   C     C_2   0.850164 0.155436 0.164808 0.179864
C50   C     C_2   0.797078 0.960034 0.290821 0.244198
C51   C     C_2   0.770269 0.964068 0.206196 0.199106
C52   C     C_2   0.865977 0.123860 0.342477 0.257252
C53   C     C_3   0.836517 0.092995 0.450702 -0.247467
C54   C     C_2   0.502320 0.189817 0.170103 0.280592
C55   C     C_3   0.379614 0.341629 0.382752 -0.275374
C56   C     C_2   0.152598 0.517514 0.075465 0.261256
C57   C     C_R   0.734244 0.028489 0.943938 0.569815
C58   C     C_3   0.136530 0.891196 0.100112 -0.220421
C59   C     C_2   0.219150 0.758027 0.310818 0.261824
C60   C     C_2   0.951135 0.681602 0.219817 0.215994
C61   C     C_3   0.001098 0.566572 0.366994 -0.300565
C62   C     C_3   0.025441 0.883337 0.206611 -0.249718
C63   C     C_2   0.295392 0.759368 0.388659 0.319310
C64   C     C_2   0.529680 0.858827 0.915090 0.264626
C65   C     C_3   0.423637 0.864179 0.832632 -0.256276
C66   C     C_R   0.743360 0.721452 0.945744 0.585790
C67   C     C_R   0.041325 0.732141 0.949310 0.588781
C68   C     C_R   0.721546 0.041876 0.052377 0.559655
C69   C     C_R   0.733075 0.733813 0.054835 0.589724
C70   C     C_R   0.665292 0.674027 0.666234 0.066988
C71   C     C_R   0.027967 0.744429 0.058229 0.585549
C72   C     C_R   0.554666 0.710133 0.610536 -0.130083
C73   C     C_R   0.675852 0.695118 0.786342 0.326071
C74   C     C_R   0.670415 0.686326 0.708338 0.352259
C75   C     C_R   0.759637 0.612364 0.846998 -0.178625
C76   C     C_R   0.771522 0.610223 0.886883 -0.027859
C77   C     C_R   0.614256 0.776900 0.891709 0.012324
C78   C     C_R   0.603168 0.778243 0.851262 0.091486
C79   C     C_R   0.679449 0.697008 0.828751 0.019136
C80   C     C_R   0.611378 0.589194 0.554901 0.543395
C81   C     C_R   0.250546 0.561486 0.269557 -0.119717
C82   C     C_R   0.705698 0.698666 0.909116 0.029003
C83   C     C_R   0.715250 0.085233 0.907358 -0.007448
C84   C     C_R   0.636397 0.092037 0.883671 -0.118860
C85   C     C_R   0.628196 0.120253 0.845102 0.129123
C86   C     C_R   0.704595 0.137749 0.829613 0.025293
C87   C     C_R   0.776765 0.145062 0.854065 -0.042282
C88   C     C_R   0.780299 0.120665 0.893601 -0.042084
C89   C     C_R   0.673290 0.235349 0.769740 -0.114269
C90   C     C_R   0.667683 0.241688 0.729998 -0.176281
C91   C     C_R   0.699226 0.153703 0.707140 0.004248
C92   C     C_R   0.162336 0.606676 0.292779 0.032013
C93   C     C_R   0.590957 0.299800 0.553536 0.562900
C94   C     C_R   0.741751 0.055912 0.724227 0.041142
C95   C     C_R   0.746131 0.049971 0.764930 0.132049
C96   C     C_R   0.711675 0.140518 0.787385 0.079489
C97   C     C_R   0.579869 0.202740 0.651504 0.146760
C98   C     C_R   0.555627 0.237802 0.613875 -0.122404
C99   C     C_R   0.730160 0.201906 0.602988 0.145283
C100  C     C_R   0.755896 0.165307 0.640921 0.164068
C101  C     C_R   0.679394 0.170258 0.665625 0.078983
C102  C     C_R   0.627932 0.242412 0.589911 -0.018884
C103  C     C_R   0.065906 0.642358 0.275956 -0.132028
C104  C     C_R   0.106646 0.688321 0.914762 0.026240
C105  C     C_R   0.301105 0.610101 0.445443 0.517954
C106  C     C_R   0.174450 0.722178 0.902453 0.022334
C107  C     C_R   0.204770 0.708356 0.863162 -0.003415
C108  C     C_R   0.179557 0.648515 0.838800 -0.009448
C109  C     C_R   0.125619 0.603219 0.853217 -0.147267
C110  C     C_R   0.087904 0.624339 0.890567 -0.160386
C111  C     C_R   0.285059 0.566930 0.779434 0.090661
C112  C     C_R   0.297768 0.565261 0.739043 0.052239
C113  C     C_R   0.214897 0.637250 0.716109 -0.025379
C114  C     C_R   0.055785 0.642775 0.235761 0.009633
C115  C     C_R   0.125889 0.714293 0.733865 -0.114409
C116  C     C_R   0.116223 0.721842 0.773793 0.138270
C117  C     C_R   0.609449 0.591874 0.446056 0.554691
C118  C     C_R   0.194101 0.645345 0.796701 0.020301
C119  C     C_R   0.194251 0.724783 0.653371 -0.066989
C120  C     C_R   0.206648 0.722246 0.613243 0.014077
C121  C     C_R   0.263645 0.539791 0.613574 -0.120880
C122  C     C_R   0.246850 0.544652 0.653074 -0.073537
C123  C     C_R   0.218832 0.635347 0.673550 0.044667
C124  C     C_R   0.250304 0.626333 0.593556 -0.020489
C125  C     C_R   0.144414 0.610482 0.212529 0.036404
C126  C     C_R   0.693880 0.718436 0.092234 0.009010
C127  C     C_R   0.593338 0.790367 0.105770 0.004114
C128  C     C_R   0.569977 0.795074 0.145508 0.104256
C129  C     C_R   0.589649 0.299230 0.444330 0.547496
C130  C     C_R   0.644983 0.725380 0.170971 0.036928
C131  C     C_R   0.739979 0.649911 0.156831 -0.041150
C132  C     C_R   0.763941 0.641322 0.117637 0.130893
C133  C     C_R   0.636293 0.635463 0.229517 0.129910
C134  C     C_R   0.634253 0.629409 0.269581 -0.086238
C135  C     C_R   0.626282 0.709232 0.293157 0.007417
C136  C     C_R   0.154502 0.578046 0.363153 0.132673
C137  C     C_R   0.611440 0.799682 0.276407 -0.107175
C138  C     C_R   0.611105 0.807295 0.236309 -0.106279
C139  C     C_R   0.626180 0.724588 0.212680 0.042437
C140  C     C_R   0.561584 0.763133 0.360449 -0.094845
C141  C     C_R   0.634343 0.627783 0.590429 -0.005152
C142  C     C_R   0.560362 0.736002 0.398915 0.091545
C143  C     C_R   0.715114 0.571179 0.386671 0.098511
C144  C     C_R   0.717625 0.602604 0.349214 -0.131000
C145  C     C_R   0.636649 0.693853 0.335071 -0.016372
C146  C     C_R   0.631160 0.634546 0.411112 0.055705
C147  C     C_R   0.191378 0.578192 0.400240 -0.148184
C148  C     C_R   0.694972 0.109623 0.087480 -0.028353
C149  C     C_R   0.769750 0.128990 0.104249 -0.002007
C150  C     C_R   0.767976 0.145398 0.144584 -0.023793
C151  C     C_R   0.684810 0.154452 0.166491 0.010341
C152  C     C_R   0.598181 0.160009 0.148011 0.053861
C153  C     C_R   0.732661 0.575720 0.606783 -0.127112
C154  C     C_R   0.602468 0.139787 0.107952 -0.040606
C155  C     C_R   0.645150 0.248781 0.230208 0.031762
C156  C     C_R   0.649773 0.246233 0.270288 -0.175384
C157  C     C_R   0.696838 0.153717 0.290208 -0.018112
Cr1   Cr    Cr6+3 0.421670 0.426920 0.499620 1.018569
Cr2   Cr    Cr6+3 0.427030 0.651190 0.500980 1.038474
Cr3   Cr    Cr6+3 0.651280 0.421870 0.499380 1.008907
Cr4   Cr    Cr6+3 0.910810 0.908010 0.001130 1.104948
Cr5   Cr    Cr6+3 0.682800 0.909890 0.998370 1.098717
Cr6   Cr    Cr6+3 0.908370 0.682300 0.002180 1.106108
H1    H     H_    0.795695 0.513650 0.591099 0.117869
H2    H     H_    0.105185 0.558377 0.834404 0.125468
H3    H     H_    0.428037 0.239495 0.157170 0.144011
H4    H     H_    0.446707 0.186351 0.392251 0.250816
H5    H     H_    0.307454 0.359212 0.397515 0.140393
H6    H     H_    0.395962 0.404467 0.388987 0.171778
H7    H     H_    0.369658 0.336809 0.351191 0.128741
H8    H     H_    0.156668 0.446477 0.083863 0.096397
H9    H     H_    0.984637 0.920522 0.103734 0.267082
H10   H     H_    0.107878 0.974395 0.096970 0.164526
H11   H     H_    0.161041 0.853292 0.071412 0.178752
H12   H     H_    0.203641 0.858977 0.119843 0.177915
H13   H     H_    0.294211 0.465898 0.599295 0.133764
H14   H     H_    0.161775 0.786833 0.288161 0.099555
H15   H     H_    0.887762 0.700118 0.239259 0.140659
H16   H     H_    0.149184 0.444258 0.364274 0.244004
H17   H     H_    0.966708 0.521707 0.355389 0.138228
H18   H     H_    0.956277 0.645919 0.355920 0.169047
H19   H     H_    0.996000 0.568725 0.398955 0.136887
H20   H     H_    0.177831 0.768432 0.210339 0.246895
H21   H     H_    0.039167 0.936866 0.224458 0.156259
H22   H     H_    0.992558 0.847987 0.225278 0.123826
H23   H     H_    0.969650 0.927997 0.183793 0.202026
H24   H     H_    0.779724 0.551988 0.330090 0.111374
H25   H     H_    0.373909 0.723658 0.398750 0.131841
H26   H     H_    0.484138 0.935734 0.903887 0.110365
H27   H     H_    0.535675 0.889066 0.808438 0.268653
H28   H     H_    0.362457 0.936963 0.820193 0.161873
H29   H     H_    0.399825 0.857283 0.862094 0.193783
H30   H     H_    0.431650 0.799163 0.814693 0.185002
H31   H     H_    0.641307 0.561144 0.282508 0.107836
H32   H     H_    0.604182 0.862425 0.294245 0.150262
H33   H     H_    0.603698 0.875869 0.223750 0.188832
H34   H     H_    0.501592 0.836451 0.350005 0.137993
H35   H     H_    0.795076 0.596701 0.177070 0.138456
H36   H     H_    0.534675 0.180869 0.327738 0.145332
H37   H     H_    0.613758 0.317787 0.286572 0.089428
H38   H     H_    0.635965 0.316263 0.716800 0.144489
H39   H     H_    0.505149 0.793687 0.663341 0.144083
H40   H     H_    0.813172 0.546417 0.829885 0.129628
H41   H     H_    0.325814 0.532252 0.282344 0.115354
H42   H     H_    0.309845 0.538079 0.212150 0.130639
H43   H     H_    0.171335 0.491471 0.150870 0.104219
H44   H     H_    0.998025 0.676091 0.293964 0.110715
H45   H     H_    0.183019 0.532729 0.422318 0.124336
H46   H     H_    0.584514 0.068860 0.894876 0.142881
H47   H     H_    0.930327 0.107615 0.910236 0.099890
H48   H     H_    0.891277 0.052717 0.665417 0.275937
H49   H     H_    0.645055 0.304843 0.786912 0.141416
H50   H     H_    0.952357 0.186347 0.668783 0.157097
H51   H     H_    0.881150 0.175857 0.708244 0.174382
H52   H     H_    0.816518 0.275909 0.673160 0.138806
H53   H     H_    0.535279 0.162988 0.795422 0.245686
H54   H     H_    0.400146 0.145862 0.814994 0.139645
H55   H     H_    0.421192 0.201986 0.857770 0.149792
H56   H     H_    0.473520 0.063933 0.853512 0.167787
H57   H     H_    0.833092 0.886140 0.713827 0.152583
H58   H     H_    0.816409 0.945847 0.810059 0.260581
H59   H     H_    0.690410 0.904709 0.810094 0.158949
H60   H     H_    0.477185 0.267771 0.604294 0.149295
H61   H     H_    0.764510 0.828872 0.769393 0.181701
H62   H     H_    0.651080 0.951825 0.761842 0.158542
H63   H     H_    0.507342 0.216398 0.704427 0.246695
H64   H     H_    0.410290 0.139893 0.685309 0.134144
H65   H     H_    0.542702 0.050857 0.673327 0.184721
H66   H     H_    0.453239 0.130272 0.636351 0.156510
H67   H     H_    0.875545 0.217308 0.858351 0.121379
H68   H     H_    0.871384 0.123895 0.575644 0.271903
H69   H     H_    0.903071 0.248690 0.600404 0.132468
H70   H     H_    0.768953 0.345974 0.596642 0.164381
H71   H     H_    0.478363 0.753009 0.598349 0.153923
H72   H     H_    0.847688 0.297808 0.554007 0.158808
H73   H     H_    0.252958 0.809224 0.921485 0.172675
H74   H     H_    0.451360 0.421383 0.736580 0.120320
H75   H     H_    0.378075 0.523803 0.828129 0.261270
H76   H     H_    0.300665 0.412227 0.825446 0.155284
H77   H     H_    0.439073 0.344959 0.823865 0.163106
H78   H     H_    0.367525 0.363526 0.780044 0.134441
H79   H     H_    0.317346 0.719795 0.824956 0.119337
H80   H     H_    0.010484 0.800016 0.818284 0.260640
H81   H     H_    0.959623 0.966332 0.801269 0.186741
H82   H     H_    0.037871 0.596145 0.899570 0.137238
H83   H     H_    0.008424 0.926271 0.753201 0.153613
H84   H     H_    0.095619 0.901652 0.793176 0.192975
H85   H     H_    0.920431 0.462398 0.886813 0.087665
H86   H     H_    0.161504 0.823860 0.561728 0.129916
H87   H     H_    0.446896 0.929674 0.087923 0.154916
H88   H     H_    0.844002 0.517811 0.080223 0.285079
H89   H     H_    0.004252 0.430373 0.111922 0.143224
H90   H     H_    0.909274 0.441828 0.145986 0.138329
H91   H     H_    0.960309 0.528867 0.148290 0.193610
H92   H     H_    0.582220 0.548426 0.203708 0.275641
H93   H     H_    0.261775 0.475904 0.668043 0.119731
H94   H     H_    0.751743 0.401615 0.188308 0.184777
H95   H     H_    0.729849 0.419669 0.239580 0.117400
H96   H     H_    0.808175 0.462551 0.215819 0.138136
H97   H     H_    0.441319 0.838566 0.180343 0.271613
H98   H     H_    0.433790 0.989322 0.197198 0.160335
H99   H     H_    0.376223 0.023483 0.150232 0.186513
H100  H     H_    0.510895 0.981203 0.156253 0.203274
H101  H     H_    0.905938 0.533522 0.643053 0.247751
H102  H     H_    0.875891 0.390471 0.651565 0.107197
H103  H     H_    0.810738 0.450977 0.696386 0.177867
H104  H     H_    0.063038 0.769934 0.716442 0.125091
H105  H     H_    0.945801 0.405740 0.690977 0.154193
H106  H     H_    0.421903 0.868136 0.411086 0.272313
H107  H     H_    0.463413 0.900805 0.473667 0.145914
H108  H     H_    0.585645 0.784265 0.471234 0.152857
H109  H     H_    0.560080 0.890809 0.440462 0.141506
H110  H     H_    0.866808 0.470022 0.397618 0.241389
H111  H     H_    0.862838 0.315991 0.392187 0.191749
H112  H     H_    0.809157 0.387326 0.348965 0.124463
H113  H     H_    0.724888 0.388266 0.386283 0.163481
H114  H     H_    0.917659 0.123926 0.088793 0.156470
H115  H     H_    0.167346 0.796213 0.669162 0.151076
H116  H     H_    0.495198 0.182692 0.057982 0.153046
H117  H     H_    0.545531 0.419090 0.230287 0.089774
H118  H     H_    0.830990 0.206328 0.189593 0.120563
H119  H     H_    0.860013 0.893298 0.277029 0.116963
H120  H     H_    0.798185 0.956885 0.176945 0.119460
H121  H     H_    0.884813 0.098577 0.312745 0.093152
H122  H     H_    0.807318 0.238684 0.435874 0.269148
H123  H     H_    0.770962 0.114519 0.470540 0.130899
H124  H     H_    0.904319 0.079383 0.468019 0.152535
H125  H     H_    0.855495 0.020787 0.435104 0.178006
N1    N     N_R   0.585256 0.733326 0.767534 -0.233417
N2    N     N_2   0.367217 0.494353 0.802735 -0.540268
N3    N     N_2   0.028356 0.808055 0.790425 -0.519030
N4    N     N_2   0.856232 0.554851 0.103046 -0.476206
N5    N     N_2   0.648360 0.552423 0.205846 -0.511826
N6    N     N_2   0.469249 0.865681 0.159249 -0.551577
N7    N     N_2   0.848513 0.540156 0.661020 -0.490681
N8    N     N_2   0.485163 0.809747 0.424537 -0.497702
N9    N     N_2   0.796229 0.474666 0.398983 -0.498658
N10   N     N_2   0.811941 0.174134 0.423593 -0.463226
N11   N     N_2   0.461564 0.245369 0.396895 -0.485478
N12   N     N_R   0.582563 0.729144 0.729360 -0.241111
N13   N     N_2   0.056126 0.876597 0.115808 -0.482661
N14   N     N_2   0.107182 0.518748 0.354894 -0.510701
N15   N     N_2   0.121309 0.805354 0.189966 -0.486914
N16   N     N_2   0.519157 0.865154 0.833696 -0.567196
N17   N     N_R   0.761316 0.647839 0.727169 -0.189205
N18   N     N_R   0.764019 0.651933 0.765445 -0.254497
N19   N     N_2   0.858604 0.125339 0.654137 -0.497957
N20   N     N_2   0.549010 0.123344 0.820775 -0.526329
N21   N     N_2   0.783246 0.953490 0.783357 -0.531116
N22   N     N_2   0.501056 0.206567 0.675322 -0.524709
N23   N     N_2   0.807401 0.196021 0.577845 -0.493449
O1    O     O_R   0.502070 0.323090 0.541280 -0.529057
O2    O     O_R   0.831550 0.656950 0.958960 -0.476310
O3    O     O_R   0.998590 0.685540 0.963930 -0.497723
O4    O     O_R   0.338340 0.520690 0.539540 -0.498675
O5    O     O_R   0.008220 0.831200 0.045060 -0.519625
O6    O     O_R   0.813270 0.997930 0.038810 -0.466761
O7    O     O_R   0.657500 0.016560 0.039940 -0.515171
O8    O     O_R   0.685680 0.820940 0.038120 -0.456521
O9    O     O_R   0.822130 0.666070 0.043610 -0.489042
O10   O     O_R   0.989860 0.694000 0.042400 -0.455695
O11   O     O_3   0.833990 0.833400 0.000560 -0.294357
O12   O     O_R   0.520720 0.641670 0.461580 -0.482017
O13   O     O_R   0.324760 0.674070 0.543580 -0.517051
O14   O     O_R   0.522400 0.640310 0.540110 -0.495713
O15   O     O_R   0.675940 0.500630 0.542210 -0.533550
O16   O     O_R   0.641790 0.337020 0.538150 -0.468751
O17   O     O_R   0.500260 0.324550 0.456580 -0.469718
O18   O     O_R   0.336660 0.522040 0.461020 -0.502396
O19   O     O_R   0.322940 0.675540 0.458880 -0.509247
O20   O     O_2   0.827214 0.165569 0.952395 -0.418975
O21   O     O_2   0.761857 0.960556 0.666690 -0.527973
O22   O     O_2   0.875626 0.166474 0.805664 -0.532373
O23   O     O_R   0.674120 0.502090 0.457500 -0.486552
O24   O     O_2   0.223205 0.745548 0.964984 -0.464545
O25   O     O_2   0.430792 0.512961 0.692972 -0.505882
O26   O     O_2   0.229408 0.848908 0.854168 -0.564628
O27   O     O_2   0.842065 0.485599 0.935400 -0.441048
O28   O     O_2   0.153972 0.898158 0.610196 -0.520710
O29   O     O_2   0.506637 0.825288 0.046178 -0.443401
O30   O     O_2   0.816655 0.176103 0.046636 -0.438004
O31   O     O_2   0.454646 0.123643 0.100593 -0.562337
O32   O     O_2   0.584996 0.362805 0.177302 -0.517826
O33   O     O_2   0.940209 0.103631 0.155557 -0.550271
O34   O     O_R   0.640110 0.338380 0.459630 -0.520181
O35   O     O_2   0.772854 0.951112 0.323429 -0.517573
O36   O     O_2   0.761888 0.893811 0.219025 -0.532990
O37   O     O_2   0.933218 0.122525 0.362654 -0.470701
O38   O     O_2   0.504890 0.158122 0.202513 -0.522059
O39   O     O_2   0.175223 0.525506 0.042472 -0.466108
O40   O     O_2   0.290599 0.774335 0.308808 -0.488389
O41   O     O_2   0.933710 0.693151 0.185329 -0.512884
O42   O     O_2   0.246082 0.852227 0.384764 -0.453873
O43   O     O_2   0.507307 0.839755 0.946468 -0.441492
O44   O     O_3   0.499990 0.499990 0.499990 -0.244553
O45   O     O_R   0.017640 0.822070 0.960410 -0.478783
O46   O     O_R   0.822000 0.989470 0.960340 -0.458005
O47   O     O_R   0.666920 0.007430 0.955290 -0.532271
O48   O     O_R   0.694410 0.812480 0.959650 -0.473512

loop_
_geom_bond_atom_site_label_1
_geom_bond_atom_site_label_2
_ccdc_geom_bond_type
C44   H111  S    
C137  H32   S    
C126  C127  A    
C64   C77   S    
C142  C146  A    
Cr3   O44   S    
Cr4   O45   S    
C33   H79   S    
C128  N6    S    
C111  C118  A    
C30   O24   D    
C60   O41   D    
Cr5   O8    S    
C52   O37   D    
C106  C107  A    
Cr3   O23   S    
C143  C144  A    
C46   C105  S    
C108  C109  A    
C14   C71   S    
C38   O29   D    
C27   H66   S    
C58   H12   S    
C34   H83   S    
C142  N8    S    
C31   C112  S    
C57   C83   S    
C42   H103  S    
C57   O46   A    
C21   O20   D    
C43   H108  S    
C24   C136  A    
C83   C88   A    
C63   O42   D    
Cr2   O12   S    
C23   N20   S    
Cr5   O47   S    
C55   H5    S    
Cr6   O3    S    
C93   O16   A    
C47   H116  S    
C89   H49   S    
C48   H117  S    
C65   N16   S    
H80   N3    S    
C23   H56   S    
C9    C70   A    
C6    C11   A    
C40   H95   S    
C84   H46   S    
C144  C145  A    
C54   C152  S    
C5    C155  A    
C117  C146  S    
C78   N16   S    
C75   C76   A    
C52   H121  S    
C41   H100  S    
C40   H94   S    
C27   N22   S    
C31   O25   D    
C56   O39   D    
C29   H70   S    
C74   N17   A    
C67   O45   A    
C44   H113  S    
C48   C155  S    
C69   C126  S    
C133  C139  A    
Cr3   O16   S    
C45   H114  S    
C56   H8    S    
C26   H61   S    
C80   O14   A    
C28   H67   S    
C11   C157  S    
C66   O2    A    
C135  C137  A    
C54   O38   D    
C14   C19   A    
C29   H69   S    
C36   O27   D    
C4    C5    A    
C140  C145  A    
C6    C7    A    
C39   H90   S    
C119  C123  A    
C105  O18   A    
C5    C151  S    
C68   O7    A    
Cr1   O4    S    
C69   O8    A    
C89   C96   A    
C64   O43   D    
C130  C131  A    
C1    C124  S    
C20   C125  A    
C91   C94   A    
C104  C110  A    
C49   O33   D    
C27   H64   S    
C59   O40   D    
C77   C82   A    
C116  C118  A    
C58   N13   S    
C134  H31   S    
C8    C10   A    
C155  C156  A    
C25   H57   S    
C6    C52   S    
C109  C110  A    
C75   C79   A    
C113  C115  A    
C45   O30   D    
C23   H54   S    
H122  N10   S    
C74   N12   A    
C111  C112  A    
C10   H36   S    
C97   C98   A    
C90   C91   A    
C85   C86   A    
C61   H19   S    
C41   H99   S    
C103  H44   S    
C53   H124  S    
C26   H62   S    
C115  C116  A    
C26   N21   S    
C21   H47   S    
Cr4   O6    S    
C29   H72   S    
C81   C92   A    
H58   N21   S    
C39   H89   S    
C65   H28   S    
C26   H59   S    
C107  C108  A    
C8    N11   S    
H101  N7    S    
C55   H7    S    
C68   C148  S    
H48   N19   S    
C62   H23   S    
Cr5   O11   S    
C21   C88   S    
C9    C153  A    
C97   N22   S    
C22   H52   S    
C20   H42   S    
C91   C101  S    
C24   C92   S    
C3    C50   S    
C81   H41   S    
C7    C12   A    
C93   O1    A    
C71   O10   A    
Cr6   O10   S    
C4    C51   S    
C103  C114  A    
C76   C82   A    
C75   H40   S    
C33   O26   D    
C70   C74   S    
C83   C84   A    
C67   O3    A    
C126  C132  A    
C8    C12   A    
C18   N15   S    
C44   H112  S    
C28   C87   S    
C17   C18   A    
C73   C79   S    
C110  H82   S    
C55   N11   S    
H97   N6    S    
Cr4   O11   S    
C80   C141  S    
C129  O17   A    
C3    C4    A    
C9    N7    S    
C1    O13   A    
C2    C63   S    
C34   N3    S    
Cr2   O19   S    
Cr3   O15   S    
C50   O35   D    
C134  C135  A    
C13   C59   S    
C32   H76   S    
C138  H33   S    
C80   O15   A    
C22   H51   S    
C141  C153  A    
C38   H87   S    
C49   H118  S    
C100  C101  A    
C147  H45   S    
H110  N9    S    
C10   C11   A    
C62   H21   S    
H9    N13   S    
C22   H50   S    
C34   H84   S    
C3    C157  A    
C150  C151  A    
C73   N1    A    
C30   H73   S    
C144  H24   S    
H63   N22   S    
C143  C146  A    
C87   C88   A    
Cr1   O17   S    
Cr5   O48   S    
Cr6   O2    S    
C104  C106  A    
C64   H26   S    
H75   N2    S    
C58   H11   S    
C77   C78   A    
C49   C150  S    
C50   H119  S    
C140  C142  A    
C122  H93   S    
C136  N14   S    
C60   H15   S    
Cr2   O14   S    
C18   C19   A    
C95   N21   S    
C100  N19   S    
C60   C114  S    
C16   C17   A    
C135  C145  S    
C151  C152  A    
C71   O5    A    
C25   O21   D    
C25   C94   S    
C43   N8    S    
H88   N4    S    
C148  C154  A    
C54   H3    S    
Cr4   O46   S    
C130  C139  S    
C115  H104  S    
H53   N20   S    
C65   H30   S    
C72   C141  A    
C12   C129  S    
C34   H81   S    
Cr5   O7    S    
C131  H35   S    
C84   C85   A    
C86   C87   A    
C61   N14   S    
C22   N19   S    
H16   N14   S    
C140  H34   S    
Cr6   O9    S    
Cr2   O44   S    
C46   C147  A    
C113  C123  S    
H27   N16   S    
C42   H102  S    
C57   O47   A    
C121  C122  A    
C86   C96   S    
C85   N20   S    
H68   N23   S    
C35   C72   A    
C133  C134  A    
C58   H10   S    
C127  C128  A    
C62   N15   S    
C143  N9    S    
C117  O23   A    
C7    N10   S    
Cr1   O18   S    
C39   N4    S    
Cr1   O44   S    
C128  C130  A    
C93   C102  S    
C119  C120  A    
C35   H39   S    
C47   C154  S    
C61   H18   S    
Cr3   O34   S    
C41   H98   S    
C98   C102  A    
C149  C150  A    
C53   H123  S    
Cr4   O5    S    
C94   C95   A    
C138  C139  A    
C47   O31   D    
C99   C102  A    
C42   N7    S    
C61   H17   S    
N17   N18   A    
C44   N9    S    
C29   N23   S    
C89   C90   A    
C55   H6    S    
C32   N2    S    
C32   H78   S    
C99   N23   S    
C95   C96   A    
C33   C107  S    
H92   N5    S    
C119  H115  S    
C38   C127  S    
C48   O32   D    
C39   H91   S    
C2    C46   A    
C28   O22   D    
C105  O19   A    
C111  N2    S    
C68   O6    A    
C69   O9    A    
C156  C157  A    
C16   H43   S    
C27   H65   S    
C121  H13   S    
C66   C82   S    
C15   C16   A    
C2    C13   A    
H106  N8    S    
C36   C76   S    
C92   C103  A    
C53   N10   S    
C66   O48   A    
C35   C70   A    
C43   H107  S    
C19   N13   S    
C133  N5    S    
C90   H38   S    
C41   N6    S    
C31   H74   S    
C23   H55   S    
C20   C81   A    
C30   C106  S    
C51   H120  S    
C40   N5    S    
C156  H37   S    
C73   N18   A    
C112  C113  A    
C40   H96   S    
C67   C104  S    
C153  H1    S    
C108  C118  S    
C59   H14   S    
C148  C149  A    
C114  C125  A    
C78   C79   A    
C37   O28   D    
C53   H125  S    
C32   H77   S    
C13   C24   A    
C99   C100  A    
C65   H29   S    
C98   H60   S    
C132  N4    S    
C43   H109  S    
H20   N15   S    
C109  H2    S    
C62   H22   S    
C152  C154  A    
C1    O4    A    
C36   H85   S    
C42   H105  S    
H4    N11   S    
Cr6   O11   S    
C51   O36   D    
C14   C15   A    
N1    N12   A    
Cr1   O1    S    
C117  O12   A    
C137  C138  A    
C116  N3    S    
C15   C56   S    
C17   C125  S    
Cr2   O13   S    
C37   C120  S    
C37   H86   S    
C72   H71   S    
C45   C149  S    
C131  C132  A    
C136  C147  A    
C63   H25   S    
C121  C124  A    
C129  O34   A    
C122  C123  A    
C97   C101  A    
C120  C124  A    
