data_mof_unit_41757.cif
_audit_creation_date              2012-12-11T17:17:09-0500
_audit_creation_method            fapswitch 2.2
_symmetry_space_group_name_H-M    P1
_symmetry_Int_Tables_number       1
_space_group_crystal_system       triclinic
_cell_length_a                    6.940033
_cell_length_b                    13.356207
_cell_length_c                    14.67504
_cell_angle_alpha                 98.88186
_cell_angle_beta                  89.741639
_cell_angle_gamma                 90.34312
_cell_volume                      1343.9222257

loop_
_atom_site_label
_atom_site_type_symbol
_atom_type_description
_atom_site_fract_x
_atom_site_fract_y
_atom_site_fract_z
_atom_type_partial_charge
O1    O     O_R   0.354890 0.151580 0.148210 -0.534547
O2    O     O_R   0.645110 0.848420 0.851790 -0.534548
O3    O     O_R   0.682370 0.152980 0.336770 -0.545365
O4    O     O_R   0.317630 0.847020 0.663230 -0.545365
O5    O     O_R   0.854980 0.348430 0.351800 -0.535894
O6    O     O_R   0.145020 0.651570 0.648200 -0.535894
C1    C     C_R   0.513319 0.131646 0.366586 0.681975
C2    C     C_R   0.486681 0.868354 0.633414 0.681974
O7    O     O_R   0.684450 0.139580 0.148000 -0.537497
O8    O     O_R   0.315550 0.860420 0.852000 -0.537497
O9    O     O_R   0.857080 0.334940 0.161680 -0.538050
O10   O     O_R   0.142920 0.665060 0.838320 -0.538050
C3    C     C_R   0.515538 0.112669 0.114038 0.735245
C4    C     C_R   0.484462 0.887331 0.885962 0.735245
O11   O     O_R   0.352790 0.165070 0.338330 -0.540649
O12   O     O_R   0.647210 0.834930 0.661670 -0.540648
O13   O     O_3   0.522170 0.314120 0.254710 -0.367353
O14   O     O_3   0.477830 0.685880 0.745290 -0.367352
V1    V     V_3+5 0.796120 0.238110 0.249130 1.402675
V2    V     V_3+5 0.203880 0.761890 0.750870 1.402675
O15   O     O_R   0.186930 0.347040 0.163240 -0.543000
O16   O     O_R   0.813070 0.652960 0.836760 -0.543000
C5    C     C_R   0.018688 0.368778 0.133568 0.679498
C6    C     C_R   0.981312 0.631222 0.866432 0.679498
O17   O     O_R   0.184850 0.360440 0.352010 -0.537953
O18   O     O_R   0.815150 0.639560 0.647990 -0.537952
C7    C     C_R   0.015835 0.387271 0.386032 0.731436
C8    C     C_R   0.984165 0.612729 0.613968 0.731437
V3    V     V_3+5 0.296410 0.261900 0.250880 1.406576
V4    V     V_3+5 0.703590 0.738100 0.749120 1.406576
O19   O     O_3   0.020490 0.185890 0.245290 -0.369622
O20   O     O_3   0.979510 0.814110 0.754710 -0.369621
C9    C     C_1   0.005150 0.466880 0.466357 -0.191770
C10   C     C_1   0.994850 0.533120 0.533643 -0.191770
C11   C     C_3   0.079264 0.589919 0.033730 -0.141386
C12   C     C_3   0.920736 0.410081 0.966270 -0.141386
C13   C     C_3   0.904098 0.541046 0.076226 -0.143872
C14   C     C_3   0.095902 0.458954 0.923774 -0.143872
H1    H     H_    0.825362 0.574545 0.139562 0.104156
H2    H     H_    0.174638 0.425455 0.860437 0.104155
H3    H     H_    0.144510 0.664521 0.061202 0.102786
H4    H     H_    0.855489 0.335479 0.938798 0.102786
C15   C     C_3   0.009993 0.438870 0.062703 -0.005659
C16   C     C_3   0.990007 0.561129 0.937296 -0.005660
C17   C     C_3   0.185363 0.486931 0.021003 -0.115041
C18   C     C_3   0.814637 0.513069 0.978997 -0.115042
H5    H     H_    0.338325 0.475921 0.038728 0.106886
H6    H     H_    0.661675 0.524079 0.961272 0.106886
C19   C     C_3   0.321611 0.036547 0.490155 -0.152648
C20   C     C_3   0.678389 0.963453 0.509845 -0.152646
C21   C     C_3   0.380014 0.923744 0.472368 0.131481
C22   C     C_3   0.619986 0.076256 0.527632 0.131482
H7    H     H_    0.174866 0.066168 0.481544 0.114014
H8    H     H_    0.825134 0.933831 0.518455 0.114011
C23   C     C_3   0.495705 0.938172 0.562601 -0.060161
C24   C     C_3   0.504295 0.061828 0.437399 -0.060160
C25   C     C_3   0.438519 0.051068 0.581390 -0.183782
C26   C     C_3   0.561481 0.948931 0.418610 -0.183781
H9    H     H_    0.389321 0.092896 0.648672 0.110467
H10   H     H_    0.610679 0.907104 0.351328 0.110466
C27   C     C_1   0.504947 0.033099 0.033673 -0.197487
C28   C     C_1   0.495053 0.966901 0.966327 -0.197487
C29   C     C_3   0.242008 0.835276 0.442188 -0.368032
C30   C     C_3   0.141003 0.846164 0.351626 -0.301532
C31   C     C_3   0.001848 0.758179 0.322686 -0.787321
H11   H     H_    0.080627 0.685102 0.312070 0.228926
H12   H     H_    0.888934 0.756104 0.376301 0.226534
H13   H     H_    0.930865 0.767941 0.256983 0.212162
H14   H     H_    0.058716 0.918197 0.360084 0.193869
H15   H     H_    0.250059 0.847941 0.296173 0.190303
H16   H     H_    0.325073 0.763536 0.433665 0.165965
H17   H     H_    0.132480 0.832863 0.497250 0.173665
C32   C     C_3   0.757992 0.164724 0.557812 -0.368036
C33   C     C_3   0.859006 0.153833 0.648371 -0.301527
C34   C     C_3   0.998164 0.241817 0.677310 -0.787312
H18   H     H_    0.111067 0.243897 0.623689 0.226533
H19   H     H_    0.919383 0.314894 0.687935 0.228924
H20   H     H_    0.069164 0.232050 0.743008 0.212159
H21   H     H_    0.749957 0.152053 0.703827 0.190301
H22   H     H_    0.941294 0.081799 0.639908 0.193866
H23   H     H_    0.867514 0.167140 0.502748 0.173666
H24   H     H_    0.674924 0.236464 0.566339 0.165966

loop_
_geom_bond_atom_site_label_1
_geom_bond_atom_site_label_2
_ccdc_geom_bond_type
C14   H2    S    
O13   V3    S    
C32   C33   S    
C12   H4    S    
O4    C2    A    
V1    O19   S    
C5    C15   S    
C7    C9    S    
O9    V1    S    
C20   H8    S    
C11   C13   S    
O3    C1    A    
C25   H9    S    
C26   H10   S    
C4    C28   S    
C19   C25   S    
O7    C3    A    
C14   C17   S    
O5    C7    A    
O7    V1    S    
O6    C8    A    
O8    V2    S    
C31   H12   S    
C20   C22   S    
O3    V1    S    
O14   V4    S    
C30   H15   S    
C21   C23   S    
C1    O11   A    
C8    C10   S    
C2    O12   A    
C33   H22   S    
C1    C24   S    
O2    C4    A    
C2    C23   S    
C32   H23   S    
C16   C18   S    
O11   V3    S    
C17   H5    S    
O17   V3    S    
C18   H6    S    
C33   C34   S    
C20   C26   S    
C21   C29   S    
C22   C32   S    
O8    C4    A    
C19   C21   S    
O15   V3    S    
C13   C15   S    
C34   H18   S    
C14   C16   S    
C34   H19   S    
C31   H13   S    
O10   V2    S    
O1    V3    S    
C9    C10   T    
C21   C26   S    
C30   H14   S    
C12   C18   S    
C11   C16   S    
C15   C17   S    
C29   H16   S    
O18   V4    S    
C33   H21   S    
C23   C25   S    
C6    C16   S    
O16   C6    A    
O1    C3    A    
C12   C14   S    
C11   C17   S    
C32   H24   S    
V2    O20   S    
O16   V4    S    
O5    V1    S    
O17   C7    A    
C19   C24   S    
O6    V2    S    
O10   C6    A    
O18   C8    A    
C20   C23   S    
O2    V4    S    
C30   C31   S    
O15   C5    A    
V3    O19   S    
V4    O20   S    
C19   H7    S    
O9    C5    A    
O13   V1    S    
C24   C26   S    
O14   V2    S    
C27   C28   T    
C11   H3    S    
C34   H20   S    
C22   C25   S    
C29   C30   S    
O4    V2    S    
C3    C27   S    
C29   H17   S    
C13   H1    S    
C31   H11   S    
C12   C15   S    
C13   C18   S    
O12   V4    S    
C22   C24   S    
