data_mof_unit_38308.cif
_audit_creation_date              2012-12-10T17:25:22-0500
_audit_creation_method            fapswitch 2.2
_symmetry_space_group_name_H-M    P1
_symmetry_Int_Tables_number       1
_space_group_crystal_system       triclinic
_cell_length_a                    27.821774
_cell_length_b                    10.768645
_cell_length_c                    9.605413
_cell_angle_alpha                 90.110319
_cell_angle_beta                  90.377664
_cell_angle_gamma                 92.356867
_cell_volume                      2875.30486942

loop_
_atom_site_label
_atom_site_type_symbol
_atom_type_description
_atom_site_fract_x
_atom_site_fract_y
_atom_site_fract_z
_atom_type_partial_charge
C1    C     C_R   0.498326 0.262674 0.499853 0.805597
C2    C     C_R   0.276920 0.419461 0.411679 -0.104778
C3    C     C_R   0.253876 0.496618 0.505547 0.296893
C4    C     C_R   0.102023 0.499766 0.508703 -0.080613
C5    C     C_R   0.125311 0.387420 0.534894 -0.080044
C6    C     C_R   0.096728 0.277328 0.555999 0.216033
C7    C     C_R   0.129847 0.609321 0.481547 -0.016328
C8    C     C_R   0.354791 0.494068 0.500349 -0.076008
C9    C     C_R   0.645422 0.506808 0.502005 -0.043902
C10   C     C_R   0.972200 0.399883 0.551393 0.028532
C11   C     C_R   0.976986 0.615877 0.470318 0.015520
C12   C     C_R   0.407625 0.496684 0.499730 0.802455
C13   C     C_R   0.949127 0.509088 0.510898 0.075396
C14   C     C_R   0.943805 0.299905 0.604408 -0.230906
C15   C     C_R   0.893947 0.301122 0.607468 0.221646
C16   C     C_R   0.870096 0.405730 0.556762 -0.073410
C17   C     C_R   0.897916 0.511336 0.510822 -0.105415
C18   C     C_R   0.874617 0.619035 0.464652 -0.074032
C19   C     C_R   0.823868 0.618024 0.466890 0.573442
C20   C     C_R   0.819535 0.409511 0.550593 0.566893
C21   C     C_R   0.721388 0.513764 0.378583 -0.067037
C22   C     C_R   0.671219 0.509624 0.376582 -0.184010
C23   C     C_R   0.498442 0.737118 0.500163 0.778929
C24   C     C_R   0.670734 0.509925 0.629251 -0.178395
C25   C     C_R   0.720859 0.514017 0.630924 -0.065909
C26   C     C_R   0.746349 0.515211 0.505713 0.332660
C27   C     C_R   0.023034 0.394348 0.540984 0.020649
C28   C     C_R   0.050918 0.503142 0.509303 0.075891
C29   C     C_R   0.028100 0.615432 0.478057 0.062030
C30   C     C_R   0.046826 0.282179 0.558194 -0.229740
C31   C     C_R   0.107141 0.720520 0.457034 -0.113096
C32   C     C_R   0.952859 0.719519 0.420816 -0.233476
C33   C     C_R   0.902984 0.722676 0.417591 0.219850
C34   C     C_R   0.592452 0.501767 0.500489 0.796505
C35   C     C_R   0.057384 0.724008 0.456313 -0.190252
C36   C     C_R   0.421608 0.121978 0.644188 -0.164091
C37   C     C_R   0.386147 0.053509 0.715910 -0.094633
C38   C     C_R   0.386625 0.924439 0.718094 -0.113691
C39   C     C_R   0.422477 0.863107 0.648180 -0.170656
C40   C     C_R   0.459116 0.930507 0.575905 0.103693
C41   C     C_R   0.458827 0.061771 0.574569 0.100767
C42   C     C_R   0.494921 0.128622 0.499353 -0.098754
C43   C     C_R   0.528723 0.067050 0.421279 -0.159942
C44   C     C_R   0.528735 0.939027 0.421694 -0.168219
C45   C     C_R   0.176210 0.390408 0.537558 0.570255
C46   C     C_R   0.495142 0.870681 0.500520 -0.092783
C47   C     C_R   0.564849 0.662714 0.144734 -0.248299
C48   C     C_R   0.598022 0.738806 0.073755 0.110140
C49   C     C_R   0.597603 0.739359 0.929139 0.128058
C50   C     C_R   0.564524 0.662664 0.857543 -0.239393
C51   C     C_R   0.531628 0.580364 0.926003 0.179623
C52   C     C_R   0.531649 0.580444 0.075294 0.187859
C53   C     C_R   0.470431 0.422372 0.072964 -0.026663
C54   C     C_R   0.470267 0.422708 0.925215 -0.036415
C55   C     C_R   0.180082 0.605835 0.479753 0.550490
C56   C     C_R   0.281407 0.570561 0.598738 -0.081948
C57   C     C_R   0.331441 0.569146 0.596252 -0.246001
C58   C     C_R   0.327033 0.416202 0.409736 0.110633
Cu1   Cu    Cu3+1 0.500000 0.499990 0.640660 0.944773
Cu2   Cu    Cu3+1 0.500000 0.500010 0.359340 0.966457
H1    H     H_    0.127842 0.806263 0.438675 0.210503
H2    H     H_    0.972016 0.799676 0.378878 0.160073
H3    H     H_    0.043073 0.814514 0.441608 0.157445
H4    H     H_    0.555933 0.118571 0.362171 0.170309
H5    H     H_    0.418830 0.221772 0.641689 0.143380
H6    H     H_    0.357869 0.100777 0.768663 0.160085
H7    H     H_    0.255657 0.360180 0.341595 0.176160
H8    H     H_    0.358739 0.871481 0.772655 0.146758
H9    H     H_    0.420593 0.762893 0.649517 0.147385
H10   H     H_    0.555820 0.892894 0.362746 0.169713
H11   H     H_    0.566593 0.671092 0.747992 0.223735
H12   H     H_    0.445892 0.359156 0.869510 0.139203
H13   H     H_    0.740917 0.514506 0.281419 0.153997
H14   H     H_    0.959681 0.219747 0.649715 0.163851
H15   H     H_    0.027248 0.194347 0.568626 0.164281
H16   H     H_    0.351902 0.627164 0.669271 0.151732
N1    N     N_R   0.202197 0.497750 0.507920 -0.467023
N2    N     N_R   0.797944 0.514391 0.507816 -0.479400
N3    N     N_R   0.500460 0.501210 0.147910 -0.190450
N4    N     N_R   0.500480 0.501290 0.852040 -0.190836
O1    O     O_R   0.500000 0.319640 0.618810 -0.578070
O2    O     O_2   0.791590 0.309204 0.584320 -0.473615
O3    O     O_2   0.206723 0.709649 0.448906 -0.517711
O4    O     O_2   0.800039 0.719305 0.430194 -0.461295
O5    O     O_R   0.500000 0.319660 0.381240 -0.566818
O6    O     O_R   0.430260 0.500010 0.618770 -0.596803
O7    O     O_R   0.430270 0.500030 0.381200 -0.548933
O8    O     O_R   0.500000 0.680340 0.618760 -0.599750
O9    O     O_R   0.500000 0.680360 0.381190 -0.587919
O10   O     O_R   0.569730 0.499970 0.618800 -0.594087
O11   O     O_R   0.569740 0.499990 0.381230 -0.599004
O12   O     O_2   0.199975 0.288441 0.572129 -0.485027
I1    I     I_    0.356966 0.280290 0.280018 -0.376123
H17   H     H_    0.263987 0.628945 0.673413 0.160214
H18   H     H_    0.651890 0.508778 0.727578 0.170568
I2    I     I_    0.877173 0.891640 0.333833 -0.176939
H19   H     H_    0.739974 0.515485 0.729530 0.153381
H20   H     H_    0.446588 0.357848 0.127156 0.169305
H21   H     H_    0.567055 0.671705 0.254391 0.216617
I3    I     I_    0.648482 0.848847 0.192422 -0.266571
I4    I     I_    0.645868 0.853498 0.810148 -0.243702
I5    I     I_    0.122331 0.093958 0.578928 -0.275135
H22   H     H_    0.652718 0.508107 0.276992 0.171271
I6    I     I_    0.861022 0.137940 0.698686 -0.157585

loop_
_geom_bond_atom_site_label_1
_geom_bond_atom_site_label_2
_ccdc_geom_bond_type
C10   C27   A    
C21   C26   A    
Cu2   N3    S    
C20   O2    S    
C41   C42   A    
C31   H1    S    
C7    C55   A    
C43   C44   A    
Cu2   O9    S    
C56   H17   S    
C26   N2    S    
C14   H14   S    
C57   H16   S    
C28   C29   A    
C53   N3    A    
C58   I1    S    
C49   I4    S    
C5    C6    A    
C55   N1    A    
C9    C22   A    
C1    O1    A    
C15   C16   A    
C21   H13   S    
C47   H21   S    
C56   C57   A    
C18   C19   A    
C45   O12   S    
C34   O11   A    
C8    C58   A    
Cu1   O8    S    
C16   C17   A    
C23   O9    A    
C44   H10   S    
C15   I6    S    
C52   N3    A    
C8    C12   S    
Cu1   Cu2   S    
C23   C46   S    
C21   C22   A    
C27   C30   A    
C36   C41   A    
C4    C7    A    
C4    C28   A    
Cu2   O7    S    
C44   C46   A    
C43   H4    S    
C50   C51   A    
C54   N4    A    
C1    O5    A    
C48   I3    S    
C7    C31   A    
C51   C52   A    
C24   C25   A    
C2    H7    S    
C10   C14   A    
C24   H18   S    
C39   C40   A    
C36   H5    S    
C25   C26   A    
C53   C54   A    
C5    C45   A    
C22   H22   S    
Cu1   O10   S    
C19   N2    A    
C40   C46   A    
C50   H11   S    
C34   O10   A    
C37   C38   A    
C8    C57   A    
C3    C56   A    
C47   C48   A    
C16   C20   A    
C37   H6    S    
C17   C18   A    
C39   H9    S    
C25   H19   S    
C48   C49   A    
C6    C30   A    
C38   H8    S    
C11   C32   A    
C23   O8    A    
C9    C34   S    
C31   C35   A    
C42   C43   A    
C55   O3    S    
C19   O4    S    
C3    N1    S    
C33   I2    S    
Cu2   O11   S    
C40   C41   A    
C12   O7    A    
Cu1   O1    S    
C4    C5    A    
C10   C13   A    
Cu1   N4    S    
C35   H3    S    
Cu2   O5    S    
C2    C58   A    
C9    C24   A    
C47   C52   A    
C12   O6    A    
C53   H20   S    
C29   C35   A    
C20   N2    A    
C32   C33   A    
C2    C3    A    
Cu1   O6    S    
C32   H2    S    
C30   H15   S    
C11   C13   A    
C38   C39   A    
C51   N4    A    
C6    I5    S    
C18   C33   A    
C13   C17   A    
C1    C42   S    
C54   H12   S    
C11   C29   A    
C36   C37   A    
C49   C50   A    
C27   C28   A    
C14   C15   A    
C45   N1    A    
