data_mof_unit_17531.cif
_audit_creation_date              2013-03-05T16:46:08-0500
_audit_creation_method            fapswitch 2.2
_symmetry_space_group_name_H-M    P1
_symmetry_Int_Tables_number       1
_space_group_crystal_system       triclinic
_cell_length_a                    10.71539
_cell_length_b                    10.697257
_cell_length_c                    9.846981
_cell_angle_alpha                 89.191222
_cell_angle_beta                  91.484909
_cell_angle_gamma                 90.040314
_cell_volume                      1128.22144553

loop_
_atom_site_label
_atom_site_type_symbol
_atom_site_description
_atom_site_fract_x
_atom_site_fract_y
_atom_site_fract_z
_atom_type_partial_charge
O1    O     O_R   0.500020 0.316790 0.614690 -0.599511
O2    O     O_R   0.500000 0.316760 0.385350 -0.631177
C1    C     C_R   0.504097 0.259797 0.501010 0.873665
O3    O     O_R   0.316770 0.500030 0.614670 -0.633984
O4    O     O_R   0.316750 0.499990 0.385330 -0.621081
C2    C     C_R   0.260275 0.503267 0.498133 0.888488
Zn1   Zn    Zn3+2 0.500010 0.500020 0.653130 0.967005
Zn2   Zn    Zn3+2 0.499990 0.499980 0.346870 0.974258
O5    O     O_R   0.500000 0.683240 0.614650 -0.628269
O6    O     O_R   0.499980 0.683210 0.385310 -0.611237
O7    O     O_R   0.683250 0.500010 0.614670 -0.615785
O8    O     O_R   0.683230 0.499970 0.385330 -0.589600
C3    C     C_R   0.503222 0.740010 0.499252 0.913516
C4    C     C_R   0.740066 0.501564 0.502108 0.933739
H1    H     H_    0.294219 0.878655 0.043058 0.185569
C5    C     C_R   0.251232 0.848483 0.253512 -0.119349
H2    H     H_    0.301445 0.930320 0.288001 0.141761
C6    C     C_R   0.190976 0.771328 0.347147 -0.130375
H3    H     H_    0.196143 0.793524 0.454141 0.102981
C7    C     C_R   0.124140 0.666072 0.302329 0.180599
C8    C     C_R   0.117937 0.639677 0.163041 -0.068541
H4    H     H_    0.066164 0.559253 0.126691 0.135446
C9    C     C_R   0.179923 0.715771 0.070102 -0.160144
H5    H     H_    0.176119 0.693998 0.963042 0.133369
C10   C     C_R   0.246655 0.819975 0.115345 -0.101232
C11   C     C_R   0.931217 0.585287 0.408343 0.285842
C12   C     C_R   0.872806 0.509944 0.506762 -0.204197
C13   C     C_R   0.942391 0.439905 0.604404 -0.046757
C14   C     C_R   0.069612 0.437495 0.595117 -0.250693
H6    H     H_    0.124007 0.381373 0.667858 0.160177
C15   C     C_R   0.127974 0.507286 0.495227 -0.120344
C16   C     C_R   0.060684 0.583099 0.401069 -0.139145
C17   C     C_R   0.860739 0.437774 0.839218 -0.093941
H7    H     H_    0.865744 0.538926 0.839945 0.140291
C18   C     C_R   0.829414 0.372992 0.957824 -0.156626
H8    H     H_    0.807925 0.423954 0.048487 0.168680
C19   C     C_R   0.828458 0.242368 0.960221 -0.038301
H9    H     H_    0.805290 0.192267 0.052477 0.136526
C20   C     C_R   0.856277 0.176329 0.843175 -0.055918
H10   H     H_    0.855218 0.075131 0.845172 0.140156
C21   C     C_R   0.886591 0.240824 0.723979 -0.182510
H11   H     H_    0.911365 0.188797 0.635034 0.136351
C22   C     C_R   0.889185 0.372027 0.721381 0.149477
C23   C     C_R   0.516675 0.060780 0.625080 0.126428
C24   C     C_R   0.523921 0.128272 0.503447 -0.127200
C25   C     C_R   0.554713 0.066618 0.383718 -0.236221
H12   H     H_    0.571847 0.117614 0.290299 0.168456
C26   C     C_R   0.553355 0.937132 0.381876 -0.151216
H13   H     H_    0.568950 0.889815 0.287248 0.189448
C27   C     C_R   0.521347 0.871295 0.499896 -0.088255
C28   C     C_R   0.513401 0.933436 0.622079 0.089852
C29   C     C_3   0.417843 0.922699 0.729155 -0.545475
C30   C     C_3   0.422771 0.064514 0.735854 -0.207596
H14   H     H_    0.326889 0.886872 0.688896 0.190006
H15   H     H_    0.454913 0.872281 0.821262 0.213370
H16   H     H_    0.333539 0.111009 0.704640 0.113950
C31   C     C_R   0.444038 0.404932 0.071331 0.213745
N1    N     N_R   0.499160 0.499140 0.142800 -0.121022
C32   C     C_R   0.563369 0.588383 0.072429 -0.099799
H17   H     H_    0.611552 0.661660 0.127072 0.203716
C33   C     C_R   0.564400 0.587701 0.928424 -0.150503
H18   H     H_    0.614822 0.659590 0.874316 0.160173
N2    N     N_R   0.499160 0.499180 0.857150 -0.113966
C34   C     C_R   0.441227 0.407064 0.928598 0.314170
C35   C     C_3   0.305133 0.377236 0.922300 -0.530366
C36   C     C_3   0.309910 0.369273 0.076285 -0.506966
H19   H     H_    0.247754 0.456842 0.882352 0.207599
H20   H     H_    0.284524 0.286362 0.873633 0.210915
H21   H     H_    0.252853 0.440538 0.125532 0.217984
H22   H     H_    0.296940 0.272926 0.117026 0.225513
C37   C     C_2   0.476499 0.107850 0.869793 0.935826
O9    O     O_2   0.574525 0.166022 0.874775 -0.639527
O10   O     O_R   0.413184 0.080876 0.988797 -0.854955
H23   H     H_    0.459248 0.112107 0.072811 0.322676
N3    N     N_R   0.859871 0.673053 0.326314 0.208393
O11   O     O_R   0.797660 0.761162 0.384047 -0.431942
O12   O     O_R   0.850980 0.660902 0.195167 -0.456390

loop_
_geom_bond_atom_site_label_1
_geom_bond_atom_site_label_2
_geom_bond_distance
_ccdc_geom_bond_type
C11   C16   1.391219 A    
C21   H11   1.083214 S    
C18   H8    1.082501 S    
C31   C36   1.488574 S    
C20   C21   1.398462 A    
C24   C25   1.405783 A    
C23   C24   1.393602 A    
Zn1   O7    2.009291 S    
C11   C12   1.410397 A    
C19   H9    1.082544 S    
C13   C14   1.368937 A    
C18   C19   1.397211 A    
O4    C2    1.279536 A    
O7    C4    1.278242 A    
H1    C10   1.079906 S    
C36   H21   1.102979 S    
C6    H3    1.083258 S    
O10   H23   1.012949 S    
C33   N2    1.367604 A    
O5    C3    1.282082 A    
Zn2   N1    2.009410 S    
C23   C30   1.504013 S    
C5    H2    1.081423 S    
C35   H19   1.112054 S    
C9    H5    1.082581 S    
C4    C12   1.424718 S    
C29   H15   1.113141 S    
C26   C27   1.400503 A    
C2    C15   1.417874 S    
C32   H17   1.080490 S    
C8    H4    1.083398 S    
C21   C22   1.403646 A    
O3    Zn1   1.990018 S    
C29   H14   1.112488 S    
C17   H7    1.083448 S    
C19   C20   1.399058 A    
C25   C26   1.385581 A    
C32   C33   1.418465 A    
C28   C29   1.491890 S    
C17   C22   1.405568 A    
O3    C2    1.283515 A    
C20   H10   1.082499 S    
C37   O10   1.395749 S    
C27   C28   1.387309 A    
N1    C32   1.367487 A    
C1    C24   1.422829 S    
N2    C34   1.361450 A    
O1    C1    1.283940 A    
N3    O11   1.300600 A    
C14   H6    1.086239 S    
C15   C16   1.407910 A    
Zn2   O8    1.990019 S    
C35   H20   1.109403 S    
C11   N3    1.437349 S    
N3    O12   1.300779 A    
Zn1   N2    2.009131 S    
C23   C28   1.363373 A    
C5    C6    1.398869 A    
C26   H13   1.083462 S    
O8    C4    1.287526 A    
C8    C9    1.396782 A    
C30   C37   1.504449 S    
C29   C30   1.520221 S    
C31   C34   1.404889 A    
C7    C16   1.484772 S    
C30   H16   1.112293 S    
C5    C10   1.398098 A    
Zn1   O5    1.990985 S    
C25   H12   1.082565 S    
O1    Zn1   2.001512 S    
O2    Zn2   1.990983 S    
O6    C3    1.283140 A    
O4    Zn2   2.009291 S    
C13   C22   1.479502 S    
C34   C35   1.492485 S    
O2    C1    1.283820 A    
C37   O9    1.220744 D    
C14   C15   1.387963 A    
C31   N1    1.362858 A    
C36   H22   1.110639 S    
C17   C18   1.397877 A    
C6    C7    1.404261 A    
C9    C10   1.395962 A    
C33   H18   1.081644 S    
C3    C27   1.417700 S    
C7    C8    1.404107 A    
Zn2   O6    2.001513 S    
C35   C36   1.517018 S    
C12   C13   1.408906 A    
