data_mof_unit_28649.cif
_audit_creation_date              2012-10-26T18:53:19-0400
_audit_creation_method            fapswitch 2.2
_symmetry_space_group_name_H-M    P1
_symmetry_Int_Tables_number       1
_space_group_crystal_system       triclinic
_cell_length_a                    14.705425
_cell_length_b                    14.627454
_cell_length_c                    15.877888
_cell_angle_alpha                 77.122292
_cell_angle_beta                  102.698694
_cell_angle_gamma                 114.922864
_cell_volume                      2988.64402527

loop_
_atom_site_label
_atom_site_type_symbol
_atom_type_description
_atom_site_fract_x
_atom_site_fract_y
_atom_site_fract_z
_atom_type_partial_charge
C1    C     C_R   0.880293 0.311818 0.515385 0.544336
C2    C     C_R   0.188296 0.795952 0.485333 -0.004577
C3    C     C_R   0.790940 0.023847 0.568676 0.008014
C4    C     C_R   0.999793 0.500345 0.659523 0.550550
C5    C     C_R   0.853665 0.128299 0.554963 -0.134065
C6    C     C_R   0.709694 0.174608 0.518649 -0.150144
C7    C     C_R   0.643051 0.072669 0.536398 -0.008811
C8    C     C_R   0.682893 0.994735 0.558939 0.085181
C9    C     C_R   0.536886 0.047397 0.528571 0.023967
C10   C     C_R   0.468927 0.944372 0.529776 0.009340
C11   C     C_R   0.508619 0.868531 0.554030 -0.134188
C12   C     C_3   0.093055 0.479109 0.072463 -0.203063
C13   C     C_R   0.612436 0.891571 0.570191 0.086118
C14   C     C_R   0.496397 0.121868 0.521386 -0.139273
C15   C     C_R   0.392540 0.096492 0.508797 -0.141056
C16   C     C_R   0.119848 0.688062 0.486270 0.543076
C17   C     C_R   0.325109 0.996620 0.501323 0.051166
C18   C     C_R   0.362725 0.919880 0.510158 0.032571
C19   C     C_R   0.220263 0.972306 0.485596 -0.141525
C20   C     C_R   0.152134 0.872210 0.478593 -0.144959
C21   C     C_R   0.292716 0.821168 0.497618 -0.135146
C22   C     C_R   0.718893 0.673965 0.361450 -0.161782
C23   C     C_3   0.000869 0.498514 0.083462 0.048316
C24   C     C_R   0.798987 0.642298 0.381613 0.038274
C25   C     C_R   0.713967 0.507316 0.487028 0.035496
C26   C     C_R   0.628997 0.534885 0.468967 0.004158
C27   C     C_R   0.634128 0.621102 0.405211 0.041601
C28   C     C_R   0.000286 0.499790 0.340391 0.552576
C29   C     C_R   0.540612 0.481490 0.512050 0.005612
C30   C     C_R   0.459940 0.516668 0.491331 0.013811
C31   C     C_R   0.470566 0.604642 0.428609 -0.148977
C32   C     C_R   0.555392 0.654904 0.386170 -0.136003
C33   C     C_R   0.530470 0.394060 0.574687 -0.137287
C34   C     C_3   0.009362 0.603638 0.029885 -0.228099
C35   C     C_R   0.445858 0.342254 0.618403 0.019591
C36   C     C_R   0.365897 0.376722 0.598729 0.045427
C37   C     C_R   0.371580 0.463180 0.534149 -0.013103
C38   C     C_R   0.279192 0.325755 0.641245 -0.167369
C39   C     C_R   0.199939 0.358443 0.619306 0.032612
C40   C     C_3   0.082958 0.462730 0.976960 -0.073132
C41   C     C_R   0.286873 0.491465 0.514187 0.034323
C42   C     C_3   0.892683 0.427070 0.945523 -0.091668
C43   C     C_3   0.901549 0.413798 0.046675 -0.207747
C44   C     C_1   0.000862 0.499152 0.250993 -0.038367
C45   C     C_3   0.018122 0.606722 0.933610 -0.228510
C46   C     C_3   0.999463 0.498522 0.916897 0.101320
C47   C     C_3   0.186645 0.498142 0.944479 -0.266995
C48   C     C_3   0.244760 0.613609 0.922588 -0.286133
C49   C     C_3   0.352136 0.638505 0.907222 -0.454672
C50   C     C_3   0.839346 0.945235 0.592553 -0.234773
C51   C     C_3   0.955353 0.985814 0.598347 -0.333796
C52   C     C_3   0.991718 0.898469 0.621639 -0.453255
C53   C     C_3   0.443950 0.249260 0.685274 -0.247735
C54   C     C_3   0.470953 0.272789 0.779378 -0.289009
C55   C     C_3   0.582008 0.343505 0.799707 -0.435808
C56   C     C_1   0.000989 0.498717 0.175568 -0.077367
C57   C     C_3   0.830852 0.326197 0.906227 -0.270403
C58   C     C_3   0.882006 0.250795 0.919203 -0.293769
C59   C     C_3   0.808573 0.151875 0.884927 -0.453513
C60   C     C_1   0.999036 0.500291 0.824308 -0.075101
C61   C     C_1   0.999108 0.500701 0.748789 -0.052242
C62   C     C_R   0.813635 0.202888 0.529365 -0.026651
Cu1   Cu    Cu3+1 0.081750 0.475690 0.522550 0.922342
Cu2   Cu    Cu3+1 0.918250 0.524310 0.477450 0.924805
H1    H     H_    0.096990 0.410498 0.118047 0.097985
H2    H     H_    0.460314 0.788756 0.565436 0.106595
H3    H     H_    0.543109 0.200246 0.528743 0.096457
H4    H     H_    0.191003 0.030510 0.479805 0.103703
H5    H     H_    0.559721 0.721748 0.338274 0.107078
H6    H     H_    0.282907 0.553118 0.464061 0.118198
H7    H     H_    0.133289 0.318047 0.651599 0.120482
H8    H     H_    0.723604 0.740008 0.312502 0.086698
H9    H     H_    0.865113 0.683852 0.348794 0.122931
H10   H     H_    0.718876 0.445404 0.536434 0.116617
H11   H     H_    0.842591 0.469975 0.919892 0.114857
H12   H     H_    0.164232 0.544546 0.090043 0.123957
H13   H     H_    0.414860 0.637766 0.410788 0.091343
H14   H     H_    0.588463 0.363972 0.591928 0.084090
H15   H     H_    0.270624 0.260162 0.691057 0.085261
H16   H     H_    0.901885 0.337718 0.077012 0.120553
H17   H     H_    0.834333 0.418162 0.064164 0.104270
H18   H     H_    0.092578 0.664459 0.918284 0.111811
H19   H     H_    0.961502 0.634156 0.889858 0.101059
H20   H     H_    0.076819 0.665735 0.058321 0.111969
H21   H     H_    0.395507 0.612763 0.967331 0.147233
H22   H     H_    0.350017 0.600720 0.852962 0.157119
H23   H     H_    0.941360 0.617732 0.032398 0.115550
H24   H     H_    0.391676 0.722165 0.889582 0.140219
H25   H     H_    0.205770 0.643184 0.861587 0.165866
H26   H     H_    0.249701 0.653077 0.976596 0.153746
H27   H     H_    0.235134 0.466479 0.995634 0.134695
H28   H     H_    0.174448 0.462852 0.885540 0.143967
H29   H     H_    0.613990 0.766404 0.655409 0.229479
H30   H     H_    0.612206 0.759595 0.549926 0.241954
H31   H     H_    0.971710 0.854398 0.686296 0.151994
H32   H     H_    0.956649 0.846623 0.571496 0.159668
H33   H     H_    0.075326 0.929722 0.624665 0.146533
H34   H     H_    0.317855 0.762422 0.495775 0.114077
H35   H     H_    0.978906 0.029536 0.534461 0.159772
H36   H     H_    0.992507 0.036017 0.649730 0.153529
H37   H     H_    0.820153 0.901287 0.657474 0.181124
H38   H     H_    0.806832 0.893643 0.542141 0.183831
H39   H     H_    0.631919 0.311009 0.785412 0.140048
H40   H     H_    0.597065 0.419990 0.760259 0.165686
H41   H     H_    0.600145 0.352294 0.869866 0.126046
H42   H     H_    0.422137 0.307785 0.791772 0.158468
H43   H     H_    0.456932 0.199963 0.824796 0.140924
H44   H     H_    0.368686 0.185620 0.676641 0.115346
H45   H     H_    0.071587 0.854411 0.468687 0.122918
H46   H     H_    0.497700 0.219076 0.674433 0.137642
H47   H     H_    0.742430 0.114258 0.921178 0.148600
H48   H     H_    0.781637 0.167493 0.814248 0.155219
H49   H     H_    0.847597 0.099130 0.893901 0.138544
H50   H     H_    0.947313 0.284140 0.882108 0.160005
H51   H     H_    0.908164 0.232139 0.989495 0.149786
H52   H     H_    0.758709 0.286981 0.934523 0.137759
H53   H     H_    0.809816 0.345872 0.834914 0.142271
H54   H     H_    0.364946 0.155758 0.504054 0.112520
H55   H     H_    0.934923 0.153402 0.562878 0.127366
H56   H     H_    0.681836 0.234099 0.493488 0.128332
H57   H     H_    0.053770 0.379265 0.980665 0.111675
N1    N     N_R   0.795410 0.560790 0.443550 -0.231351
N2    N     N_R   0.204590 0.439170 0.556520 -0.230646
N3    N     N_3   0.643354 0.807530 0.597824 -0.681152
O1    O     O_R   0.977910 0.338120 0.529720 -0.508234
O2    O     O_R   0.839850 0.379180 0.491640 -0.508759
O3    O     O_R   0.069060 0.479460 0.639610 -0.496886
O4    O     O_R   0.931000 0.520530 0.601530 -0.497412
O5    O     O_R   0.160150 0.620820 0.508360 -0.510025
O6    O     O_R   0.022090 0.661880 0.470280 -0.506840
O7    O     O_R   0.069000 0.479470 0.398470 -0.495313
O8    O     O_R   0.930940 0.520540 0.360390 -0.493319

loop_
_geom_bond_atom_site_label_1
_geom_bond_atom_site_label_2
_ccdc_geom_bond_type
C53   H46   S    
C40   C47   S    
C8    C13   A    
C29   C33   A    
C35   C53   S    
C18   C21   A    
C47   H28   S    
C6    C7    A    
C19   C20   A    
H29   N3    S    
Cu2   O8    S    
C1    C62   S    
C39   N2    A    
C23   C56   S    
C53   C54   S    
C40   C46   S    
C40   H57   S    
C12   C23   S    
C26   C27   A    
C54   H43   S    
C55   H41   S    
C36   C37   A    
C1    O1    A    
C30   C31   A    
C24   H9    S    
C38   H15   S    
C55   H39   S    
C52   H33   S    
C23   C43   S    
C52   H31   S    
C7    C9    A    
C25   H10   S    
C42   C46   S    
C22   H8    S    
C59   H48   S    
C45   H18   S    
Cu2   O4    S    
C59   H47   S    
C14   H3    S    
Cu1   O7    S    
C16   O6    A    
C9    C10   A    
C11   H2    S    
C48   H26   S    
C49   H24   S    
C45   H19   S    
C34   H20   S    
C42   C57   S    
C6    H56   S    
C25   C26   A    
C3    C50   S    
C31   H13   S    
C57   H52   S    
C51   H35   S    
C54   H42   S    
C2    C20   A    
C51   C52   S    
C49   H21   S    
C7    C8    A    
C1    O2    A    
C3    C8    A    
C13   N3    S    
C4    O4    A    
C17   C19   A    
C50   C51   S    
C43   H16   S    
C45   C46   S    
C4    C61   S    
C28   C44   S    
C20   H45   S    
C30   C37   A    
C60   C61   T    
C28   O8    A    
C35   C36   A    
C12   C40   S    
C9    C14   A    
C29   C30   A    
C44   C56   T    
C47   C48   S    
C59   H49   S    
C23   C34   S    
C2    C21   A    
C24   N1    A    
C17   C18   A    
C42   H11   S    
C19   H4    S    
C34   C45   S    
C16   O5    A    
Cu1   O1    S    
C50   H37   S    
C48   C49   S    
Cu2   O6    S    
C50   H38   S    
Cu2   O2    S    
C48   H25   S    
C12   H12   S    
C58   H51   S    
C43   H17   S    
C22   C24   A    
C42   C43   S    
C2    C16   S    
C57   H53   S    
C25   N1    A    
C51   H36   S    
C15   C17   A    
C54   C55   S    
C4    O3    A    
C46   C60   S    
C27   C32   A    
C47   H27   S    
C49   H22   S    
C31   C32   A    
C3    C5    A    
Cu1   N2    S    
C32   H5    S    
C12   H1    S    
C15   H54   S    
C22   C27   A    
C28   O7    A    
C6    C62   A    
C36   C38   A    
C58   C59   S    
C21   H34   S    
C11   C13   A    
C53   H44   S    
C41   N2    A    
C57   C58   S    
C38   C39   A    
C10   C18   A    
Cu2   N1    S    
C55   H40   S    
C33   C35   A    
C5    C62   A    
C52   H32   S    
C34   H23   S    
Cu1   O5    S    
C37   C41   A    
C33   H14   S    
C10   C11   A    
Cu1   Cu2   S    
C26   C29   A    
C58   H50   S    
C39   H7    S    
C14   C15   A    
Cu1   O3    S    
C41   H6    S    
C5    H55   S    
H30   N3    S    
