data_mof_unit_19897.cif
_audit_creation_date              2012-12-10T18:58:45-0500
_audit_creation_method            fapswitch 2.2
_symmetry_space_group_name_H-M    P1
_symmetry_Int_Tables_number       1
_space_group_crystal_system       triclinic
_cell_length_a                    12.965035
_cell_length_b                    10.808723
_cell_length_c                    9.569405
_cell_angle_alpha                 89.680563
_cell_angle_beta                  95.897307
_cell_angle_gamma                 90.457054
_cell_volume                      1333.85828616

loop_
_atom_site_label
_atom_site_type_symbol
_atom_type_description
_atom_site_fract_x
_atom_site_fract_y
_atom_site_fract_z
_atom_type_partial_charge
C1    C     C_R   0.500902 0.262528 0.500546 0.816284
C2    C     C_R   0.027398 0.527411 0.559836 0.177687
C3    C     C_R   0.973280 0.466355 0.443896 0.158282
C4    C     C_R   0.866138 0.453026 0.437470 -0.251725
C5    C     C_R   0.865921 0.565717 0.656156 -0.201047
C6    C     C_R   0.973369 0.575868 0.666083 -0.196808
C7    C     C_R   0.480164 0.062474 0.617480 0.042387
C8    C     C_R   0.510205 0.129683 0.503800 -0.153950
C9    C     C_R   0.558303 0.067801 0.399660 -0.193786
C10   C     C_R   0.565130 0.938712 0.401843 0.389947
C11   C     C_R   0.516159 0.870969 0.504485 -0.168526
C12   C     C_R   0.300722 0.498813 0.474024 0.797467
C13   C     C_R   0.481374 0.935466 0.616420 0.014721
C14   C     C_3   0.382734 0.925707 0.684693 0.238169
C15   C     C_3   0.381715 0.066464 0.685902 -0.403673
C16   C     C_R   0.551882 0.590278 0.079533 0.266612
C17   C     C_R   0.441597 0.417609 0.066783 -0.060233
C18   C     C_R   0.441852 0.417339 0.918094 -0.057479
C19   C     C_R   0.550039 0.591506 0.932030 0.185567
C20   C     C_3   0.661834 0.623021 0.935862 -0.537052
C21   C     C_3   0.666180 0.617553 0.094497 0.160962
C22   C     C_R   0.504304 0.737526 0.500512 0.797990
C23   C     C_R   0.699357 0.500568 0.526151 0.791353
C24   C     C_R   0.812087 0.505015 0.541469 -0.043094
C25   C     C_R   0.188182 0.492507 0.459840 -0.042656
C26   C     C_R   0.027059 0.420769 0.335742 -0.209036
C27   C     C_R   0.134230 0.434850 0.343095 -0.187972
C28   C     C_R   0.134656 0.539102 0.567537 -0.251260
Cu1   Cu    Cu3+1 0.499990 0.499980 0.640670 0.941881
Cu2   Cu    Cu3+1 0.500010 0.500020 0.359330 0.981795
H1    H     H_    0.824776 0.402360 0.351604 0.188077
H2    H     H_    0.392127 0.882578 0.791238 0.098630
H3    H     H_    0.316758 0.108435 0.617004 0.211469
H4    H     H_    0.394079 0.105538 0.793572 0.146012
H5    H     H_    0.395727 0.349423 0.116451 0.132514
H6    H     H_    0.396333 0.348805 0.856603 0.133490
H7    H     H_    0.707228 0.548821 0.891615 0.238349
H8    H     H_    0.674582 0.717574 0.894410 0.161995
H9    H     H_    0.688167 0.706589 0.146835 0.135429
H10   H     H_    0.824943 0.608212 0.735962 0.145294
H11   H     H_    0.986353 0.374531 0.245908 0.145454
H12   H     H_    0.013898 0.623458 0.755085 0.141214
H13   H     H_    0.175200 0.397828 0.259671 0.150183
H14   H     H_    0.176508 0.584676 0.657143 0.144853
H15   H     H_    0.591051 0.119338 0.317123 0.182757
N1    N     N_R   0.500660 0.500930 0.148010 -0.168133
N2    N     N_R   0.500660 0.500890 0.852110 -0.175004
O1    O     O_R   0.500000 0.319640 0.618810 -0.574261
O2    O     O_R   0.500010 0.319680 0.381230 -0.586074
O3    O     O_R   0.348990 0.499960 0.599490 -0.594156
O4    O     O_R   0.349000 0.500000 0.361910 -0.584863
O5    O     O_R   0.499990 0.680320 0.618770 -0.593595
O6    O     O_R   0.500000 0.680360 0.381190 -0.570111
O7    O     O_R   0.651000 0.500000 0.638090 -0.590037
O8    O     O_R   0.651010 0.500040 0.400510 -0.532292
O9    O     O_3   0.724432 0.516533 0.148532 -0.695427
H16   H     H_    0.798104 0.541621 0.146874 0.318723
O10   O     O_3   0.619300 0.883377 0.303103 -0.743459
H17   H     H_    0.650473 0.806934 0.345762 0.312567
O11   O     O_3   0.300679 0.877060 0.594040 -0.704435
H18   H     H_    0.301017 0.786413 0.610815 0.322032

loop_
_geom_bond_atom_site_label_1
_geom_bond_atom_site_label_2
_ccdc_geom_bond_type
C21   O9    S    
C12   O3    A    
C23   C24   S    
C1    O1    A    
C23   O8    A    
Cu1   Cu2   S    
C25   C27   A    
C1    C8    S    
C14   O11   S    
Cu2   O8    S    
C15   H4    S    
C19   C20   S    
C21   H9    S    
C12   C25   S    
Cu2   O4    S    
C10   C11   A    
C18   N2    A    
C20   C21   S    
C7    C15   S    
C17   C18   A    
C7    C8    A    
C13   C14   S    
O9    H16   S    
C25   C28   A    
C9    H15   S    
C20   H7    S    
C11   C13   A    
C26   C27   A    
C2    C6    A    
C5    C24   A    
C1    O2    A    
Cu1   N2    S    
C16   C19   A    
C9    C10   A    
C17   H5    S    
C10   O10   S    
Cu2   O2    S    
C28   H14   S    
C2    C3    A    
C22   O6    A    
Cu1   O3    S    
C5    C6    A    
C4    C24   A    
Cu2   O6    S    
C19   N2    A    
C4    H1    S    
Cu1   O7    S    
Cu1   O1    S    
C3    C4    A    
C27   H13   S    
C7    C13   A    
C12   O4    A    
C20   H8    S    
C17   N1    A    
C23   O7    A    
C22   O5    A    
C6    H12   S    
C5    H10   S    
C16   N1    A    
C16   C21   S    
C14   C15   S    
C8    C9    A    
C2    C28   A    
C11   C22   S    
O10   H17   S    
C18   H6    S    
Cu2   N1    S    
C3    C26   A    
C26   H11   S    
C14   H2    S    
O11   H18   S    
C15   H3    S    
Cu1   O5    S    
