data_mof_unit_58589.cif
_audit_creation_date              2012-12-10T18:50:46-0500
_audit_creation_method            fapswitch 2.2
_symmetry_space_group_name_H-M    P1
_symmetry_Int_Tables_number       1
_space_group_crystal_system       triclinic
_cell_length_a                    10.586142
_cell_length_b                    9.95362
_cell_length_c                    15.769403
_cell_angle_alpha                 89.994978
_cell_angle_beta                  92.109798
_cell_angle_gamma                 89.957496
_cell_volume                      1660.50198483

loop_
_atom_site_label
_atom_site_type_symbol
_atom_type_description
_atom_site_fract_x
_atom_site_fract_y
_atom_site_fract_z
_atom_type_partial_charge
C1    C     C_R   0.260828 0.500035 0.500065 0.896731
C2    C     C_3   0.644501 0.491884 0.952828 -0.187091
C3    C     C_3   0.646041 0.502698 0.055079 0.049596
C4    C     C_1   0.499166 0.499715 0.824634 0.127199
C5    C     C_1   0.500655 0.499351 0.175545 -0.155739
C6    C     C_1   0.500083 0.499838 0.250517 -0.164129
C7    C     C_R   0.069094 0.474621 0.576825 0.044636
C8    C     C_R   0.061448 0.525895 0.423878 0.038409
C9    C     C_R   0.938492 0.474636 0.576496 0.033963
C10   C     C_R   0.930204 0.526078 0.423817 0.047070
C11   C     C_R   0.871575 0.500052 0.500131 -0.053609
C12   C     C_R   0.128349 0.500123 0.500332 -0.070125
C13   C     C_R   0.576362 0.071644 0.556355 -0.015032
C14   C     C_R   0.583838 0.928042 0.551292 0.007011
C15   C     C_R   0.499642 0.499988 0.338795 0.929743
C16   C     C_R   0.416258 0.928316 0.448534 0.008040
C17   C     C_R   0.423755 0.071902 0.443527 0.019023
C18   C     C_R   0.739118 0.499989 0.500189 0.952467
C19   C     C_R   0.500141 0.499993 0.661249 0.870851
C20   C     C_3   0.426391 0.632105 0.049187 -0.102297
C21   C     C_3   0.435641 0.360213 0.050173 -0.158563
C22   C     C_3   0.418070 0.370055 0.947899 -0.021248
C23   C     C_3   0.430877 0.637868 0.946252 -0.040207
C24   C     C_1   0.499494 0.499955 0.749575 -0.035108
C25   C     C_3   0.501053 0.498622 0.083297 0.047529
C26   C     C_3   0.499241 0.499843 0.916697 0.068313
N1    N     N_R   0.499970 0.857200 0.499980 -0.187392
N2    N     N_R   0.499970 0.142800 0.499980 -0.185931
O1    O     O_R   0.316750 0.614620 0.499990 -0.624630
O2    O     O_R   0.316750 0.385380 0.499990 -0.655691
O3    O     O_R   0.499990 0.614720 0.377140 -0.640913
O4    O     O_R   0.499990 0.385280 0.377140 -0.634531
O5    O     O_R   0.683220 0.614710 0.500000 -0.629828
O6    O     O_R   0.683220 0.385290 0.500000 -0.646969
O7    O     O_R   0.499980 0.614620 0.622860 -0.638583
O8    O     O_R   0.499980 0.385380 0.622860 -0.619832
Zn1   Zn    Zn3+2 0.499980 0.653120 0.500000 0.950512
Zn2   Zn    Zn3+2 0.499980 0.346880 0.500000 0.941971
N3    N     N_3   0.300636 0.644973 0.908362 -0.457141
H1    H     H_    0.301036 0.647489 0.841993 0.202488
H2    H     H_    0.255669 0.733696 0.926636 0.194193
N4    N     N_3   0.283118 0.391301 0.923396 -0.441504
H3    H     H_    0.273415 0.404201 0.857579 0.196451
H4    H     H_    0.228406 0.306174 0.934439 0.228551
C27   C     C_2   0.313661 0.856425 0.400984 0.534012
H5    H     H_    0.330085 0.761762 0.370501 0.114638
O9    O     O_2   0.206765 0.902749 0.396479 -0.559532
C28   C     C_2   0.353621 0.144057 0.374354 0.512614
H6    H     H_    0.307597 0.238500 0.385322 0.108295
O10   O     O_2   0.348277 0.098291 0.302450 -0.562064
C29   C     C_2   0.287121 0.625188 0.075489 0.302619
H7    H     H_    0.220189 0.560863 0.041488 0.145958
O11   O     O_2   0.246549 0.690331 0.134395 -0.578612
C30   C     C_2   0.309712 0.331843 0.092471 0.339306
H8    H     H_    0.276759 0.394306 0.143370 0.103836
O12   O     O_2   0.249584 0.229626 0.076143 -0.541494
C31   C     C_2   0.513506 0.240369 0.086653 0.488857
H9    H     H_    0.520683 0.227991 0.155187 0.118798
O13   O     O_2   0.568536 0.158062 0.044270 -0.567141
C32   C     C_2   0.480426 0.757493 0.097293 0.474666
H10   H     H_    0.457606 0.772471 0.163236 0.144236
O14   O     O_2   0.554967 0.837113 0.068295 -0.563867
C33   C     C_2   0.447623 0.235445 0.904546 0.462606
H11   H     H_    0.410144 0.143673 0.931036 0.134630
O15   O     O_2   0.497617 0.227265 0.836313 -0.513008
C34   C     C_2   0.488565 0.767626 0.910764 0.416991
H12   H     H_    0.461109 0.863851 0.936406 0.157478
O16   O     O_2   0.542600 0.770547 0.843695 -0.567644
N5    N     N_3   0.707570 0.628131 0.085458 -0.419914
H13   H     H_    0.804025 0.626348 0.073077 0.182838
H14   H     H_    0.704684 0.634899 0.151541 0.209879
N6    N     N_3   0.720923 0.392315 0.095060 -0.465303
H15   H     H_    0.724031 0.401556 0.161145 0.198178
H16   H     H_    0.815024 0.398977 0.077294 0.182173
C35   C     C_2   0.725957 0.605936 0.916560 0.493455
H17   H     H_    0.720793 0.706958 0.941592 0.149945
O17   O     O_2   0.799538 0.588215 0.859653 -0.534497
C36   C     C_2   0.704958 0.359236 0.922849 0.535282
H18   H     H_    0.724618 0.275909 0.964928 0.143012
O18   O     O_2   0.729636 0.341465 0.848518 -0.479303
N7    N     N_3   0.139933 0.450638 0.654838 -0.454868
H19   H     H_    0.196686 0.365803 0.647316 0.208850
H20   H     H_    0.198596 0.533290 0.667380 0.181034
N8    N     N_3   0.127977 0.549734 0.347501 -0.466220
H21   H     H_    0.101483 0.476523 0.302808 0.193610
H22   H     H_    0.102004 0.644000 0.323427 0.237958
N9    N     N_3   0.872729 0.451034 0.653144 -0.435105
H23   H     H_    0.900008 0.357077 0.677189 0.240088
H24   H     H_    0.900803 0.524168 0.697515 0.264271
N10   N     N_3   0.855377 0.550953 0.347526 -0.467026
H25   H     H_    0.877467 0.478738 0.302295 0.180752
H26   H     H_    0.878226 0.645827 0.324224 0.212157
C37   C     C_2   0.647117 0.143542 0.625313 0.568666
H27   H     H_    0.690088 0.239515 0.614776 0.106842
O19   O     O_2   0.656418 0.095833 0.696622 -0.483114
C38   C     C_2   0.686746 0.855757 0.598406 0.556799
H28   H     H_    0.670206 0.761697 0.629640 0.124919
O20   O     O_2   0.794008 0.901025 0.601656 -0.560190

loop_
_geom_bond_atom_site_label_1
_geom_bond_atom_site_label_2
_ccdc_geom_bond_type
C34   O16   D    
N9    H23   S    
C33   O15   D    
C11   C18   S    
C37   H27   S    
C17   C28   S    
N7    H19   S    
N10   H25   S    
C15   O4    A    
N3    H2    S    
C27   H5    S    
C23   C34   S    
C3    N5    S    
N8    H22   S    
C20   C29   S    
C19   O8    A    
C5    C6    T    
C4    C24   T    
C36   O18   D    
C31   O13   D    
C20   C25   S    
O2    Zn2   S    
C32   O14   D    
C27   O9    D    
C23   C26   S    
C6    C15   S    
C16   C17   A    
C38   O20   D    
C13   N2    A    
O4    Zn2   S    
C14   N1    A    
C20   C32   S    
C16   N1    A    
C28   O10   D    
C34   H12   S    
C22   C33   S    
C37   O19   D    
C8    N8    S    
C13   C14   A    
C1    C12   S    
N4    H4    S    
C14   C38   S    
N7    H20   S    
C18   O6    A    
C7    C12   A    
C30   O12   D    
N5    H14   S    
C29   H7    S    
C3    C25   S    
N8    H21   S    
N6    H16   S    
N3    H1    S    
C36   H18   S    
O5    Zn1   S    
O3    Zn1   S    
C13   C37   S    
C32   H10   S    
C29   O11   D    
C35   H17   S    
C21   C31   S    
C2    C36   S    
C9    C11   A    
N10   H26   S    
C20   C23   S    
N2    Zn2   S    
C8    C12   A    
C38   H28   S    
C1    O1    A    
C2    C26   S    
C35   O17   D    
C5    C25   S    
C28   H6    S    
C7    N7    S    
N9    H24   S    
N4    H3    S    
C7    C9    A    
C21   C25   S    
C30   H8    S    
O7    Zn1   S    
O6    Zn2   S    
C17   N2    A    
C19   C24   S    
N6    H15   S    
C16   C27   S    
C4    C26   S    
C15   O3    A    
C21   C30   S    
O8    Zn2   S    
C3    N6    S    
C19   O7    A    
C9    N9    S    
C31   H9    S    
C22   N4    S    
N1    Zn1   S    
C23   N3    S    
C1    O2    A    
C2    C3    S    
N5    H13   S    
C18   O5    A    
C10   C11   A    
C33   H11   S    
C10   N10   S    
C8    C10   A    
C22   C26   S    
O1    Zn1   S    
C21   C22   S    
C2    C35   S    
