data_mof_unit_31876.cif
_audit_creation_date              2012-12-10T20:46:51-0500
_audit_creation_method            fapswitch 2.2
_symmetry_space_group_name_H-M    P1
_symmetry_Int_Tables_number       1
_space_group_crystal_system       triclinic
_cell_length_a                    12.863039
_cell_length_b                    8.93373
_cell_length_c                    8.118163
_cell_angle_alpha                 89.972806
_cell_angle_beta                  97.615932
_cell_angle_gamma                 90.009958
_cell_volume                      924.668571499

loop_
_atom_site_label
_atom_site_type_symbol
_atom_type_description
_atom_site_fract_x
_atom_site_fract_y
_atom_site_fract_z
_atom_type_partial_charge
C1    C     C_R   0.499956 0.218031 0.500014 0.940169
C2    C     C_R   0.866116 0.596226 0.673353 -0.269274
C3    C     C_R   0.131091 0.590451 0.549315 0.039552
C4    C     C_R   0.867676 0.420936 0.443371 0.024986
C5    C     C_R   0.025847 0.555787 0.555339 0.140847
C6    C     C_R   0.974146 0.449985 0.441480 0.106180
C7    C     C_1   0.499931 0.065196 0.500022 -0.192211
C8    C     C_1   0.499932 0.934798 0.499960 -0.194169
C9    C     C_R   0.499976 0.781967 0.499974 0.921037
C10   C     C_R   0.297930 0.504443 0.466913 0.862696
C11   C     C_R   0.702206 0.496947 0.532963 0.906809
C12   C     C_R   0.814225 0.500196 0.554522 -0.043655
C13   C     C_R   0.186013 0.505009 0.443925 -0.073056
C14   C     C_R   0.029337 0.377934 0.326697 -0.228783
C15   C     C_R   0.971571 0.623973 0.674097 -0.203966
C16   C     C_R   0.135000 0.404050 0.329674 -0.223639
H1    H     H_    0.823839 0.655787 0.759972 0.169362
H2    H     H_    0.178077 0.340027 0.247661 0.167046
H3    H     H_    0.992790 0.297616 0.237555 0.148244
H4    H     H_    0.009456 0.700854 0.766207 0.170392
H5    H     H_    0.815081 0.345685 0.210496 0.196975
H6    H     H_    0.847875 0.208380 0.354533 0.178323
H7    H     H_    0.253731 0.738347 0.616157 0.190043
H8    H     H_    0.136018 0.808368 0.617215 0.169390
N1    N     N_1   0.500020 0.500000 0.073640 -0.031107
N2    N     N_1   0.499980 0.500000 0.926360 -0.031055
N3    N     N_3   0.812048 0.312925 0.333430 -0.449849
N4    N     N_3   0.180178 0.711828 0.648876 -0.446957
O1    O     O_R   0.499990 0.285340 0.636850 -0.615206
O2    O     O_R   0.500010 0.714660 0.363150 -0.614311
O3    O     O_R   0.500010 0.285340 0.363150 -0.612949
O4    O     O_R   0.499990 0.714660 0.636850 -0.620744
O5    O     O_R   0.346350 0.500000 0.614250 -0.606431
O6    O     O_R   0.653650 0.500000 0.385750 -0.600881
O7    O     O_R   0.346360 0.500000 0.340500 -0.624224
O8    O     O_R   0.653640 0.500000 0.659500 -0.633859
Zn1   Zn    Zn3+2 0.499990 0.500000 0.682780 0.989315
Zn2   Zn    Zn3+2 0.500010 0.500000 0.317220 0.994960

loop_
_geom_bond_atom_site_label_1
_geom_bond_atom_site_label_2
_ccdc_geom_bond_type
C11   C12   S    
N2    Zn1   S    
C10   O7    A    
N1    Zn2   S    
C4    C12   A    
C3    C13   A    
O3    Zn2   S    
C2    C12   A    
O7    Zn2   S    
C1    O1    A    
H5    N3    S    
C7    C8    T    
O6    Zn2   S    
O4    Zn1   S    
C2    H1    S    
C2    C15   A    
C5    C6    A    
C9    O2    A    
C16   H2    S    
C11   O8    A    
C10   O5    A    
H6    N3    S    
C15   H4    S    
C14   C16   A    
C5    C15   A    
C6    C14   A    
H7    N4    S    
C1    O3    A    
C4    N3    S    
O2    Zn2   S    
C3    N4    S    
C4    C6    A    
C13   C16   A    
O1    Zn1   S    
O8    Zn1   S    
C9    O4    A    
N1    N2    T    
C1    C7    S    
C14   H3    S    
C11   O6    A    
O5    Zn1   S    
H8    N4    S    
C8    C9    S    
C3    C5    A    
C10   C13   S    
