data_mof_unit_51227.cif
_audit_creation_date              2012-10-26T18:54:13-0400
_audit_creation_method            fapswitch 2.2
_symmetry_space_group_name_H-M    P1
_symmetry_Int_Tables_number       1
_space_group_crystal_system       triclinic
_cell_length_a                    14.695336
_cell_length_b                    14.712888
_cell_length_c                    23.517493
_cell_angle_alpha                 76.828003
_cell_angle_beta                  102.820443
_cell_angle_gamma                 114.771048
_cell_volume                      4449.22326416

loop_
_atom_site_label
_atom_site_type_symbol
_atom_type_description
_atom_site_fract_x
_atom_site_fract_y
_atom_site_fract_z
_atom_type_partial_charge
C1    C     C_R   0.880344 0.312302 0.509422 0.549396
C2    C     C_R   0.927022 0.520718 0.284786 -0.142670
C3    C     C_R   0.072484 0.479491 0.774367 -0.056775
C4    C     C_R   0.927470 0.520411 0.225641 -0.056800
C5    C     C_R   0.998043 0.500435 0.790640 0.239689
C6    C     C_R   0.001915 0.499468 0.209372 0.239792
C7    C     C_R   0.812762 0.205088 0.510771 -0.000244
C8    C     C_R   0.187231 0.795270 0.481989 -0.000635
C9    C     C_R   0.783349 0.030338 0.511733 -0.128170
C10   C     C_R   0.215590 0.972985 0.461925 -0.128113
C11   C     C_R   0.850234 0.130175 0.515267 -0.132272
C12   C     C_R   0.119675 0.687715 0.489761 0.550263
C13   C     C_R   0.149271 0.871696 0.468021 -0.132595
C14   C     C_R   0.708272 0.178963 0.503695 -0.126923
C15   C     C_R   0.291677 0.821127 0.488503 -0.130452
C16   C     C_R   0.999566 0.499922 0.608991 0.554217
C17   C     C_R   0.000429 0.500067 0.391010 0.553652
C18   C     C_R   0.639118 0.079951 0.497136 0.035199
C19   C     C_R   0.359982 0.922591 0.480694 0.034223
C20   C     C_R   0.678373 0.004751 0.502526 0.052147
C21   C     C_R   0.320419 0.998945 0.468853 0.052591
C22   C     C_R   0.532457 0.053623 0.485996 0.034305
C23   C     C_R   0.923785 0.520921 0.747326 -0.057510
C24   C     C_R   0.466388 0.950033 0.486138 0.034956
C25   C     C_R   0.508746 0.877673 0.490586 -0.132454
C26   C     C_R   0.489693 0.127538 0.473359 -0.133842
C27   C     C_R   0.612681 0.904939 0.498282 -0.128932
C28   C     C_R   0.385710 0.100412 0.464399 -0.128305
C29   C     C_R   0.716639 0.670559 0.403464 -0.156991
C30   C     C_R   0.283670 0.329901 0.596785 -0.155509
C31   C     C_R   0.797695 0.640071 0.418252 0.040751
C32   C     C_R   0.202488 0.360188 0.581901 0.040922
C33   C     C_R   0.714372 0.508489 0.491328 0.034978
C34   C     C_R   0.076184 0.479004 0.252688 -0.057827
C35   C     C_R   0.285578 0.491486 0.508621 0.035513
C36   C     C_R   0.628731 0.535192 0.478120 0.003288
C37   C     C_R   0.371346 0.464986 0.521925 0.003383
C38   C     C_R   0.632277 0.618904 0.433396 0.038794
C39   C     C_R   0.367954 0.381484 0.566783 0.039172
C40   C     C_R   0.078806 0.572677 0.120006 0.399887
C41   C     C_R   0.921154 0.427219 0.880007 0.399931
C42   C     C_R   0.541072 0.483169 0.507749 0.021843
C43   C     C_R   0.459014 0.517034 0.492300 0.023107
C44   C     C_R   0.467582 0.601877 0.447962 -0.143971
C45   C     C_R   0.924055 0.520698 0.688093 -0.145733
C46   C     C_R   0.532564 0.398408 0.552140 -0.142488
C47   C     C_R   0.552231 0.651204 0.419100 -0.129331
C48   C     C_R   0.448064 0.349288 0.581136 -0.124582
C49   C     C_R   0.924527 0.425527 0.119852 0.399696
C50   C     C_R   0.075435 0.574366 0.880163 0.399851
C51   C     C_R   0.922037 0.424474 0.060028 0.028866
C52   C     C_R   0.077926 0.575418 0.939986 0.028879
C53   C     C_R   0.000441 0.499696 0.030109 -0.028331
C54   C     C_R   0.999521 0.500196 0.969905 -0.028328
C55   C     C_R   0.079741 0.574439 0.060242 0.029142
C56   C     C_R   0.075925 0.479256 0.311918 -0.145973
C57   C     C_R   0.920220 0.425454 0.939773 0.029191
C58   C     C_R   0.843338 0.350249 0.029566 -0.123496
C59   C     C_R   0.156625 0.649642 0.970449 -0.123447
C60   C     C_R   0.842434 0.350740 0.970054 -0.123442
C61   C     C_R   0.157528 0.649152 0.029961 -0.123468
C62   C     C_R   0.998779 0.499943 0.671494 0.002748
C63   C     C_R   0.001202 0.500017 0.328512 0.003084
C64   C     C_R   0.072943 0.479212 0.715220 -0.142678
Cu1   Cu    Cu3+1 0.081740 0.475680 0.515360 0.936610
Cu2   Cu    Cu3+1 0.918260 0.524320 0.484640 0.936771
H1    H     H_    0.782190 0.291589 0.051571 0.168403
H2    H     H_    0.719600 0.447764 0.525607 0.116630
H3    H     H_    0.136925 0.319845 0.604599 0.126811
H4    H     H_    0.863325 0.680492 0.395615 0.125691
H5    H     H_    0.720201 0.734639 0.369110 0.099085
H6    H     H_    0.280260 0.266019 0.631265 0.099968
H7    H     H_    0.410012 0.632694 0.434439 0.092711
H8    H     H_    0.590111 0.367560 0.565658 0.095272
H9    H     H_    0.780649 0.292412 0.947904 0.168237
H10   H     H_    0.219313 0.707481 0.052110 0.168230
H11   H     H_    0.866121 0.537368 0.759616 0.133205
H12   H     H_    0.217773 0.708302 0.948444 0.168436
H13   H     H_    0.133851 0.462557 0.240401 0.132699
H14   H     H_    0.865904 0.536830 0.655401 0.130962
H15   H     H_    0.134086 0.463143 0.344611 0.130364
H16   H     H_    0.131370 0.462808 0.703812 0.134171
H17   H     H_    0.868592 0.537121 0.296192 0.134040
H18   H     H_    0.129873 0.463211 0.807671 0.133848
H19   H     H_    0.870073 0.536674 0.192337 0.133779
H20   H     H_    0.641810 0.847134 0.501242 0.115871
H21   H     H_    0.356261 0.159494 0.454710 0.114837
H22   H     H_    0.318242 0.760489 0.501434 0.121521
H23   H     H_    0.813674 0.973248 0.515429 0.109234
H24   H     H_    0.682815 0.237508 0.504048 0.115946
H25   H     H_    0.068658 0.853302 0.462628 0.128381
H26   H     H_    0.930913 0.148856 0.520775 0.129760
H27   H     H_    0.184968 0.031145 0.452198 0.109414
H28   H     H_    0.463621 0.799336 0.486429 0.101898
H29   H     H_    0.534269 0.207772 0.468273 0.107920
H30   H     H_    0.555214 0.715886 0.385280 0.118302
H31   H     H_    0.445220 0.284808 0.615089 0.119062
H32   H     H_    0.280227 0.552035 0.474233 0.116772
N1    N     N_R   0.001953 0.499021 0.148454 -0.398607
N2    N     N_R   0.998007 0.500874 0.851560 -0.398599
N3    N     N_R   0.795430 0.560810 0.461550 -0.233126
N4    N     N_R   0.204570 0.439190 0.538450 -0.233502
O1    O     O_R   0.977900 0.338110 0.520250 -0.505833
O2    O     O_2   0.846478 0.355413 0.850666 -0.498453
O3    O     O_2   0.850581 0.353387 0.149355 -0.496567
O4    O     O_2   0.149382 0.646505 0.850661 -0.496342
O5    O     O_R   0.022100 0.661890 0.479750 -0.505572
O6    O     O_R   0.839850 0.379180 0.494310 -0.509486
O7    O     O_R   0.160150 0.620820 0.505690 -0.509830
O8    O     O_R   0.069020 0.479430 0.595090 -0.501002
O9    O     O_R   0.930980 0.520570 0.404910 -0.501401
O10   O     O_R   0.930970 0.520500 0.569150 -0.504272
O11   O     O_R   0.069030 0.479500 0.430850 -0.505014
O12   O     O_2   0.153480 0.644486 0.149346 -0.498403

loop_
_geom_bond_atom_site_label_1
_geom_bond_atom_site_label_2
_ccdc_geom_bond_type
C34   C56   A    
C8    C13   A    
C23   C45   A    
C14   C18   A    
C36   C42   A    
Cu2   O5    S    
C35   N4    A    
C40   N1    A    
C16   O8    A    
C56   H15   S    
C3    C64   A    
C15   C19   A    
C48   H31   S    
C33   N3    A    
C31   N3    A    
C22   C24   A    
C19   C21   A    
C58   C60   A    
C45   C62   A    
C33   C36   A    
C42   C46   A    
C14   H24   S    
C62   C64   A    
C11   H26   S    
C7    C14   A    
C40   O12   S    
C49   C51   A    
C29   C38   A    
C50   C52   A    
C47   H30   S    
Cu2   O9    S    
C35   H32   S    
C1    O1    A    
C44   C47   A    
C25   H28   S    
C10   C21   A    
C1    C7    S    
C13   H25   S    
Cu2   N3    S    
C2    H17   S    
C16   C62   S    
Cu1   N4    S    
C17   O9    A    
C59   H12   S    
C12   O7    A    
C52   C54   A    
C7    C11   A    
C53   C55   A    
C61   H10   S    
Cu1   O8    S    
C46   C48   A    
C56   C63   A    
C59   C61   A    
C17   O11   A    
C24   C25   A    
C4    C6    A    
C9    H23   S    
C57   C60   A    
C49   O3    S    
C4    H19   S    
C10   H27   S    
C53   C54   A    
C6    C34   A    
C51   C53   A    
C37   C43   A    
C27   H20   S    
C2    C4    A    
C43   C44   A    
C52   C59   A    
C34   H13   S    
C49   N1    A    
C9    C20   A    
C5    C23   A    
C5    N2    S    
C8    C12   S    
C40   C55   A    
Cu1   O7    S    
C28   H21   S    
C41   N2    A    
C51   C58   A    
C23   H11   S    
C9    C11   A    
C64   H16   S    
C38   C47   A    
C21   C28   A    
C8    C15   A    
C32   N4    A    
C42   C43   A    
Cu1   O1    S    
C46   H8    S    
C2    C63   A    
C16   O10   A    
C26   H29   S    
C35   C37   A    
C18   C22   A    
Cu1   O11   S    
Cu2   O6    S    
C3    C5    A    
C10   C13   A    
C12   O5    A    
C30   H6    S    
C32   H3    S    
C20   C27   A    
C25   C27   A    
C60   H9    S    
C26   C28   A    
C41   O2    S    
C6    N1    S    
C31   H4    S    
C36   C38   A    
C19   C24   A    
C41   C57   A    
C37   C39   A    
C17   C63   S    
C30   C32   A    
C55   C61   A    
C30   C39   A    
C45   H14   S    
C18   C20   A    
C44   H7    S    
C50   N2    A    
C1    O6    A    
C58   H1    S    
C29   C31   A    
Cu1   Cu2   S    
C22   C26   A    
C3    H18   S    
C50   O4    S    
C39   C48   A    
Cu2   O10   S    
C33   H2    S    
C15   H22   S    
C29   H5    S    
C54   C57   A    
