data_mof_unit_59375.cif
_audit_creation_date              2012-10-26T20:34:00-0400
_audit_creation_method            fapswitch 2.2
_symmetry_space_group_name_H-M    P1
_symmetry_Int_Tables_number       1
_space_group_crystal_system       triclinic
_cell_length_a                    15.871023
_cell_length_b                    9.115199
_cell_length_c                    7.835312
_cell_angle_alpha                 89.340237
_cell_angle_beta                  88.916114
_cell_angle_gamma                 91.869488
_cell_volume                      1132.62573226

loop_
_atom_site_label
_atom_site_type_symbol
_atom_type_description
_atom_site_fract_x
_atom_site_fract_y
_atom_site_fract_z
_atom_type_partial_charge
C1    C     C_R   0.500061 0.220175 0.500605 0.545161
C2    C     C_3   0.050656 0.420309 0.315937 -0.149969
C3    C     C_3   0.938865 0.356156 0.634627 -0.151548
C4    C     C_3   0.950579 0.418826 0.308250 -0.142993
C5    C     C_1   0.749577 0.503011 0.493355 -0.019809
C6    C     C_1   0.250551 0.475516 0.506349 0.000062
C7    C     C_3   0.082774 0.448514 0.504411 -0.020463
C8    C     C_3   0.916061 0.469021 0.488934 0.001839
C9    C     C_3   0.959074 0.621151 0.530187 0.706894
C10   C     C_3   0.055151 0.607570 0.552291 0.728615
C11   C     C_R   0.877793 0.220611 0.644283 0.015624
C12   C     C_1   0.824735 0.492363 0.489129 0.020351
C13   C     C_R   0.894860 0.083308 0.573871 -0.035241
C14   C     C_R   0.831748 0.972230 0.569561 -0.048023
C15   C     C_R   0.751818 0.994149 0.638694 -0.111859
C16   C     C_R   0.734796 0.126643 0.715695 -0.111297
C17   C     C_R   0.797607 0.237088 0.722173 -0.091010
C18   C     C_R   0.896317 0.295955 0.224541 0.031746
C19   C     C_R   0.918875 0.149032 0.207326 -0.098201
C20   C     C_R   0.861093 0.040912 0.153014 -0.111859
C21   C     C_R   0.779171 0.077401 0.114368 -0.094122
C22   C     C_R   0.756620 0.223561 0.119273 -0.106689
C23   C     C_1   0.175237 0.458475 0.508806 0.022367
C24   C     C_R   0.815687 0.332060 0.165630 -0.096158
C25   C     C_R   0.073386 0.190850 0.697366 0.004927
C26   C     C_R   0.032025 0.112804 0.833220 -0.088525
C27   C     C_R   0.061703 0.980357 0.895655 -0.035200
C28   C     C_R   0.136648 0.926436 0.830924 0.007568
C29   C     C_R   0.181883 0.005224 0.704574 -0.072225
C30   C     C_R   0.152224 0.137997 0.642709 -0.102196
C31   C     C_R   0.105619 0.324518 0.200890 0.012933
C32   C     C_R   0.128804 0.183223 0.250919 -0.098668
C33   C     C_R   0.196649 0.114728 0.172730 -0.117643
C34   C     C_R   0.339896 0.494572 0.501733 0.540623
C35   C     C_R   0.242230 0.185503 0.040362 -0.094209
C36   C     C_R   0.218032 0.322463 0.982049 -0.088125
C37   C     C_R   0.150276 0.391044 0.060325 -0.097242
C38   C     C_R   0.660106 0.504929 0.498232 0.534415
C39   C     C_1   0.500395 0.934688 0.499202 -0.062777
C40   C     C_1   0.500304 0.065395 0.500848 -0.063314
C41   C     C_R   0.500337 0.779866 0.499397 0.548242
C42   C     C_3   0.038618 0.341227 0.644604 -0.157748
Cu1   Cu    Cu3+1 0.500000 0.500010 0.669080 0.996797
Cu2   Cu    Cu3+1 0.500000 0.500010 0.330920 1.011365
F1    F     F_    0.075931 0.639071 0.719344 -0.642767
F2    F     F_    0.097849 0.713308 0.450833 -0.604567
F3    F     F_    0.923839 0.677838 0.678170 -0.617244
F4    F     F_    0.945568 0.719545 0.397763 -0.660652
H1    H     H_    0.065831 0.529219 0.255379 0.171962
H2    H     H_    0.978717 0.112711 0.241122 0.119032
H3    H     H_    0.879427 0.927792 0.145441 0.167285
H4    H     H_    0.733908 0.993169 0.076437 0.125466
H5    H     H_    0.693848 0.253527 0.083602 0.125777
H6    H     H_    0.796864 0.445053 0.161226 0.123927
H7    H     H_    0.976370 0.155654 0.892233 0.129104
H8    H     H_    0.027886 0.921760 0.997923 0.148317
H9    H     H_    0.161298 0.826475 0.883013 0.165406
H10   H     H_    0.241567 0.965756 0.657994 0.117182
H11   H     H_    0.192746 0.195764 0.552396 0.108780
H12   H     H_    0.054314 0.396289 0.766073 0.170914
H13   H     H_    0.096088 0.126130 0.353769 0.138437
H14   H     H_    0.214243 0.006963 0.216031 0.140382
H15   H     H_    0.295252 0.133008 0.980816 0.115924
H16   H     H_    0.252578 0.376723 0.877684 0.135753
H17   H     H_    0.135769 0.500115 0.015873 0.152309
H18   H     H_    0.937947 0.511764 0.219227 0.166583
H19   H     H_    0.922979 0.413247 0.755839 0.153949
H20   H     H_    0.955972 0.061726 0.519431 0.159971
H21   H     H_    0.843358 0.869778 0.508699 0.224261
H22   H     H_    0.703241 0.908251 0.632958 0.119452
H23   H     H_    0.672948 0.143972 0.770971 0.123169
H24   H     H_    0.782342 0.338811 0.783721 0.123970
N1    N     N_1   0.500000 0.499970 0.076820 -0.086441
N2    N     N_1   0.500000 0.499970 0.923180 -0.087457
O1    O     O_R   0.500000 0.288400 0.642760 -0.505407
O2    O     O_R   0.500000 0.288400 0.357240 -0.496632
O3    O     O_R   0.379440 0.500020 0.642850 -0.507915
O4    O     O_R   0.379440 0.500020 0.357150 -0.487463
O5    O     O_R   0.620560 0.500020 0.642850 -0.501478
O6    O     O_R   0.620560 0.500020 0.357150 -0.504818
O7    O     O_R   0.500000 0.711620 0.642810 -0.494909
O8    O     O_R   0.500000 0.711620 0.357190 -0.491978

loop_
_geom_bond_atom_site_label_1
_geom_bond_atom_site_label_2
_ccdc_geom_bond_type
C8    C9    S    
C7    C10   S    
C3    C42   S    
N1    N2    T    
C19   C20   A    
C4    C8    S    
C26   H7    S    
C39   C41   S    
C28   H9    S    
C26   C27   A    
C18   C24   A    
C21   C22   A    
C36   C37   A    
C32   H13   S    
C20   H3    S    
Cu2   O8    S    
C34   O3    A    
C38   O5    A    
C6    C23   T    
C24   H6    S    
C15   C16   A    
C18   C19   A    
C7    C42   S    
Cu2   O2    S    
C1    C40   S    
C11   C17   A    
C2    C7    S    
C16   C17   A    
C37   H17   S    
C10   F2    S    
C9    C10   S    
C4    C18   S    
Cu1   N2    S    
C13   C14   A    
C16   H23   S    
C22   H5    S    
Cu1   O1    S    
C1    O1    A    
Cu2   O6    S    
C5    C12   T    
C3    C8    S    
C42   H12   S    
C39   C40   T    
C27   H8    S    
C33   H14   S    
C25   C26   A    
C6    C34   S    
C2    C31   S    
C35   C36   A    
C2    C4    S    
Cu1   Cu2   S    
C29   C30   A    
C2    H1    S    
C31   C32   A    
C8    C12   S    
C41   O7    A    
C30   H11   S    
C10   F1    S    
C20   C21   A    
C9    F4    S    
C9    F3    S    
Cu1   O7    S    
C14   H21   S    
C22   C24   A    
C25   C30   A    
C15   H22   S    
C28   C29   A    
C1    O2    A    
C3    H19   S    
C25   C42   S    
Cu1   O3    S    
C32   C33   A    
Cu2   O4    S    
C36   H16   S    
C34   O4    A    
C4    H18   S    
C11   C13   A    
C19   H2    S    
C38   O6    A    
C7    C23   S    
C41   O8    A    
C33   C35   A    
Cu2   N1    S    
C3    C11   S    
C31   C37   A    
C29   H10   S    
C17   H24   S    
C27   C28   A    
C14   C15   A    
C35   H15   S    
C5    C38   S    
Cu1   O5    S    
C21   H4    S    
C13   H20   S    
