data_mof_unit_24122.cif
_audit_creation_date              2012-12-10T20:28:00-0500
_audit_creation_method            fapswitch 2.2
_symmetry_space_group_name_H-M    P1
_symmetry_Int_Tables_number       1
_space_group_crystal_system       triclinic
_cell_length_a                    12.798375
_cell_length_b                    10.686792
_cell_length_c                    9.89257
_cell_angle_alpha                 89.899868
_cell_angle_beta                  98.081294
_cell_angle_gamma                 90.492441
_cell_volume                      1339.55621384

loop_
_atom_site_label
_atom_site_type_symbol
_atom_type_description
_atom_site_fract_x
_atom_site_fract_y
_atom_site_fract_z
_atom_type_partial_charge
Br1   Br    Br    0.796826 0.721930 0.372812 -0.573643
Br2   Br    Br    0.277500 0.118298 0.603033 -0.556685
C1    C     C_R   0.501874 0.260073 0.500398 0.915512
C2    C     C_R   0.548489 0.935862 0.392967 -0.156804
C3    C     C_R   0.518631 0.871267 0.505115 -0.059934
C4    C     C_R   0.298366 0.501566 0.472572 0.904492
C5    C     C_R   0.504619 0.935490 0.623327 0.061976
C6    C     C_3   0.418838 0.922695 0.710584 -0.464632
C7    C     C_3   0.410834 0.064197 0.705022 0.087233
C8    C     C_R   0.444903 0.410808 0.060791 0.155876
C9    C     C_R   0.560109 0.582806 0.082678 -0.095263
C10   C     C_R   0.559699 0.583261 0.938830 -0.121833
C11   C     C_R   0.447859 0.408036 0.919102 0.191986
C12   C     C_R   0.026928 0.462704 0.547186 0.079936
C13   C     C_3   0.333252 0.377196 0.888248 -0.520886
C14   C     C_3   0.328118 0.386579 0.040403 -0.272578
C15   C     C_R   0.503640 0.739767 0.500653 0.894464
C16   C     C_R   0.701699 0.502756 0.527856 0.937767
C17   C     C_R   0.814166 0.502042 0.547401 -0.111909
C18   C     C_R   0.186618 0.512847 0.456529 -0.047815
C19   C     C_R   0.032139 0.633093 0.381935 -0.121764
C20   C     C_R   0.137765 0.609943 0.378659 -0.203465
C21   C     C_R   0.132362 0.439831 0.539867 -0.223613
C22   C     C_1   0.265630 0.495546 0.069959 0.303399
C23   C     C_R   0.975544 0.560457 0.465899 0.105959
C24   C     C_1   0.021804 0.294725 0.723660 0.201704
C25   C     C_R   0.868843 0.582207 0.469641 0.179289
C26   C     C_R   0.865261 0.410994 0.632944 -0.285231
C27   C     C_R   0.972008 0.391208 0.634627 -0.003054
C28   C     C_R   0.499704 0.062806 0.621187 0.062034
C29   C     C_R   0.514227 0.128327 0.503554 -0.063941
C30   C     C_R   0.546871 0.065403 0.392549 -0.207923
H1    H     H_    0.449156 0.886715 0.814091 0.182098
H2    H     H_    0.182536 0.671761 0.321231 0.171046
H3    H     H_    0.174320 0.367686 0.601908 0.185686
H4    H     H_    0.565272 0.115221 0.303260 0.170293
H5    H     H_    0.566971 0.887040 0.303507 0.181868
H6    H     H_    0.348282 0.871961 0.658368 0.234275
H7    H     H_    0.433343 0.109659 0.805954 0.128316
H8    H     H_    0.607051 0.651370 0.145089 0.183170
H9    H     H_    0.606210 0.652291 0.893098 0.156759
H10   H     H_    0.287782 0.449568 0.824541 0.227918
H11   H     H_    0.319322 0.280535 0.849098 0.225081
H12   H     H_    0.305300 0.297810 0.087562 0.174922
H13   H     H_    0.820635 0.351556 0.693634 0.170259
H14   H     H_    0.996626 0.709027 0.319945 0.198760
N1    N     N_R   0.499290 0.499140 0.142710 -0.114382
N2    N     N_R   0.499290 0.499180 0.857070 -0.104925
N3    N     N_1   0.216137 0.581801 0.090075 -0.212553
N4    N     N_1   0.061613 0.217633 0.794965 -0.155896
O1    O     O_R   0.500010 0.316790 0.614690 -0.613513
O2    O     O_R   0.500000 0.316760 0.385350 -0.628900
O3    O     O_R   0.346360 0.499990 0.595720 -0.618887
O4    O     O_R   0.346350 0.499960 0.366370 -0.614470
O5    O     O_R   0.500000 0.683240 0.614650 -0.623128
O6    O     O_R   0.499990 0.683210 0.385310 -0.619263
O7    O     O_R   0.653650 0.500040 0.633630 -0.626132
O8    O     O_R   0.653640 0.500010 0.404280 -0.588468
Zn1   Zn    Zn3+2 0.500010 0.500020 0.653130 0.961962
Zn2   Zn    Zn3+2 0.499990 0.499980 0.346870 0.977450

loop_
_geom_bond_atom_site_label_1
_geom_bond_atom_site_label_2
_ccdc_geom_bond_type
C12   C21   A    
C11   N2    A    
C9    C10   A    
C10   H9    S    
O5    Zn1   S    
C23   C25   A    
C4    C18   S    
C14   H12   S    
C16   O7    A    
C9    N1    A    
C29   C30   A    
C18   C21   A    
C10   N2    A    
C11   C13   S    
O3    Zn1   S    
C13   H11   S    
C5    C6    S    
C14   C22   S    
C5    C28   A    
O4    Zn2   S    
C19   C20   A    
C1    C29   S    
C17   C26   A    
Br2   C7    S    
C15   O6    A    
C19   C23   A    
C2    C30   A    
C6    H6    S    
C7    C28   S    
N2    Zn1   S    
C30   H4    S    
C26   C27   A    
C18   C20   A    
C16   C17   S    
C21   H3    S    
C6    H1    S    
C24   N4    T    
C12   C23   A    
C28   C29   A    
C20   H2    S    
C1    O2    A    
C26   H13   S    
O7    Zn1   S    
O1    Zn1   S    
C13   C14   S    
C1    O1    A    
C4    O3    A    
O8    Zn2   S    
C9    H8    S    
C7    H7    S    
C3    C15   S    
C2    H5    S    
C24   C27   S    
C3    C5    A    
C19   H14   S    
C22   N3    T    
Br1   C25   S    
C15   O5    A    
C2    C3    A    
C8    C14   S    
C12   C27   A    
O2    Zn2   S    
C17   C25   A    
N1    Zn2   S    
C8    N1    A    
C16   O8    A    
C4    O4    A    
O6    Zn2   S    
C13   H10   S    
C6    C7    S    
C8    C11   A    
