data_mof_unit_51917.cif
_audit_creation_date              2012-12-11T14:21:24-0500
_audit_creation_method            fapswitch 2.2
_symmetry_space_group_name_H-M    P1
_symmetry_Int_Tables_number       1
_space_group_crystal_system       triclinic
_cell_length_a                    11.534895
_cell_length_b                    11.633861
_cell_length_c                    19.588992
_cell_angle_alpha                 90.147507
_cell_angle_beta                  89.327148
_cell_angle_gamma                 59.919002
_cell_volume                      2274.43998511

loop_
_atom_site_label
_atom_site_type_symbol
_atom_type_description
_atom_site_fract_x
_atom_site_fract_y
_atom_site_fract_z
_atom_type_partial_charge
C1    C     C_R   0.639916 0.116655 0.599472 0.548837
C2    C     C_1   0.652218 0.149070 0.668808 0.005966
C3    C     C_R   0.692531 0.568873 0.205004 -0.012269
C4    C     C_R   0.611898 0.746549 0.598746 0.547322
C5    C     C_R   0.562259 0.621387 0.235065 0.030627
C6    C     C_R   0.532799 0.702459 0.291675 0.027339
C7    C     C_R   0.773114 0.612922 0.308932 -0.153903
C8    C     C_R   0.798612 0.557708 0.243779 -0.172286
C9    C     C_R   0.458189 0.602153 0.208507 -0.099948
C10   C     C_R   0.326228 0.677770 0.230567 -0.127950
C11   C     C_R   0.294904 0.772951 0.279971 -0.100655
C12   C     C_1   0.640052 0.704445 0.668051 0.006254
C13   C     C_R   0.395642 0.790440 0.306903 -0.081370
C14   C     C_R   0.640627 0.690635 0.331751 0.003971
C15   C     C_R   0.161535 0.182287 0.187062 -0.007879
C16   C     C_R   0.241147 0.145007 0.598171 0.557255
C17   C     C_R   0.245150 0.230561 0.208205 0.015174
C18   C     C_R   0.277766 0.224387 0.277900 0.018642
C19   C     C_R   0.169166 0.094833 0.300130 -0.180056
C20   C     C_R   0.130124 0.107568 0.232824 -0.044138
C21   C     C_R   0.292353 0.290428 0.161397 -0.088626
C22   C     C_R   0.341675 0.369541 0.184455 -0.126076
C23   C     C_1   0.126696 0.199872 0.859258 0.005104
C24   C     C_R   0.355651 0.380246 0.253945 -0.127793
C25   C     C_R   0.333501 0.302201 0.299506 -0.088411
C26   C     C_R   0.246971 0.146845 0.323070 -0.015684
C27   C     C_R   0.672366 0.189139 0.194902 0.021537
C28   C     C_R   0.647977 0.108349 0.401851 0.533472
C29   C     C_R   0.708495 0.059799 0.214939 0.035048
C30   C     C_R   0.743701 0.025163 0.283576 -0.007711
C31   C     C_R   0.645010 0.259147 0.313364 -0.171049
C32   C     C_R   0.654527 0.282722 0.244936 -0.155334
C33   C     C_R   0.731429 0.960714 0.166542 -0.080961
C34   C     C_1   0.171408 0.170293 0.727772 -0.028519
C35   C     C_R   0.811788 0.827795 0.182644 -0.120121
C36   C     C_R   0.874778 0.793473 0.245361 -0.119429
C37   C     C_R   0.844947 0.890211 0.296251 0.040344
C38   C     C_R   0.683380 0.130974 0.333292 -0.014904
C39   C     C_R   0.081355 0.231802 0.928560 0.542799
C40   C     C_R   0.611453 0.748003 0.399686 0.529101
C41   C     C_R   0.684341 0.604046 0.929380 0.557176
C42   C     C_R   0.708922 0.207204 0.929928 0.542778
C43   C     C_R   0.084937 0.233783 0.124210 0.518430
C44   C     C_R   0.710514 0.543180 0.131917 0.559909
C45   C     C_1   0.150188 0.183015 0.798942 -0.029153
C46   C     C_R   0.706634 0.211370 0.126427 0.520883
C47   C     C_R   0.294824 0.119920 0.393657 0.525413
C48   C     C_1   0.671642 0.645810 0.859977 0.003046
C49   C     C_1   0.654181 0.683867 0.728375 -0.028211
C50   C     C_1   0.664104 0.666257 0.799579 -0.029686
C51   C     C_2   0.944022 0.850174 0.352370 0.612485
C52   C     C_1   0.063650 0.036299 0.212473 0.212030
C53   C     C_1   0.195182 0.160478 0.667428 0.005864
C54   C     C_1   0.679400 0.191561 0.860656 0.003736
C55   C     C_1   0.658273 0.166751 0.729092 -0.027752
C56   C     C_1   0.666188 0.180831 0.800353 -0.028686
Cr1   Cr    Cr6+3 0.404720 0.198220 0.499960 1.036560
Cr2   Cr    Cr6+3 0.698290 0.897110 0.500380 1.092117
Cr3   Cr    Cr6+3 0.396970 0.904720 0.499610 1.055000
Cr4   Cr    Cr6+3 0.926180 0.151990 0.028120 1.048900
Cr5   Cr    Cr6+3 0.921330 0.451820 0.027470 1.014536
Cr6   Cr    Cr6+3 0.626260 0.446870 0.028710 1.006565
H1    H     H_    0.855574 0.600384 0.340058 0.168315
H2    H     H_    0.477606 0.526364 0.171371 0.148359
H3    H     H_    0.899852 0.509351 0.223076 0.142226
H4    H     H_    0.248713 0.662520 0.209271 0.129917
H5    H     H_    0.192889 0.832241 0.297879 0.162823
H6    H     H_    0.364813 0.872845 0.340081 0.161319
H7    H     H_    0.139075 0.042784 0.335333 0.148015
H8    H     H_    0.286766 0.280792 0.106750 0.135407
H9    H     H_    0.944739 0.024030 0.353804 0.291668
H10   H     H_    0.367417 0.422670 0.147979 0.112205
H11   H     H_    0.390885 0.443462 0.273469 0.132646
H12   H     H_    0.355954 0.311662 0.351183 0.180789
H13   H     H_    0.613126 0.338781 0.350590 0.133283
H14   H     H_    0.695389 0.986168 0.114855 0.119189
H15   H     H_    0.651881 0.372047 0.231102 0.115913
H16   H     H_    0.836085 0.752243 0.144054 0.152997
H17   H     H_    0.952962 0.691492 0.252700 0.133458
N1    N     N_1   0.013893 0.975566 0.196582 -0.289496
O1    O     O_R   0.267740 0.231960 0.575440 -0.494357
O2    O     O_R   0.596130 0.579390 0.952730 -0.498520
O3    O     O_R   0.639060 0.321160 0.958670 -0.495652
O4    O     O_R   0.527280 0.186640 0.570530 -0.493787
O5    O     O_R   0.821240 0.124200 0.104370 -0.479828
O6    O     O_R   0.036890 0.167040 0.097840 -0.485460
O7    O     O_R   0.056180 0.349610 0.102880 -0.537736
O8    O     O_R   0.797660 0.564870 0.097950 -0.506686
O9    O     O_R   0.595880 0.584250 0.104270 -0.520950
O10   O     O_R   0.638830 0.325670 0.099150 -0.549193
O11   O     O_3   0.824590 0.350230 0.028100 -0.280407
O12   O     O_R   0.685970 0.784660 0.430010 -0.488133
O13   O     O_R   0.728090 0.003450 0.576380 -0.490656
O14   O     O_R   0.682970 0.789190 0.570490 -0.489693
O15   O     O_R   0.499290 0.771880 0.575530 -0.498695
O16   O     O_R   0.285330 0.030870 0.569730 -0.482791
O17   O     O_R   0.270980 0.227080 0.423890 -0.511421
O18   O     O_R   0.530280 0.182120 0.430050 -0.532144
O19   O     O_R   0.731330 0.998570 0.424830 -0.478824
O20   O     O_2   0.994662 0.737961 0.375313 -0.492905
O21   O     O_R   0.982720 0.937264 0.379199 -0.669354
O22   O     O_R   0.502530 0.767000 0.423990 -0.530207
O23   O     O_R   0.288330 0.026350 0.429250 -0.504454
O24   O     O_3   0.499990 0.000020 0.499980 -0.290383
O25   O     O_R   0.821500 0.119340 0.952830 -0.504748
O26   O     O_R   0.037130 0.162530 0.957360 -0.491213
O27   O     O_R   0.056440 0.344740 0.951340 -0.507730
O28   O     O_R   0.797900 0.560360 0.957470 -0.488766

loop_
_geom_bond_atom_site_label_1
_geom_bond_atom_site_label_2
_ccdc_geom_bond_type
C39   O26   A    
C55   C56   S    
C23   C45   T    
C41   O28   A    
C27   C29   A    
C9    H2    S    
C19   C20   A    
C18   C26   A    
Cr6   O3    S    
C12   C49   T    
C7    C8    A    
C1    O4    A    
C39   O27   A    
Cr3   O24   S    
C36   C37   A    
Cr2   O13   S    
C25   H12   S    
C2    C55   T    
C5    C6    A    
C37   C51   S    
C24   H11   S    
C41   O2    A    
Cr6   O9    S    
C29   C33   A    
C30   C38   A    
C1    C2    S    
Cr5   O28   S    
C19   C26   A    
C16   C53   S    
Cr5   O7    S    
C32   H15   S    
C7    C14   A    
C35   C36   A    
C4    C12   S    
C9    C10   A    
C46   O5    A    
C48   C50   T    
Cr6   O2    S    
C8    H3    S    
C21   C22   A    
Cr3   O22   S    
C18   C25   A    
Cr3   O15   S    
C22   H10   S    
C15   C43   S    
C11   H5    S    
C10   H4    S    
C15   C20   A    
C54   C56   T    
C3    C44   S    
C16   O16   A    
C47   O23   A    
C42   O3    A    
C24   C25   A    
C3    C8    A    
Cr4   O6    S    
C14   C40   S    
C17   C21   A    
C30   C37   A    
C5    C9    A    
C29   C30   A    
Cr5   O8    S    
C6    C14   A    
C4    O15   A    
C33   H14   S    
C31   H13   S    
C31   C32   A    
C28   C38   S    
Cr1   O17   S    
Cr6   O11   S    
C17   C18   A    
Cr1   O4    S    
C34   C45   S    
C40   O12   A    
C7    H1    S    
C26   C47   S    
C4    O14   A    
C28   O19   A    
Cr1   O1    S    
C19   H7    S    
Cr2   O24   S    
Cr3   O16   S    
Cr4   O26   S    
C27   C46   S    
Cr4   O11   S    
C28   O18   A    
C51   O20   D    
C15   C17   A    
Cr1   O24   S    
C27   C32   A    
C43   O6    A    
Cr2   O19   S    
C3    C5    A    
C36   H17   S    
Cr4   O5    S    
C46   O10   A    
C51   O21   S    
C35   H16   S    
C47   O17   A    
C31   C38   A    
C21   H8    S    
Cr3   O23   S    
Cr2   O14   S    
C43   O7    A    
C20   C52   S    
C44   O8    A    
C42   C54   S    
C6    C13   A    
C11   C13   A    
C23   C39   S    
Cr1   O18   S    
Cr6   O10   S    
C16   O1    A    
C33   C35   A    
C41   C48   S    
C22   C24   A    
H9    O21   S    
Cr5   O27   S    
C42   O25   A    
C10   C11   A    
Cr4   O25   S    
C40   O22   A    
C34   C53   T    
C1    O13   A    
C49   C50   S    
C52   N1    T    
Cr2   O12   S    
C44   O9    A    
Cr5   O11   S    
C13   H6    S    
