data_mof_unit_23646.cif
_audit_creation_date              2012-10-26T21:17:40-0400
_audit_creation_method            fapswitch 2.2
_symmetry_space_group_name_H-M    P1
_symmetry_Int_Tables_number       1
_space_group_crystal_system       triclinic
_cell_length_a                    10.802025
_cell_length_b                    9.093682
_cell_length_c                    7.79509
_cell_angle_alpha                 89.957254
_cell_angle_beta                  89.999687
_cell_angle_gamma                 89.999836
_cell_volume                      765.712883088

loop_
_atom_site_label
_atom_site_type_symbol
_atom_type_description
_atom_site_fract_x
_atom_site_fract_y
_atom_site_fract_z
_atom_type_partial_charge
C1    C     C_R   0.500000 0.220052 0.500027 0.552292
C2    C     C_R   0.065467 0.625229 0.594858 0.025295
C3    C     C_R   0.128599 0.515761 0.499980 0.004914
C4    C     C_R   0.871401 0.515762 0.499977 0.004914
C5    C     C_R   0.063829 0.413710 0.401089 -0.146851
C6    C     C_R   0.936172 0.413712 0.401087 -0.146852
C7    C     C_1   0.500000 0.065361 0.500088 -0.053799
C8    C     C_1   0.500000 0.934603 0.499992 -0.058158
C9    C     C_R   0.500000 0.779943 0.499954 0.533027
C10   C     C_R   0.262020 0.505393 0.500063 0.530153
C11   C     C_R   0.737979 0.505394 0.500062 0.530152
C12   C     C_R   0.129142 0.737466 0.684334 -0.100196
C13   C     C_R   0.870854 0.737470 0.684325 -0.100193
C14   C     C_R   0.064363 0.845539 0.773842 -0.117943
C15   C     C_R   0.935631 0.845542 0.773836 -0.117940
C16   C     C_R   0.934532 0.625230 0.594856 0.025295
Cu1   Cu    Cu3+1 0.500000 0.500000 0.669080 1.006948
Cu2   Cu    Cu3+1 0.500000 0.500000 0.330920 1.019520
H1    H     H_    0.112509 0.331303 0.326637 0.130302
H2    H     H_    0.887494 0.331307 0.326633 0.130303
H3    H     H_    0.228968 0.745045 0.683518 0.138312
H4    H     H_    0.771029 0.745052 0.683501 0.138309
H5    H     H_    0.114302 0.930815 0.841609 0.121478
H6    H     H_    0.885690 0.930824 0.841596 0.121476
N1    N     N_1   0.500000 0.500000 0.076820 -0.079130
N2    N     N_1   0.500000 0.500000 0.923180 -0.080441
O1    O     O_R   0.500000 0.288390 0.642760 -0.492296
O2    O     O_R   0.500000 0.711610 0.642760 -0.514142
O3    O     O_R   0.500000 0.288370 0.357190 -0.495966
O4    O     O_R   0.500000 0.711630 0.357190 -0.493287
O5    O     O_R   0.319650 0.500000 0.642810 -0.507308
O6    O     O_R   0.680350 0.500000 0.642810 -0.507306
O7    O     O_R   0.319630 0.500000 0.357240 -0.500441
O8    O     O_R   0.680370 0.500000 0.357240 -0.500442

loop_
_geom_bond_atom_site_label_1
_geom_bond_atom_site_label_2
_ccdc_geom_bond_type
C14   H5    S    
C4    C16   A    
Cu2   O4    S    
C6    H2    S    
C2    C12   A    
C1    O3    A    
C2    C3    A    
C7    C8    T    
C1    O1    A    
C3    C10   S    
C4    C11   S    
Cu2   O8    S    
Cu2   N1    S    
C9    O4    A    
C5    H1    S    
Cu1   N2    S    
C12   H3    S    
C15   H6    S    
C13   H4    S    
C12   C14   A    
C11   O6    A    
Cu1   Cu2   S    
C10   O7    A    
C13   C15   A    
C5    C6    A    
Cu1   O5    S    
Cu2   O7    S    
Cu1   O1    S    
C2    C16   A    
C4    C6    A    
C13   C16   A    
Cu2   O3    S    
Cu1   O6    S    
C14   C15   A    
N1    N2    T    
C1    C7    S    
Cu1   O2    S    
C10   O5    A    
C11   O8    A    
C9    O2    A    
C8    C9    S    
C3    C5    A    
