data_mof_unit_16458.cif
_audit_creation_date              2012-12-10T20:45:29-0500
_audit_creation_method            fapswitch 2.2
_symmetry_space_group_name_H-M    P1
_symmetry_Int_Tables_number       1
_space_group_crystal_system       triclinic
_cell_length_a                    10.93276
_cell_length_b                    10.651645
_cell_length_c                    9.981649
_cell_angle_alpha                 92.367842
_cell_angle_beta                  92.320817
_cell_angle_gamma                 95.32298
_cell_volume                      1155.23239677

loop_
_atom_site_label
_atom_site_type_symbol
_atom_type_description
_atom_site_fract_x
_atom_site_fract_y
_atom_site_fract_z
_atom_type_partial_charge
C1    C     C_R   0.502732 0.259409 0.497230 0.899152
C2    C     C_R   0.047370 0.234157 0.021807 -0.117111
C3    C     C_R   0.925345 0.469627 0.385079 -0.252012
C4    C     C_R   0.871758 0.492371 0.506109 -0.097975
C5    C     C_R   0.944694 0.502274 0.625575 0.002564
C6    C     C_R   0.071364 0.509127 0.618917 -0.272123
C7    C     C_R   0.125809 0.487471 0.496086 -0.091752
C8    C     C_R   0.049571 0.457304 0.379701 0.040140
C9    C     C_R   0.907543 0.594077 0.850694 -0.191972
C10   C     C_R   0.859133 0.582189 0.976555 -0.163094
C11   C     C_R   0.793567 0.468860 0.009248 -0.084172
C12   C     C_R   0.259469 0.493928 0.497486 0.841813
C13   C     C_R   0.777441 0.366940 0.916423 -0.123572
C14   C     C_R   0.828222 0.377293 0.791162 -0.101511
C15   C     C_R   0.892074 0.491803 0.757596 0.140062
C16   C     C_R   0.557527 0.066019 0.599067 0.029478
C17   C     C_R   0.506141 0.124462 0.490361 -0.170038
C18   C     C_R   0.442762 0.049164 0.383801 0.153925
C19   C     C_R   0.408671 0.920730 0.402684 0.080250
C20   C     C_R   0.464578 0.866090 0.511593 -0.184716
C21   C     C_R   0.532428 0.939094 0.611205 0.067305
C22   C     C_3   0.510674 0.954229 0.759085 0.003897
C23   C     C_R   0.485674 0.736678 0.502552 0.896607
C24   C     C_3   0.554493 0.092576 0.747233 -0.540304
C25   C     C_R   0.460825 0.393803 0.064597 0.156518
C26   C     C_R   0.554056 0.602191 0.075640 0.168118
C27   C     C_R   0.554122 0.598639 0.932358 -0.163788
C28   C     C_R   0.457964 0.394979 0.922386 0.211121
C29   C     C_3   0.329698 0.336442 0.909781 -0.522594
C30   C     C_3   0.333633 0.335302 0.061000 -0.474117
C31   C     C_R   0.739665 0.498459 0.502537 0.854804
C32   C     C_R   0.057781 0.365280 0.017556 -0.176115
C33   C     C_R   0.069876 0.440826 0.135599 -0.198818
C34   C     C_R   0.081882 0.385682 0.259687 0.113968
C35   C     C_R   0.075210 0.253307 0.263962 -0.250574
C36   C     C_R   0.054546 0.176160 0.145695 0.275913
H1    H     H_    0.033065 0.179774 0.927837 0.132142
H2    H     H_    0.754854 0.458306 0.105998 0.131736
H3    H     H_    0.727737 0.279725 0.943141 0.113592
H4    H     H_    0.817165 0.297156 0.719853 0.110557
H5    H     H_    0.573727 0.904049 0.823555 0.144910
H6    H     H_    0.487250 0.158330 0.777775 0.220893
H7    H     H_    0.648501 0.117113 0.792463 0.176026
H8    H     H_    0.057229 0.408569 0.922136 0.156749
H9    H     H_    0.595398 0.677478 0.879715 0.147795
H10   H     H_    0.266109 0.401517 0.867512 0.216908
H11   H     H_    0.320749 0.240390 0.860971 0.184750
H12   H     H_    0.280727 0.403674 0.111281 0.238254
H13   H     H_    0.322144 0.239693 0.098448 0.219209
H14   H     H_    0.070707 0.542278 0.130746 0.143710
H15   H     H_    0.074136 0.210173 0.360439 0.119258
H16   H     H_    0.868159 0.447656 0.294929 0.165410
H17   H     H_    0.126527 0.524625 0.711858 0.162454
H18   H     H_    0.958272 0.681873 0.826457 0.128568
H19   H     H_    0.876202 0.660586 0.048288 0.136849
N1    N     N_R   0.499160 0.499140 0.142800 -0.129568
N2    N     N_R   0.499160 0.499180 0.857150 -0.112930
O1    O     O_R   0.500020 0.316790 0.614690 -0.622840
O2    O     O_R   0.500000 0.316760 0.385350 -0.585225
O3    O     O_R   0.316770 0.500030 0.614670 -0.632328
O4    O     O_R   0.316750 0.499990 0.385330 -0.621087
O5    O     O_R   0.500000 0.683240 0.614650 -0.621309
O6    O     O_R   0.499980 0.683210 0.385310 -0.610426
O7    O     O_R   0.683250 0.500010 0.614670 -0.598599
O8    O     O_R   0.683230 0.499970 0.385330 -0.633476
Zn1   Zn    Zn3+2 0.500010 0.500020 0.653130 0.941021
Zn2   Zn    Zn3+2 0.499990 0.499980 0.346870 0.938997
N3    N     N_2   0.418702 0.100274 0.257324 -0.285877
H20   H     H_    0.337115 0.064197 0.209378 0.228494
C37   C     C_3   0.521798 0.098129 0.170462 -0.776805
H21   H     H_    0.497732 0.134257 0.071213 0.219724
H22   H     H_    0.546798 0.000334 0.153719 0.224849
H23   H     H_    0.602840 0.158123 0.215456 0.259605
C38   C     C_3   0.289233 0.854814 0.338519 -0.375865
C39   C     C_3   0.298534 0.794037 0.198405 -0.872595
H24   H     H_    0.350359 0.857942 0.131501 0.253626
H25   H     H_    0.340249 0.703581 0.203981 0.285435
H26   H     H_    0.204817 0.769997 0.152839 0.238038
H27   H     H_    0.250695 0.780548 0.404306 0.194168
H28   H     H_    0.219521 0.923942 0.334427 0.184405
C40   C     C_3   0.374112 0.939694 0.797594 -0.393605
C41   C     C_3   0.320773 0.803270 0.808044 -0.839629
H29   H     H_    0.229555 0.801610 0.853334 0.230110
H30   H     H_    0.306704 0.755251 0.707361 0.275223
H31   H     H_    0.381272 0.751898 0.873286 0.261322
H32   H     H_    0.367666 0.988527 0.897319 0.198032
H33   H     H_    0.315692 0.986326 0.724436 0.213044
C42   C     C_3   0.608041 0.729179 0.142009 -0.344376
C43   C     C_3   0.724215 0.729432 0.233565 -0.762264
H34   H     H_    0.706403 0.751809 0.339794 0.255970
H35   H     H_    0.765031 0.639303 0.226843 0.252555
H36   H     H_    0.794744 0.804412 0.205022 0.212139
H37   H     H_    0.633875 0.796021 0.062897 0.147022
H38   H     H_    0.538073 0.778951 0.191546 0.230150
N4    N     N_2   0.029355 0.042809 0.155368 -0.310429
H39   H     H_    0.045778 0.008075 0.248581 0.210714
C44   C     C_3   0.053629 0.959853 0.042956 -0.858553
H40   H     H_    0.033163 0.860269 0.069651 0.233291
H41   H     H_    0.151597 0.975812 0.017213 0.247611
H42   H     H_    0.992213 0.974272 0.954873 0.243196

loop_
_geom_bond_atom_site_label_1
_geom_bond_atom_site_label_2
_ccdc_geom_bond_type
C16   C21   A    
C24   H6    S    
C19   C20   A    
C2    H1    S    
C25   N1    A    
N2    Zn1   S    
C44   H40   S    
C7    C8    A    
C28   N2    A    
C25   C28   A    
C26   C27   A    
C29   H11   S    
C30   H12   S    
C28   C29   S    
C18   C19   A    
C1    O2    A    
C5    C6    A    
C22   H5    S    
C18   N3    S    
C2    C32   A    
C34   C35   A    
O2    Zn2   S    
O1    Zn1   S    
C23   O5    A    
N4    H39   S    
C16   C17   A    
O8    Zn2   S    
C37   H21   S    
C43   H35   S    
C9    C10   A    
C40   H32   S    
C27   H9    S    
C23   O6    A    
O3    Zn1   S    
C16   C24   S    
C38   H28   S    
C21   C22   S    
C44   H41   S    
C33   C34   A    
C42   H38   S    
C7    C12   S    
O6    Zn2   S    
C5    C15   S    
C38   C39   S    
O5    Zn1   S    
C22   C40   S    
C3    C8    A    
C27   N2    A    
N3    H20   S    
C33   H14   S    
C40   C41   S    
C35   C36   A    
O7    Zn1   S    
C11   H2    S    
C39   H24   S    
C29   C30   S    
O4    Zn2   S    
C20   C23   S    
C37   H23   S    
C17   C18   A    
C32   H8    S    
C8    C34   S    
C20   C21   A    
C43   H36   S    
C10   H19   S    
C39   H25   S    
C40   H33   S    
N3    C37   S    
C30   H13   S    
C41   H30   S    
C38   H27   S    
C35   H15   S    
C22   C24   S    
C6    H17   S    
C3    C4    A    
N1    Zn2   S    
C44   H42   S    
C2    C36   A    
C25   C30   S    
C31   O8    A    
C42   H37   S    
C31   O7    A    
C19   C38   S    
C4    C5    A    
C26   N1    A    
C3    H16   S    
N4    C44   S    
C6    C7    A    
C41   H31   S    
C1    C17   S    
C29   H10   S    
C32   C33   A    
C9    C15   A    
C1    O1    A    
C12   O4    A    
C11   C13   A    
C36   N4    S    
C39   H26   S    
C13   H3    S    
C4    C31   S    
C10   C11   A    
C14   H4    S    
C12   O3    A    
C42   C43   S    
C26   C42   S    
C41   H29   S    
C24   H7    S    
C14   C15   A    
C37   H22   S    
C9    H18   S    
C43   H34   S    
C13   C14   A    
