data_mof_unit_60641.cif
_audit_creation_date              2012-12-11T17:37:25-0500
_audit_creation_method            fapswitch 2.2
_symmetry_space_group_name_H-M    P1
_symmetry_Int_Tables_number       1
_space_group_crystal_system       monoclinic
_cell_length_a                    23.749592
_cell_length_b                    6.920545
_cell_length_c                    21.968088
_cell_angle_alpha                 90.0
_cell_angle_beta                  101.773994
_cell_angle_gamma                 90.0
_cell_volume                      3534.70931246

loop_
_atom_site_label
_atom_site_type_symbol
_atom_type_description
_atom_site_fract_x
_atom_site_fract_y
_atom_site_fract_z
_atom_type_partial_charge
O1    O     O_R   0.301920 0.607900 0.199160 -0.536385
O2    O     O_R   0.698080 0.392100 0.800840 -0.536385
O3    O     O_R   0.198080 0.107900 0.300840 -0.536385
O4    O     O_R   0.801920 0.892100 0.699160 -0.536385
O5    O     O_R   0.190790 0.275820 0.184850 -0.524077
O6    O     O_R   0.809210 0.724180 0.815150 -0.524077
O7    O     O_R   0.309210 0.775820 0.315150 -0.524077
O8    O     O_R   0.690790 0.224180 0.684850 -0.524077
C1    C     C_R   0.168737 0.447173 0.166684 0.715924
C2    C     C_R   0.831263 0.552827 0.833316 0.715923
C3    C     C_R   0.331263 0.947173 0.333316 0.715923
C4    C     C_R   0.668737 0.052827 0.666684 0.715923
O9    O     O_R   0.301050 0.278040 0.191980 -0.536700
O10   O     O_R   0.698950 0.721960 0.808020 -0.536700
O11   O     O_R   0.198950 0.778040 0.308020 -0.536700
O12   O     O_R   0.801050 0.221960 0.691980 -0.536700
O13   O     O_R   0.309130 0.110040 0.308020 -0.519702
O14   O     O_R   0.690870 0.889960 0.691980 -0.519702
O15   O     O_R   0.190870 0.610040 0.191980 -0.519702
O16   O     O_R   0.809130 0.389960 0.808020 -0.519702
C5    C     C_R   0.319159 0.447292 0.178629 0.720184
C6    C     C_R   0.680840 0.552708 0.821371 0.720185
C7    C     C_R   0.180840 0.947292 0.321371 0.720185
C8    C     C_R   0.819160 0.052708 0.678629 0.720185
O17   O     O_3   0.252520 0.442130 0.288070 -0.358659
O18   O     O_3   0.747480 0.557870 0.711930 -0.358659
O19   O     O_3   0.247480 0.942130 0.211930 -0.358659
O20   O     O_3   0.752520 0.057870 0.788070 -0.358659
V1    V     V_3+5 0.249530 0.166380 0.242940 1.426094
V2    V     V_3+5 0.750470 0.833620 0.757060 1.426094
V3    V     V_3+5 0.250470 0.666380 0.257060 1.426094
V4    V     V_3+5 0.749530 0.333620 0.742940 1.426094
C9    C     C_R   0.909050 0.183465 0.559072 -0.109165
C10   C     C_R   0.090949 0.816535 0.440928 -0.109165
C11   C     C_R   0.590950 0.683464 0.940929 -0.109166
C12   C     C_R   0.409050 0.316536 0.059071 -0.109166
H1    H     H_    0.914114 0.304816 0.529520 0.191485
H2    H     H_    0.085886 0.695184 0.470480 0.191485
H3    H     H_    0.585886 0.804814 0.970481 0.191483
H4    H     H_    0.414113 0.195186 0.029519 0.191483
C13   C     C_R   0.869657 0.197102 0.598619 -0.141643
C14   C     C_R   0.130343 0.802898 0.401381 -0.141643
C15   C     C_R   0.630343 0.697101 0.901381 -0.141643
C16   C     C_R   0.369657 0.302899 0.098619 -0.141643
H5    H     H_    0.845333 0.329387 0.598817 0.145097
H6    H     H_    0.154667 0.670613 0.401183 0.145097
H7    H     H_    0.654668 0.829386 0.901184 0.145097
H8    H     H_    0.345332 0.170614 0.098816 0.145097
C17   C     C_R   0.861235 0.040663 0.636724 -0.128419
C18   C     C_R   0.138765 0.959337 0.363276 -0.128419
C19   C     C_R   0.638764 0.540663 0.863276 -0.128419
C20   C     C_R   0.361235 0.459337 0.136724 -0.128420
C21   C     C_R   0.893770 0.871332 0.634714 -0.198289
C22   C     C_R   0.106230 0.128668 0.365286 -0.198289
C23   C     C_R   0.606229 0.371333 0.865286 -0.198288
C24   C     C_R   0.393771 0.628667 0.134714 -0.198288
H9    H     H_    0.888611 0.749027 0.663867 0.155158
H10   H     H_    0.111389 0.250972 0.336133 0.155158
H11   H     H_    0.611388 0.249029 0.836132 0.155158
H12   H     H_    0.388612 0.750971 0.163868 0.155158
C25   C     C_R   0.934025 0.858788 0.596103 0.409249
C26   C     C_R   0.065975 0.141212 0.403896 0.409249
C27   C     C_R   0.565975 0.358789 0.903896 0.409250
C28   C     C_R   0.434025 0.641211 0.096104 0.409250
C29   C     C_R   0.941698 0.015169 0.557673 0.012796
C30   C     C_R   0.058302 0.984831 0.442327 0.012796
C31   C     C_R   0.558302 0.515169 0.942327 0.012796
C32   C     C_R   0.441698 0.484831 0.057673 0.012796
C33   C     C_1   0.982815 0.004737 0.516946 0.104995
C34   C     C_1   0.017184 0.995263 0.483054 0.104995
C35   C     C_1   0.517184 0.504737 0.983054 0.104994
C36   C     C_1   0.482816 0.495263 0.016946 0.104994
C37   C     C_1   0.616640 0.040815 0.614572 -0.199972
C38   C     C_1   0.383360 0.959184 0.385428 -0.199971
C39   C     C_1   0.883360 0.540815 0.885428 -0.199972
C40   C     C_1   0.116640 0.459184 0.114572 -0.199971
C41   C     C_1   0.573277 0.026833 0.571798 0.015945
C42   C     C_1   0.426723 0.973167 0.428202 0.015945
C43   C     C_1   0.926723 0.526833 0.928202 0.015945
C44   C     C_1   0.073277 0.473167 0.071798 0.015945
C45   C     C_1   0.521734 0.008112 0.521272 0.014087
C46   C     C_1   0.478266 0.991887 0.478728 0.014087
C47   C     C_1   0.978266 0.508112 0.978728 0.014087
C48   C     C_1   0.021734 0.491887 0.021272 0.014087
Cl1   Cl    Cl    0.974789 0.645802 0.597526 -0.658002
Cl2   Cl    Cl    0.025211 0.354197 0.402474 -0.658002
Cl3   Cl    Cl    0.525210 0.145805 0.902473 -0.658000
Cl4   Cl    Cl    0.474790 0.854195 0.097527 -0.658000

loop_
_geom_bond_atom_site_label_1
_geom_bond_atom_site_label_2
_ccdc_geom_bond_type
O17   V3    S    
C16   H8    S    
O1    C5    A    
C23   H11   S    
O19   V1    S    
O13   V1    S    
O3    C7    A    
C10   C14   A    
C44   C48   S    
O15   V3    S    
C10   C30   A    
C45   C46   T    
C9    C29   A    
O7    C3    A    
C26   Cl2   S    
C18   C22   A    
C28   C32   A    
O9    V1    S    
C22   H10   S    
O4    C8    A    
C29   C33   S    
O1    V3    S    
O2    V4    S    
C14   H6    S    
O3    V1    S    
C21   C25   A    
C1    O15   A    
C2    O16   A    
C23   C27   A    
O2    C6    A    
C24   C28   A    
O14   V2    S    
C1    C40   S    
C11   C31   A    
C11   C15   A    
C19   C23   A    
C32   C36   S    
C16   C20   A    
O11   C7    A    
O12   C8    A    
C4    C37   S    
O10   V2    S    
C13   C17   A    
O5    V1    S    
O17   V1    S    
C27   C31   A    
O7    V3    S    
C26   C30   A    
O19   V3    S    
O8    V4    S    
C12   H4    S    
C21   H9    S    
O18   V4    S    
C7    C18   S    
C22   C26   A    
C9    H1    S    
C24   H12   S    
C11   H3    S    
O5    C1    A    
C2    C39   S    
C42   C46   S    
C47   C48   T    
O20   V4    S    
O8    C4    A    
O9    C5    A    
C25   Cl1   S    
C14   C18   A    
O6    V2    S    
O18   V2    S    
C12   C16   A    
O16   V4    S    
C8    C17   S    
C3    O13   A    
C13   H5    S    
C27   Cl3   S    
C10   H2    S    
C40   C44   T    
C3    C38   S    
O6    C2    A    
C12   C32   A    
O11   V3    S    
O12   V4    S    
C9    C13   A    
O10   C6    A    
O20   V2    S    
C35   C36   T    
C43   C47   S    
C15   C19   A    
C30   C34   S    
C39   C43   T    
C17   C21   A    
C31   C35   S    
C33   C34   T    
C25   C29   A    
C41   C45   S    
C38   C42   T    
C4    O14   A    
C37   C41   T    
C15   H7    S    
C28   Cl4   S    
C5    C20   S    
O4    V2    S    
C20   C24   A    
C6    C19   S    
