data_mof_unit_27888.cif
_audit_creation_date              2012-10-26T20:13:57-0400
_audit_creation_method            fapswitch 2.2
_symmetry_space_group_name_H-M    P1
_symmetry_Int_Tables_number       1
_space_group_crystal_system       triclinic
_cell_length_a                    8.72594
_cell_length_b                    10.826316
_cell_length_c                    9.554465
_cell_angle_alpha                 90.02377
_cell_angle_beta                  97.758329
_cell_angle_gamma                 90.375026
_cell_volume                      894.326097566

loop_
_atom_site_label
_atom_site_type_symbol
_atom_type_description
_atom_site_fract_x
_atom_site_fract_y
_atom_site_fract_z
_atom_type_partial_charge
C1    C     C_R   0.495610 0.262502 0.499475 0.550749
C2    C     C_R   0.634479 0.516861 0.942856 0.160658
C3    C     C_3   0.739559 0.626048 0.948275 -0.280030
C4    C     C_R   0.203973 0.498527 0.463992 0.538729
C5    C     C_3   0.736171 0.630208 0.106523 -0.278571
C6    C     C_R   0.490635 0.737668 0.498254 0.544391
C7    C     C_R   0.796091 0.500044 0.536136 0.550682
C8    C     C_2   0.038300 0.494994 0.444503 -0.161825
C9    C     C_2   0.961935 0.501405 0.556154 -0.156946
C10   C     C_R   0.495050 0.063481 0.622685 0.017114
C11   C     C_R   0.474747 0.129944 0.497517 -0.008380
C12   C     C_R   0.412602 0.937754 0.367820 -0.014558
C13   C     C_R   0.421101 0.067595 0.371537 -0.148718
C14   C     C_3   0.347210 0.877596 0.228483 -0.256097
C15   C     C_3   0.192532 0.813494 0.238500 -0.412011
C16   C     C_R   0.465793 0.870950 0.494280 0.014479
C17   C     C_R   0.490932 0.936869 0.621259 0.008856
C18   C     C_3   0.615880 0.928946 0.744331 -0.274815
C19   C     C_3   0.621362 0.069123 0.744275 -0.264773
C20   C     C_R   0.634112 0.518466 0.090098 0.161774
C21   C     C_R   0.370393 0.470289 0.058254 -0.023276
C22   C     C_R   0.370352 0.470407 0.909778 -0.018805
Cu1   Cu    Cu3+1 0.499990 0.499980 0.640670 0.933105
Cu2   Cu    Cu3+1 0.500010 0.500020 0.359330 0.921877
H1    H     H_    0.979028 0.485917 0.337640 0.116178
H2    H     H_    0.723205 0.885553 0.717068 0.132414
H3    H     H_    0.582268 0.110916 0.839597 0.142194
H4    H     H_    0.264697 0.447330 0.099850 0.117669
H5    H     H_    0.203784 0.742817 0.322955 0.175813
H6    H     H_    0.105554 0.882441 0.261452 0.140139
H7    H     H_    0.150302 0.767547 0.136517 0.128677
H8    H     H_    0.325984 0.947979 0.143458 0.120878
H9    H     H_    0.430753 0.813094 0.190917 0.170411
H10   H     H_    0.731008 0.107678 0.714712 0.135963
H11   H     H_    0.264625 0.447479 0.842212 0.115277
H12   H     H_    0.854947 0.601857 0.919500 0.119828
H13   H     H_    0.684120 0.706364 0.891337 0.143277
H14   H     H_    0.850867 0.611765 0.167780 0.119530
H15   H     H_    0.676557 0.712857 0.141450 0.137134
H16   H     H_    0.021375 0.508763 0.663427 0.113140
H17   H     H_    0.389199 0.119980 0.275492 0.128637
H18   H     H_    0.571373 0.891677 0.839484 0.130334
N1    N     N_R   0.500980 0.500930 0.148050 -0.232833
N2    N     N_R   0.500990 0.500890 0.852140 -0.231397
O1    O     O_R   0.500000 0.319640 0.618810 -0.493710
O2    O     O_R   0.500020 0.319680 0.381230 -0.502860
O3    O     O_R   0.274830 0.499980 0.591380 -0.507434
O4    O     O_R   0.274850 0.500020 0.353800 -0.519169
O5    O     O_R   0.499980 0.680320 0.618770 -0.497854
O6    O     O_R   0.500000 0.680360 0.381190 -0.508714
O7    O     O_R   0.725150 0.499980 0.646200 -0.501964
O8    O     O_R   0.725170 0.500020 0.408620 -0.495167

loop_
_geom_bond_atom_site_label_1
_geom_bond_atom_site_label_2
_ccdc_geom_bond_type
Cu2   O8    S    
Cu1   Cu2   S    
C15   H7    S    
Cu1   O1    S    
C19   H3    S    
Cu1   O7    S    
C18   H2    S    
C10   C19   S    
C4    C8    S    
Cu2   O2    S    
C14   H9    S    
C22   H11   S    
C2    C3    S    
C7    O7    A    
C5    C20   S    
C21   N1    A    
C21   C22   A    
C6    O6    A    
C8    H1    S    
C11   C13   A    
C1    O1    A    
C3    H12   S    
C13   H17   S    
C21   H4    S    
C12   C14   S    
C7    O8    A    
C15   H5    S    
C5    H15   S    
C6    O5    A    
Cu2   O6    S    
C1    O2    A    
Cu1   O5    S    
Cu1   O3    S    
C10   C11   A    
C10   C17   A    
C2    C20   A    
Cu2   O4    S    
C20   N1    A    
C12   C13   A    
C3    H13   S    
C15   H6    S    
C17   C18   S    
C18   C19   S    
C4    O4    A    
C14   H8    S    
C7    C9    S    
Cu2   N1    S    
C14   C15   S    
C16   C17   A    
C18   H18   S    
C5    H14   S    
C6    C16   S    
C19   H10   S    
C9    H16   S    
C22   N2    A    
Cu1   N2    S    
C12   C16   A    
C2    N2    A    
C8    C9    D    
C3    C5    S    
C4    O3    A    
C1    C11   S    
