data_mof_unit_21953.cif
_audit_creation_date              2012-12-11T15:22:34-0500
_audit_creation_method            fapswitch 2.2
_symmetry_space_group_name_H-M    P1
_symmetry_Int_Tables_number       1
_space_group_crystal_system       triclinic
_cell_length_a                    22.838944
_cell_length_b                    7.223258
_cell_length_c                    20.817432
_cell_angle_alpha                 89.929139
_cell_angle_beta                  93.213907
_cell_angle_gamma                 89.895409
_cell_volume                      3428.87446232

loop_
_atom_site_label
_atom_site_type_symbol
_atom_type_description
_atom_site_fract_x
_atom_site_fract_y
_atom_site_fract_z
_atom_type_partial_charge
O1    O     O_R   0.438030 0.494310 0.439340 -0.541258
O2    O     O_R   0.561970 0.994310 0.560660 -0.534131
O3    O     O_R   0.556900 0.822900 0.435960 -0.530567
O4    O     O_R   0.443100 0.322900 0.564040 -0.528661
C1    C     C_R   0.575790 0.655448 0.421036 0.700576
C2    C     C_R   0.424212 0.155509 0.578965 0.697376
O5    O     O_R   0.438170 0.823950 0.431660 -0.537052
O6    O     O_R   0.561830 0.323950 0.568340 -0.543538
O7    O     O_R   0.442390 0.995390 0.556340 -0.529960
O8    O     O_R   0.557610 0.495390 0.443660 -0.527646
C3    C     C_R   0.419770 0.655372 0.413929 0.707140
C4    C     C_R   0.580039 0.154543 0.586178 0.706430
O9    O     O_3   0.501520 0.661170 0.540910 -0.374223
O10   O     O_3   0.498480 0.161170 0.459090 -0.373317
V1    V     V_3+5 0.499720 0.935580 0.492410 1.463109
V2    V     V_3+5 0.500280 0.435580 0.507590 1.466407
C5    C     C_R   0.829382 0.934926 0.858414 -0.214583
C6    C     C_R   0.167233 0.744089 0.136125 -0.208988
C7    C     C_R   0.868866 0.083538 0.866291 -0.077535
C8    C     C_R   0.131835 0.584577 0.132814 -0.078933
C9    C     C_R   0.859923 0.242680 0.827753 -0.215708
C10   C     C_R   0.144910 0.437677 0.175835 -0.220660
C11   C     C_R   0.812407 0.253487 0.781892 0.090952
C12   C     C_R   0.192297 0.450382 0.221824 0.092068
C13   C     C_R   0.772292 0.105248 0.775336 0.067866
C14   C     C_R   0.228001 0.610098 0.224026 0.068080
C15   C     C_R   0.780913 0.945909 0.813942 0.092683
C16   C     C_R   0.215274 0.756886 0.180844 0.090886
C17   C     C_R   0.804175 0.410271 0.742580 -0.189977
C18   C     C_R   0.204600 0.306313 0.265762 -0.183648
C19   C     C_R   0.756689 0.420338 0.697248 -0.163230
C20   C     C_R   0.251682 0.320254 0.311429 -0.170045
C21   C     C_R   0.715975 0.275087 0.691001 0.087664
C22   C     C_R   0.287870 0.477449 0.313480 0.086185
C23   C     C_R   0.723381 0.116909 0.730411 0.020240
C24   C     C_R   0.276518 0.622801 0.269328 0.020751
C25   C     C_R   0.681847 0.971560 0.725600 0.084236
C26   C     C_R   0.313696 0.779679 0.269877 0.085665
C27   C     C_R   0.691943 0.812598 0.764372 -0.182395
C28   C     C_R   0.299205 0.926162 0.226770 -0.176430
C29   C     C_R   0.740732 0.800254 0.807717 -0.189671
C30   C     C_R   0.250735 0.914674 0.183058 -0.196092
C31   C     C_R   0.668681 0.284960 0.645216 -0.243797
C32   C     C_R   0.334548 0.491977 0.359700 -0.240916
C33   C     C_R   0.626816 0.142471 0.639228 -0.081524
C34   C     C_R   0.372506 0.645597 0.361263 -0.083665
C35   C     C_R   0.631345 0.989244 0.682651 0.093725
C36   C     C_R   0.364258 0.785673 0.313126 0.092528
H1    H     H_    0.835528 0.812129 0.888058 0.126813
H2    H     H_    0.158044 0.857962 0.103079 0.129064
H3    H     H_    0.890272 0.357615 0.833005 0.131091
H4    H     H_    0.117833 0.314483 0.174126 0.131363
H5    H     H_    0.834523 0.525329 0.746842 0.134632
H6    H     H_    0.177687 0.182853 0.264956 0.137058
H7    H     H_    0.751548 0.542825 0.667331 0.137239
H8    H     H_    0.260050 0.207118 0.344958 0.135470
H9    H     H_    0.664878 0.403809 0.613360 0.138375
H10   H     H_    0.341112 0.382489 0.395070 0.139330
H11   H     H_    0.662933 0.694435 0.760976 0.146918
H12   H     H_    0.324283 0.053006 0.227082 0.148002
H13   H     H_    0.746931 0.676098 0.836611 0.137078
H14   H     H_    0.240997 0.030022 0.150830 0.133816
C37   C     C_3   0.223891 0.308972 0.779080 -0.364577
C38   C     C_3   0.775955 0.809134 0.220889 -0.364267
C39   C     C_3   0.263232 0.001068 0.817867 -0.318870
C40   C     C_3   0.736869 0.501577 0.182175 -0.318964
C41   C     C_3   0.313006 0.013960 0.770010 -0.260600
C42   C     C_3   0.687090 0.514366 0.230032 -0.260052
H15   H     H_    0.238004 0.375184 0.825626 0.198894
H16   H     H_    0.761771 0.875649 0.174331 0.198958
H17   H     H_    0.252883 0.852925 0.826596 0.180107
H18   H     H_    0.747342 0.353447 0.173482 0.180019
H19   H     H_    0.278678 0.061823 0.864898 0.162347
H20   H     H_    0.721368 0.562645 0.135131 0.162547
H21   H     H_    0.352207 0.079917 0.794323 0.189864
H22   H     H_    0.647836 0.580619 0.205711 0.190009
H23   H     H_    0.326708 0.872316 0.756423 0.236917
H24   H     H_    0.673504 0.372688 0.243646 0.237115
C43   C     C_1   0.378673 0.146494 0.624796 -0.099099
C44   C     C_1   0.621335 0.646327 0.375217 -0.099283
C45   C     C_3   0.207340 0.104068 0.791210 0.148731
C46   C     C_3   0.792676 0.604245 0.208803 0.148548
C47   C     C_3   0.273221 0.322767 0.730361 0.232629
C48   C     C_3   0.726627 0.822799 0.269622 0.232147
C49   C     C_3   0.292529 0.125854 0.708912 0.072413
C50   C     C_3   0.707485 0.625817 0.291107 0.072279
C51   C     C_3   0.236981 0.029705 0.677082 0.225984
C52   C     C_3   0.763112 0.529279 0.322948 0.225831
C53   C     C_3   0.187615 0.015229 0.725758 -0.354380
C54   C     C_3   0.812487 0.514965 0.274272 -0.354483
C55   C     C_1   0.340163 0.137753 0.662717 0.081624
C56   C     C_1   0.659850 0.637609 0.337302 0.081818
C57   C     C_1   0.159860 0.092088 0.837398 -0.045020
C58   C     C_1   0.840154 0.592348 0.162613 -0.044727
C59   C     C_1   0.121338 0.083373 0.875322 -0.175750
C60   C     C_1   0.878674 0.583607 0.124686 -0.175612
H25   H     H_    0.147492 0.086418 0.705352 0.130246
H26   H     H_    0.852546 0.585930 0.294660 0.130441
H27   H     H_    0.175514 0.868063 0.733577 0.199394
H28   H     H_    0.824721 0.367814 0.266481 0.199384
H29   H     H_    0.220287 0.114476 0.635258 0.096018
H30   H     H_    0.779737 0.613721 0.364762 0.096351
H31   H     H_    0.184561 0.386371 0.759712 0.136517
H32   H     H_    0.815222 0.886303 0.240227 0.136793
H33   H     H_    0.255697 0.400240 0.687216 0.148328
H34   H     H_    0.744099 0.899940 0.312751 0.148650
O11   O     O_R   0.942420 0.735670 0.056390 -0.531747
O12   O     O_R   0.057580 0.235670 0.943610 -0.531748
O13   O     O_R   0.061840 0.404850 0.068350 -0.541940
O14   O     O_R   0.938160 0.904850 0.931650 -0.541338
C61   C     C_R   0.081754 0.573483 0.084134 0.699750
C62   C     C_R   0.918459 0.073745 0.915624 0.699144
O15   O     O_R   0.943100 0.406010 0.064050 -0.534891
O16   O     O_R   0.056900 0.906010 0.935950 -0.535601
O17   O     O_R   0.938020 0.234710 0.939330 -0.538162
O18   O     O_R   0.061980 0.734710 0.060670 -0.538743
C63   C     C_R   0.924271 0.574516 0.078888 0.715834
C64   C     C_R   0.075735 0.074438 0.921119 0.713126
O19   O     O_3   0.998500 0.567790 0.959120 -0.375815
O20   O     O_3   0.001500 0.067790 0.040880 -0.375042
V3    V     V_3+5 0.000280 0.293330 0.007580 1.412596
V4    V     V_3+5 0.999720 0.793330 0.992420 1.411826
Cl1   Cl    Cl    0.253207 0.805427 0.645384 -0.660871
Cl2   Cl    Cl    0.747074 0.304840 0.354670 -0.660999
C65   C     C_3   0.581212 0.852968 0.687073 -0.714808
H35   H     H_    0.591577 0.722399 0.661957 0.208442
H36   H     H_    0.573366 0.822768 0.738172 0.198893
H37   H     H_    0.538817 0.909515 0.667284 0.209320
C66   C     C_3   0.410935 0.931272 0.304089 -0.716880
H38   H     H_    0.415825 0.959646 0.252275 0.200015
H39   H     H_    0.399423 0.061240 0.328918 0.207498
H40   H     H_    0.455132 0.883102 0.321491 0.212792
Cl3   Cl    Cl    0.333673 0.456321 0.763969 -0.658773
Cl4   Cl    Cl    0.666057 0.956781 0.236016 -0.659764

loop_
_geom_bond_atom_site_label_1
_geom_bond_atom_site_label_2
_ccdc_geom_bond_type
C40   C42   S    
C44   C56   T    
C28   H12   S    
C42   C50   S    
C41   H23   S    
C29   H13   S    
O12   V3    S    
C52   Cl2   S    
O2    C4    A    
C2    O7    A    
C49   C55   S    
C39   H19   S    
C27   C29   A    
C7    C62   S    
O5    C3    A    
C51   Cl1   S    
C48   Cl4   S    
O18   V4    S    
C53   H27   S    
C46   C58   S    
C11   C17   A    
C23   C25   A    
C12   C14   A    
O13   C61   A    
C50   C52   S    
C40   H20   S    
C45   C57   S    
C38   C48   S    
C5    C7    A    
C51   H29   S    
C40   H18   S    
C37   H15   S    
C32   H10   S    
C39   C41   S    
O1    C3    A    
C65   H37   S    
C48   H34   S    
C19   C21   A    
C61   O18   A    
C38   H16   S    
C25   C35   A    
C30   H14   S    
C26   C36   A    
C66   H40   S    
C45   C53   S    
C49   C51   S    
O6    V2    S    
C20   H8    S    
C54   H28   S    
C32   C34   A    
C35   C65   S    
O14   C62   A    
C33   C35   A    
C59   C64   S    
C42   H24   S    
C34   C36   A    
C41   C49   S    
C5    C15   A    
O12   C64   A    
C60   C63   S    
C6    C16   A    
C37   H31   S    
C5    H1    S    
C4    C33   S    
O5    V1    S    
C39   H17   S    
C47   H33   S    
C53   H25   S    
C20   C22   A    
O4    V2    S    
C18   C20   A    
C40   C46   S    
C8    C61   S    
C18   H6    S    
C15   C29   A    
C39   C45   S    
O6    C4    A    
C27   H11   S    
C22   C32   A    
O1    V2    S    
C1    C44   S    
C58   C60   T    
O2    V1    S    
C31   C33   A    
C38   C46   S    
O16   C64   A    
C13   C23   A    
O15   C63   A    
O4    C2    A    
C47   C49   S    
C52   C54   S    
C9    C11   A    
C65   H35   S    
C10   C12   A    
C36   C66   S    
C41   H21   S    
C9    H3    S    
O3    V1    S    
O20   V3    S    
C6    H2    S    
C10   H4    S    
C66   H38   S    
O19   V4    S    
C14   C24   A    
C38   H32   S    
C37   C45   S    
C7    C9    A    
C43   C55   T    
C8    C10   A    
C28   C30   A    
O3    C1    A    
C52   H30   S    
C42   H22   S    
C14   C16   A    
C46   C54   S    
C24   C26   A    
O7    V1    S    
C1    O8    A    
C25   C27   A    
O8    V2    S    
O14   V4    S    
C26   C28   A    
O13   V3    S    
C2    C43   S    
C57   C59   T    
C17   H5    S    
C16   C30   A    
C21   C23   A    
C22   C24   A    
C54   H26   S    
C6    C8    A    
C11   C13   A    
C12   C18   A    
C47   Cl3   S    
C31   H9    S    
O16   V4    S    
O15   V3    S    
C17   C19   A    
O9    V2    S    
C37   C47   S    
O17   V3    S    
C65   H36   S    
C51   C53   S    
O10   V1    S    
C48   C50   S    
C3    C34   S    
C50   C56   S    
O11   V4    S    
C19   H7    S    
C21   C31   A    
O11   C63   A    
C62   O17   A    
C66   H39   S    
C13   C15   A    
