data_mof_unit_14565.cif
_audit_creation_date              2012-12-10T18:32:01-0500
_audit_creation_method            fapswitch 2.2
_symmetry_space_group_name_H-M    P1
_symmetry_Int_Tables_number       1
_space_group_crystal_system       triclinic
_cell_length_a                    11.002092
_cell_length_b                    14.959163
_cell_length_c                    15.742427
_cell_angle_alpha                 82.590122
_cell_angle_beta                  90.983835
_cell_angle_gamma                 105.335873
_cell_volume                      2477.40884921

loop_
_atom_site_label
_atom_site_type_symbol
_atom_type_description
_atom_site_fract_x
_atom_site_fract_y
_atom_site_fract_z
_atom_type_partial_charge
C1    C     C_R   0.475292 0.442005 0.661712 1.027373
C2    C     C_R   0.484804 0.443521 0.899020 -0.055499
C3    C     C_R   0.466863 0.346941 0.929485 -0.098142
C4    C     C_R   0.742810 0.501239 0.500420 0.909973
C5    C     C_R   0.517913 0.511488 0.956464 0.128398
C6    C     C_R   0.502473 0.482121 0.045263 0.020558
C7    C     C_R   0.461156 0.384899 0.073323 -0.109630
C8    C     C_R   0.471765 0.321400 0.018431 -0.037621
C9    C     C_R   0.560640 0.608000 0.926964 -0.098205
C10   C     C_R   0.573894 0.674838 0.982476 -0.199217
C11   C     C_R   0.554567 0.647226 0.070102 0.153195
C12   C     C_3   0.120659 0.497402 0.500125 -0.144464
C13   C     C_R   0.526225 0.550988 0.102197 0.090355
C14   C     C_R   0.567476 0.714487 0.126637 -0.146113
C15   C     C_R   0.554326 0.686742 0.214892 -0.158057
C16   C     C_R   0.520413 0.558102 0.338403 0.853905
C17   C     C_R   0.528928 0.526618 0.190491 -0.242640
C18   C     C_R   0.660871 0.844486 0.646993 -0.265719
C19   C     C_R   0.641089 0.755820 0.623840 0.186605
C20   C     C_R   0.524598 0.794902 0.502948 -0.032828
C21   C     C_R   0.535645 0.885347 0.526630 0.038756
C22   C     C_R   0.604286 0.907679 0.601262 0.104786
C23   C     C_3   0.087495 0.550406 0.413580 -0.219446
C24   C     C_R   0.477622 0.952821 0.482499 -0.018760
C25   C     C_R   0.482059 0.036295 0.518791 -0.040511
C26   C     C_R   0.527088 0.043203 0.603051 0.359426
C27   C     C_R   0.602522 0.987340 0.637019 -0.256196
C28   C     C_R   0.257758 0.498898 0.499729 0.851008
C29   C     C_R   0.412332 0.938840 0.405483 -0.268034
C30   C     C_R   0.351263 0.003643 0.365121 0.450398
C31   C     C_R   0.367216 0.090439 0.396467 0.009749
C32   C     C_R   0.440168 0.108977 0.470361 -0.027776
C33   C     C_R   0.315202 0.160682 0.355209 -0.177729
C34   C     C_3   0.090379 0.543746 0.579737 -0.377770
C35   C     C_R   0.345509 0.248787 0.382345 0.001458
C36   C     C_R   0.474950 0.201802 0.490605 0.077339
C37   C     C_3   0.890224 0.394236 0.508584 -0.135320
C38   C     C_3   0.034643 0.392282 0.508829 -0.121949
C39   C     C_3   0.945181 0.550273 0.413148 -0.284169
C40   C     C_3   0.953964 0.557388 0.578650 0.602654
C41   C     C_3   0.880170 0.501887 0.502236 -0.199918
C42   C     C_1   0.824270 0.346998 0.435404 0.180097
C43   C     C_1   0.186428 0.626977 0.603271 0.539588
C44   C     C_1   0.918939 0.640165 0.379241 0.340536
C45   C     C_R   0.460416 0.407529 0.753802 -0.234111
C46   C     C_1   0.176181 0.642988 0.389601 0.313357
C47   C     C_1   0.500316 0.235845 0.055621 0.338435
C48   C     C_1   0.817604 0.333670 0.582641 0.288225
C49   C     C_1   0.366515 0.349286 0.140501 0.240034
C50   C     C_1   0.683549 0.689815 0.682314 0.387722
C51   C     C_1   0.067419 0.336787 0.587332 0.226348
C52   C     C_1   0.062535 0.342878 0.437716 0.218820
C53   C     C_R   0.535429 0.592206 0.246910 -0.069549
C54   C     C_R   0.431410 0.280529 0.870270 0.452681
C55   C     C_R   0.440307 0.312735 0.782722 -0.190992
C56   C     C_R   0.456485 0.468532 0.813591 0.370295
H1    H     H_    0.528297 0.456106 0.216312 0.169161
H2    H     H_    0.711822 0.861481 0.705046 0.151392
H3    H     H_    0.471430 0.771191 0.448427 0.136248
H4    H     H_    0.407149 0.877315 0.375716 0.189422
H5    H     H_    0.252537 0.149322 0.301879 0.230155
H6    H     H_    0.901330 0.506979 0.362958 0.137755
H7    H     H_    0.101716 0.510947 0.361026 0.132835
H8    H     H_    0.098063 0.492674 0.634131 0.217040
H9    H     H_    0.207206 0.058173 0.843250 0.409803
H10   H     H_    0.227154 0.592022 0.868944 0.404472
H11   H     H_    0.245451 0.042727 0.145713 0.418486
H12   H     H_    0.561124 0.738900 0.257763 0.173841
H13   H     H_    0.458067 0.987044 0.793722 0.377282
H14   H     H_    0.094796 0.813620 0.502667 0.404153
H15   H     H_    0.895190 0.545123 0.814185 0.384254
H16   H     H_    0.600968 0.748256 0.956808 0.161178
H17   H     H_    0.419268 0.263667 0.736765 0.273328
H18   H     H_    0.580394 0.632802 0.860184 0.175360
H19   H     H_    0.586935 0.788159 0.102562 0.165630
H20   H     H_    0.643381 0.997465 0.699458 0.176454
H21   H     H_    0.540930 0.221836 0.540774 0.149161
H22   H     H_    0.307478 0.303303 0.350718 0.171447
N1    N     N_R   0.573860 0.731700 0.552730 -0.119652
N2    N     N_1   0.717794 0.638916 0.732323 -0.119976
N3    N     N_1   0.093358 0.293769 0.648135 -0.078944
N4    N     N_1   0.081613 0.304244 0.382327 -0.188757
N5    N     N_R   0.426060 0.268290 0.447230 -0.120876
N6    N     N_1   0.773313 0.310468 0.379180 -0.181940
N7    N     N_1   0.260305 0.692332 0.621381 -0.074280
N8    N     N_1   0.897818 0.709888 0.351418 -0.089837
N9    N     N_1   0.246577 0.714871 0.369733 -0.146691
N10   N     N_1   0.524996 0.168236 0.085817 -0.076016
N11   N     N_1   0.759962 0.284738 0.639276 -0.070598
N12   N     N_1   0.287839 0.320816 0.192267 -0.197576
O1    O     O_R   0.462770 0.383110 0.605620 -0.610865
O2    O     O_2   0.269851 0.150619 0.979028 -0.308992
O3    O     O_3   0.254647 0.122565 0.820360 -0.455475
O4    O     O_2   0.414896 0.633009 0.746726 -0.352025
O5    O     O_2   0.244814 0.489715 0.742160 -0.328173
O6    O     O_3   0.287915 0.554982 0.886636 -0.522078
O7    O     O_2   0.270954 0.884030 0.247912 -0.276639
O8    O     O_2   0.123645 0.966002 0.294878 -0.279832
O9    O     O_3   0.307447 0.059588 0.191220 -0.553191
O10   O     O_2   0.548296 0.157344 0.722381 -0.317869
O11   O     O_2   0.347981 0.126767 0.644989 -0.259601
O12   O     O_R   0.510160 0.531900 0.639510 -0.585292
O13   O     O_3   0.387670 0.995418 0.756215 -0.467604
O14   O     O_2   0.852347 0.718445 0.536450 -0.299187
O15   O     O_2   0.002679 0.724798 0.649608 -0.240705
O16   O     O_3   0.081654 0.746916 0.495479 -0.594004
O17   O     O_2   0.743855 0.479549 0.683347 -0.360731
O18   O     O_2   0.924884 0.419853 0.720177 -0.305721
O19   O     O_3   0.932670 0.580323 0.758991 -0.478726
O20   O     O_R   0.661510 0.425600 0.483070 -0.637634
O21   O     O_R   0.708900 0.574390 0.516960 -0.547973
O22   O     O_R   0.489840 0.468100 0.360490 -0.634424
O23   O     O_R   0.537230 0.616890 0.394380 -0.630220
O24   O     O_R   0.291100 0.425610 0.483040 -0.623227
O25   O     O_R   0.338490 0.574400 0.516930 -0.636313
O26   O     O_2   0.443273 0.104076 0.916233 -0.263749
S1    S     S_3+6 0.349872 0.161405 0.899972 0.078394
S2    S     S_3+6 0.349948 0.539473 0.794414 0.017022
S3    S     S_3+6 0.259348 0.974718 0.273765 0.031160
S4    S     S_3+6 0.451635 0.085782 0.681118 0.041010
S5    S     S_3+6 0.966383 0.687604 0.565943 0.039441
S6    S     S_3+6 0.884779 0.506085 0.686092 0.027093
Zn1   Zn    Zn3+2 0.468350 0.400660 0.477370 0.995105
Zn2   Zn    Zn3+2 0.531650 0.599340 0.522630 1.045603

loop_
_geom_bond_atom_site_label_1
_geom_bond_atom_site_label_2
_ccdc_geom_bond_type
O4    S2    D    
O13   S4    S    
C49   N12   T    
C16   O23   A    
C7    C8    A    
C39   C41   S    
C40   S5    S    
C12   C23   S    
C26   C27   A    
C29   C30   A    
C12   C28   S    
C34   C40   S    
C15   C53   A    
O6    S2    S    
C26   S4    S    
C36   H21   S    
C30   C31   A    
C3    C54   A    
O12   Zn2   S    
O19   S6    S    
C38   C52   S    
C4    C41   S    
C36   N5    A    
O26   S1    D    
C18   C19   A    
C37   C42   S    
C16   C53   S    
C33   C35   A    
C24   C29   A    
C18   H2    S    
C45   C56   A    
C31   C33   A    
O10   S4    D    
C9    C10   A    
C51   N3    T    
H11   O9    S    
C25   C32   A    
H9    O3    S    
C1    O1    A    
C23   C46   S    
O1    Zn1   S    
C21   C22   A    
C12   C38   S    
O3    S1    S    
C44   N8    T    
H13   O13   S    
O5    S2    D    
C43   N7    T    
O8    S3    D    
C42   N6    T    
C24   C25   A    
C7    C49   S    
O22   Zn1   S    
C3    C8    A    
H14   O16   S    
C35   N5    A    
O14   S5    D    
C25   C26   A    
C20   H3    S    
O7    S3    D    
C19   N1    A    
O2    S1    D    
C5    C9    A    
C37   C38   S    
C28   O25   A    
O20   Zn1   S    
C31   C32   A    
C29   H4    S    
C34   H8    S    
O15   S5    D    
C37   C48   S    
C52   N4    T    
C6    C7    A    
C28   O24   A    
O24   Zn1   S    
C40   C41   S    
C4    O21   A    
C22   C27   A    
C21   C24   A    
C2    C5    A    
C9    H18   S    
C12   C34   S    
C27   H20   S    
C17   C53   A    
C16   O22   A    
H10   O6    S    
C46   N9    T    
C39   H6    S    
C4    O20   A    
C54   C55   A    
O25   Zn2   S    
C20   N1    A    
O21   Zn2   S    
C18   C22   A    
O11   S4    D    
C56   S2    S    
C34   C43   S    
O18   S6    D    
C50   N2    T    
C32   C36   A    
C39   C44   S    
C38   C51   S    
C40   S6    S    
N1    Zn2   S    
C35   H22   S    
C13   C17   A    
C48   N11   T    
C14   H19   S    
C2    C3    A    
C8    C47   S    
C2    C56   A    
C47   N10   T    
C6    C13   A    
C11   C13   A    
C19   C50   S    
C1    C45   S    
C5    C6    A    
O23   Zn2   S    
C23   C39   S    
C15   H12   S    
H15   O19   S    
O16   S5    S    
C23   H7    S    
C11   C14   A    
C37   C41   S    
C10   C11   A    
O9    S3    S    
C55   H17   S    
C20   C21   A    
C45   C55   A    
C33   H5    S    
C30   S3    S    
C54   S1    S    
C14   C15   A    
O17   S6    D    
N5    Zn1   S    
C1    O12   A    
C17   H1    S    
C10   H16   S    
