data_mof_unit_58790.cif
_audit_creation_date              2013-03-05T16:11:38-0500
_audit_creation_method            fapswitch 2.2
_symmetry_space_group_name_H-M    P1
_symmetry_Int_Tables_number       1
_space_group_crystal_system       triclinic
_cell_length_a                    8.58256
_cell_length_b                    17.046528
_cell_length_c                    19.001861
_cell_angle_alpha                 111.270511
_cell_angle_beta                  85.818297
_cell_angle_gamma                 97.514475
_cell_volume                      2567.41997663

loop_
_atom_site_label
_atom_site_type_symbol
_atom_site_description
_atom_site_fract_x
_atom_site_fract_y
_atom_site_fract_z
_atom_type_partial_charge
P1    P     P_3+3 0.571100 0.575270 0.673500 0.606513
O1    O     O_2   0.390320 0.549400 0.679900 -0.286299
O2    O     O_3   0.642260 0.547940 0.592270 -0.318475
O3    O     O_3   0.101430 0.389200 0.608960 -0.298299
O4    O     O_2   0.186922 0.463974 0.752145 -0.268337
O5    O     O_3   0.604801 0.684298 0.725583 -0.626647
O6    O     O_3   0.078758 0.304869 0.710621 -0.438249
H1    H     H_    0.060857 0.236719 0.595585 0.033176
C1    C     C_3   0.998785 0.156497 0.659341 0.246638
H2    H     H_    0.928615 0.107758 0.613295 0.088902
H3    H     H_    0.121321 0.140299 0.654796 0.204480
P2    P     P_3+3 0.077880 0.297790 0.409490 0.639038
P3    P     P_3+3 0.497469 0.236544 0.552920 0.579731
O7    O     O_2   0.246270 0.285030 0.428370 -0.342697
O8    O     O_3   0.502600 0.343750 0.565720 -0.368505
O9    O     O_2   0.366125 0.191020 0.495415 -0.310049
O10   O     O_3   0.087481 0.258167 0.309835 -0.557310
O11   O     O_3   0.427211 0.219461 0.636715 -0.575133
C2    C     C_3   0.496739 0.284889 0.699864 1.344470
H4    H     H_    0.621202 0.303796 0.686027 -0.791095
C3    C     C_3   0.504950 0.257199 0.769047 0.582437
C4    C     C_3   0.597150 0.273397 0.335962 0.689434
H5    H     H_    0.515123 0.300840 0.383666 0.135157
C5    C     C_3   0.537687 0.179900 0.294920 0.062588
H6    H     H_    0.616316 0.151043 0.245227 0.149260
H7    H     H_    0.420353 0.175200 0.272309 0.168974
Ba1   Ba    Ba6+2 0.331680 0.458770 0.526950 1.302312
C6    C     C_3   0.567665 0.733192 0.686137 0.843487
H8    H     H_    0.632231 0.716354 0.630779 0.072742
C7    C     C_3   0.616644 0.826305 0.733172 -0.063084
H9    H     H_    0.555885 0.843171 0.789565 0.185567
H10   H     H_    0.744442 0.835884 0.742123 0.094481
C8    C     C_3   0.132261 0.317481 0.274902 1.111189
C9    C     C_3   0.095465 0.274550 0.189571 0.595141
H11   H     H_    0.120748 0.323092 0.162549 0.076527
P4    P     P_3+3 0.618570 0.424660 0.326480 0.645928
O12   O     O_2   0.799370 0.450570 0.320050 -0.262370
O13   O     O_3   0.547420 0.451990 0.407710 -0.304930
O14   O     O_3   0.088250 0.610730 0.391020 -0.206802
O15   O     O_3   0.609210 0.314288 0.283792 -0.538315
P5    P     P_3+3 0.703007 0.765277 0.453460 0.534047
O16   O     O_3   0.160890 0.606020 0.554260 -0.180666
O17   O     O_3   0.687070 0.656180 0.434260 -0.374601
O18   O     O_2   0.875260 0.798617 0.475465 -0.248409
O19   O     O_3   0.694133 0.778218 0.366230 -0.470330
Ba2   Ba    Ba6+2 0.858120 0.541160 0.473030 1.652492
P6    P     P_3+3 0.054726 0.401585 0.703417 0.610708
C10   C     C_3   0.999633 0.241045 0.650297 0.275418
H12   H     H_    0.875271 0.252458 0.649169 0.097445
O20   O     O_3   0.028790 0.393910 0.445720 -0.251259
C11   C     C_3   0.062551 0.815597 0.736388 0.087456
H13   H     H_    0.000078 0.842512 0.704753 0.154933
H14   H     H_    0.976602 0.803518 0.778876 0.130274
C12   C     C_3   0.196048 0.879904 0.778685 0.040446
H15   H     H_    0.152486 0.942919 0.807366 0.140974
H16   H     H_    0.290655 0.887076 0.737977 0.185125
P7    P     P_3+3 0.122232 0.717095 0.593692 0.733826
O21   O     O_2   0.943420 0.714940 0.571590 -0.298452
O22   O     O_3   0.117567 0.738261 0.691831 -0.429192
H17   H     H_    0.605546 0.297801 0.802601 0.006352
C13   C     C_3   0.726007 0.703017 0.307348 0.359552
H18   H     H_    0.828202 0.677193 0.319525 0.219211
H19   H     H_    0.622767 0.655056 0.298871 0.000897
C14   C     C_3   0.760224 0.719450 0.234007 -0.812719
H20   H     H_    0.852178 0.773926 0.242209 0.279827
H21   H     H_    0.801776 0.662387 0.189782 0.214022
H22   H     H_    0.651626 0.733037 0.214567 0.277841
P8    P     P_3+3 0.125721 0.597307 0.295005 0.569506
C15   C     C_3   0.242908 0.727938 0.259409 0.157901
H23   H     H_    0.256490 0.693006 0.197897 0.059259
O23   O     O_2   0.983747 0.538167 0.252145 -0.393379
O24   O     O_3   0.103481 0.694615 0.287108 -0.524870
H24   H     H_    0.347814 0.724567 0.288612 0.077714
C16   C     C_3   0.231361 0.820868 0.271205 0.586991
H25   H     H_    0.136886 0.823061 0.235298 0.029869
N1    N     N_R   0.697061 0.504564 0.049759 -0.019297
N2    N     N_R   0.741809 0.504893 0.980917 -0.060915
C17   C     C_2   0.800191 0.501037 0.711343 0.156657
C18   C     C_3   0.850177 0.432974 0.735555 0.207331
C19   C     C_2   0.812447 0.452397 0.818556 -0.319067
C20   C     C_2   0.685441 0.493710 0.850259 0.046597
C21   C     C_2   0.598948 0.527058 0.801399 -0.266330
C22   C     C_1   0.660562 0.527787 0.734158 0.115160
N3    N     N_R   0.480792 0.502002 0.952968 -0.013090
N4    N     N_R   0.435740 0.500058 0.021353 -0.054016
C23   C     C_R   0.542241 0.498840 0.070802 0.198014
C24   C     C_R   0.634755 0.502565 0.930370 0.212095
C25   C     C_R   0.565210 0.456099 0.188396 0.266916
C26   C     C_R   0.531413 0.476497 0.268756 0.089570
C27   C     C_R   0.315044 0.550977 0.257682 0.084639
C28   C     C_R   0.356215 0.535567 0.181811 -0.425283
C29   C     C_R   0.490265 0.496820 0.148150 -0.045116
C30   C     C_R   0.414703 0.531072 0.304075 0.045507
H26   H     H_    0.876282 0.424898 0.849506 0.191491
H27   H     H_    0.491979 0.556141 0.823622 0.198492
H28   H     H_    0.282922 0.555029 0.148605 0.196900
C31   C     C_2   0.438329 0.778029 0.550245 -0.240402
C32   C     C_R   0.813569 0.253155 0.498105 0.164842
C33   C     C_2   0.249811 0.882367 0.586143 0.361788
C34   C     C_2   0.273112 0.800480 0.574090 0.088924
C35   C     C_2   0.546556 0.823080 0.519363 0.152729
C36   C     C_3   0.499469 0.904462 0.515501 0.009534
C37   C     C_3   0.390294 0.944066 0.582551 0.179498
C38   C     C_2   0.628489 0.969504 0.504874 -0.165399
C39   C     C_2   0.593654 0.045791 0.507033 0.066814
C40   C     C_R   0.827658 0.079268 0.434641 0.151292
C41   C     C_R   0.708543 0.108922 0.487740 -0.269819
C42   C     C_R   0.932899 0.132982 0.408757 0.308213
C43   C     C_R   0.936526 0.222545 0.444127 0.042221
C44   C     C_R   0.689873 0.196207 0.512728 0.180942
H29   H     H_    0.463572 0.717856 0.548704 0.212900
H30   H     H_    0.746719 0.951992 0.489322 0.230804
H31   H     H_    0.475075 0.061970 0.523588 0.169245
O25   O     O_3   0.526404 0.135503 0.344712 -0.636112
H32   H     H_    0.623771 0.107538 0.337116 0.342121
O26   O     O_3   0.406450 0.720568 0.677098 -0.744209
H33   H     H_    0.358595 0.719701 0.726064 0.387088
O27   O     O_3   0.579920 0.879070 0.696498 -0.781368
H34   H     H_    0.613997 0.937906 0.730102 0.357884
O28   O     O_3   0.292035 0.344013 0.283987 -0.817447
H35   H     H_    0.344627 0.292264 0.260453 0.301609
O29   O     O_3   0.048458 0.387016 0.306156 -0.653107
H36   H     H_    0.093725 0.428381 0.282875 0.305511
O30   O     O_3   0.190498 0.209390 0.152569 -0.740771
H37   H     H_    0.157463 0.162846 0.171978 0.377044
O31   O     O_3   0.936106 0.242045 0.181107 -0.677666
H38   H     H_    0.916847 0.220379 0.126103 0.366646
O32   O     O_3   0.932065 0.161165 0.729956 -0.588136
H39   H     H_    0.906215 0.102041 0.727979 0.402151
O33   O     O_3   0.257022 0.853350 0.831764 -0.699655
H40   H     H_    0.181535 0.865342 0.875542 0.334835
S1    S     S_3+6 0.410899 0.868147 0.241882 -0.047376
O34   O     O_2   0.386037 0.953054 0.240137 -0.210187
O35   O     O_2   0.538693 0.879190 0.295839 -0.281750
O36   O     O_3   0.463969 0.805499 0.154666 -0.595155
H41   H     H_    0.565554 0.833914 0.143134 0.385182
S2    S     S_3+6 0.180668 0.879037 0.368001 0.063051
O37   O     O_2   0.005006 0.874273 0.376922 -0.185012
O38   O     O_2   0.240046 0.839562 0.418159 -0.317170
O39   O     O_3   0.253771 0.981661 0.394828 -0.398627
H42   H     H_    0.367645 0.982348 0.400070 0.373526
O40   O     O_3   0.409896 0.354135 0.720996 -0.710401
H43   H     H_    0.456900 0.392364 0.694958 0.339899
S3    S     S_3+6 0.670246 0.368061 0.135432 0.034170
O41   O     O_2   0.834322 0.383866 0.163481 -0.224208
O42   O     O_2   0.588831 0.289252 0.145557 -0.235910
O43   O     O_3   0.681489 0.347252 0.041836 -0.482622
H44   H     H_    0.576936 0.318086 0.023117 0.387643
S4    S     S_3+6 0.944498 0.566736 0.683851 0.045666
O44   O     O_2   0.988222 0.515062 0.604680 -0.166446
O45   O     O_2   0.880633 0.644019 0.684436 -0.300795
O46   O     O_3   0.100544 0.597709 0.739634 -0.483186
H45   H     H_    0.057438 0.627523 0.790888 0.321178
S5    S     S_3+6 0.371237 0.572198 0.404022 0.011520
O47   O     O_2   0.229837 0.514927 0.413579 -0.188786
O48   O     O_2   0.471461 0.581942 0.468234 -0.222062
O49   O     O_3   0.340867 0.672653 0.420083 -0.556593
H46   H     H_    0.415403 0.692042 0.386257 0.316357
S6    S     S_3+6 0.075404 0.932679 0.611669 -0.070993
O50   O     O_2   0.097361 0.997997 0.689323 -0.349200
O51   O     O_2   0.064012 0.976815 0.556989 -0.280964
O52   O     O_3   0.903726 0.874022 0.612960 -0.535997
H47   H     H_    0.823423 0.912958 0.619151 0.378335
S7    S     S_3+6 0.024777 0.081647 0.321019 0.014031
O53   O     O_2   0.957249 0.104266 0.261066 -0.317311
O54   O     O_2   0.198412 0.107219 0.324912 -0.181491
O55   O     O_3   0.988820 0.976218 0.297011 -0.435515
H48   H     H_    0.023933 0.952697 0.243367 0.361357
O56   O     O_3   0.810037 0.338564 0.535285 -0.684804
H49   H     H_    0.771473 0.360454 0.498929 0.385983
S8    S     S_3+6 0.337687 0.274891 0.833994 0.067985
O57   O     O_2   0.202315 0.209227 0.801905 -0.184391
O58   O     O_2   0.382968 0.268057 0.906279 -0.269124
O59   O     O_3   0.280214 0.371328 0.853703 -0.502597
H50   H     H_    0.182789 0.372020 0.885169 0.381698
S9    S     S_3+6 0.547659 0.150035 0.743698 -0.000276
O60   O     O_2   0.641190 0.123683 0.670829 -0.355988
O61   O     O_2   0.640733 0.144723 0.805563 -0.247440
O62   O     O_3   0.381576 0.083525 0.733448 -0.468252
H51   H     H_    0.400369 0.043350 0.757994 0.367506
O63   O     O_3   0.744856 0.279519 0.363274 -0.804040
H52   H     H_    0.811809 0.253475 0.318307 0.372998

loop_
_geom_bond_atom_site_label_1
_geom_bond_atom_site_label_2
_geom_bond_distance
_ccdc_geom_bond_type
P4    C26   1.881285 S    
C33   C37   1.507636 S    
S8    O57   1.497518 D    
C5    O25   1.401540 S    
C35   C36   1.522509 S    
C32   C44   1.424710 A    
C16   S1    1.791679 S    
C13   C14   1.519516 S    
O56   H49   0.989293 S    
C2    H4    1.115603 S    
N3    C24   1.359224 A    
P6    C18   1.895642 S    
O32   H39   0.990788 S    
O3    Ba1   2.831738 S    
O25   H32   0.991511 S    
P7    O21   1.612756 D    
O36   H41   0.990692 S    
N4    C23   1.364995 A    
O26   H33   0.993628 S    
S2    O38   1.498929 D    
C6    H8    1.110629 S    
S7    O54   1.496355 D    
O31   H38   0.992628 S    
P3    O11   1.770364 S    
C16   S2    1.796792 S    
C39   H31   1.083762 S    
S7    O53   1.501928 D    
C2    C3    1.558325 S    
C5    H7    1.105502 S    
P1    O1    1.564933 D    
C4    O63   1.381782 S    
C33   S6    1.771858 S    
S4    O45   1.487790 D    
C7    H9    1.112228 S    
C31   H29   1.065534 S    
P7    O22   1.764675 S    
C40   C41   1.390452 A    
Ba1   O13   2.798156 S    
C42   C43   1.424684 A    
C9    H11   1.113787 S    
O16   Ba2   2.992093 S    
C13   H19   1.102396 S    
O27   H34   0.992498 S    
C38   C39   1.357703 D    
C6    O26   1.385721 S    
O43   H44   0.990182 S    
C28   H28   1.080851 S    
O59   H50   0.990627 S    
C32   O56   1.371818 S    
C17   C22   1.325030 D    
S9    O62   1.677131 S    
O5    C6    1.384084 S    
C25   C29   1.433214 A    
S1    O34   1.502720 D    
P2    O10   1.764267 S    
P8    C27   1.878336 S    
S6    O51   1.502128 D    
P4    Ba2   3.417620 S    
O1    Ba1   2.799837 S    
O7    Ba1   2.902574 S    
C1    H2    1.112237 S    
S5    O48   1.491624 D    
C13   H18   1.105029 S    
Ba1   O20   2.992974 S    
P8    O24   1.754431 S    
C39   C41   1.490244 S    
S9    O61   1.503763 D    
C32   C43   1.426807 A    
Ba2   O21   2.902821 S    
O49   H46   0.985130 S    
P5    O17   1.748959 S    
C36   C37   1.524568 S    
O10   C8    1.399570 S    
S3    O43   1.680588 S    
O16   P7    1.831760 S    
P2    C43   1.907697 S    
S2    O39   1.681187 S    
C20   C21   1.526441 S    
N1    N2    1.337984 A    
O39   H42   0.987726 S    
C12   O33   1.402206 S    
S8    O59   1.680630 S    
C12   H16   1.106170 S    
C1    O32   1.398966 S    
C16   H25   1.109731 S    
P2    Ba1   3.458116 S    
C11   H13   1.082028 S    
C14   H22   1.107947 S    
S1    O36   1.681520 S    
P4    O15   1.751288 S    
N3    N4    1.339313 A    
C3    H17   1.111202 S    
S3    O42   1.500807 D    
S4    O46   1.676905 S    
C28   C29   1.397833 A    
C38   H30   1.085165 S    
C17   C18   1.512654 S    
O11   C2    1.413940 S    
C7    O27   1.398194 S    
O63   H52   0.988585 S    
P7    C34   1.915308 S    
C18   C19   1.508863 S    
C11   H14   1.110128 S    
O6    P6    1.742465 S    
C15   O24   1.406737 S    
C36   C38   1.518211 S    
H1    C10   1.112307 S    
O14   P8    1.765005 S    
P3    C44   1.874825 S    
C42   S7    1.759935 S    
O8    Ba1   2.914931 S    
S6    O50   1.498721 D    
C9    O31   1.404532 S    
C3    S9    1.792894 S    
C4    O15   1.395294 S    
P5    O18   1.543180 D    
C8    C9    1.554884 S    
S6    O52   1.672901 S    
C15   C16   1.532901 S    
C5    H6    1.116192 S    
C15   H24   1.109693 S    
C1    H3    1.111360 S    
S5    O47   1.498472 D    
C20   C24   1.511011 S    
S5    O49   1.679112 S    
O14   Ba2   2.831119 S    
Ba1   Ba2   4.762946 S    
C10   H12   1.112746 S    
P2    O7    1.574524 D    
C2    O40   1.397389 S    
P3    O8    1.748951 S    
C8    O29   1.387428 S    
C41   C44   1.415505 A    
C4    C5    1.533733 S    
C19   C20   1.358028 D    
C11   O22   1.404425 S    
C19   H26   1.086243 S    
P4    O13   1.545190 S    
N1    C23   1.360839 A    
C1    C10   1.511145 S    
O55   H48   0.990403 S    
C31   C34   1.511579 S    
O28   H35   0.985077 S    
C27   C30   1.423645 A    
O52   H47   0.990221 S    
C12   H15   1.114109 S    
P4    O12   1.565281 D    
C9    O30   1.407146 S    
C21   H27   1.085155 S    
C4    H5    1.105234 S    
S7    O55   1.677458 S    
S3    O41   1.498569 D    
C30   S5    1.799042 S    
P2    O20   1.629726 S    
P1    C22   1.881950 S    
S2    O37   1.499651 D    
Ba2   O20   2.936194 S    
O2    Ba2   2.798785 S    
C33   C34   1.369433 D    
C11   C12   1.525440 S    
C14   H20   1.109390 S    
O2    Ba1   3.001711 S    
O33   H40   0.993069 S    
O12   Ba2   2.800390 S    
C6    C7    1.531639 S    
C3    S8    1.805439 S    
S4    O44   1.490853 D    
O6    C10   1.405068 S    
C7    H10   1.104017 S    
Ba1   O16   2.936808 S    
C27   C28   1.395546 A    
C40   C42   1.393476 A    
P8    O23   1.546629 D    
O19   C13   1.405859 S    
O4    P6    1.548816 D    
P5    C35   1.883517 S    
C26   C30   1.418422 A    
C15   H23   1.108006 S    
O17   Ba2   2.915610 S    
O13   Ba2   3.002587 S    
S9    O60   1.498116 D    
O62   H51   0.992057 S    
S8    O58   1.502341 D    
C25   C26   1.453727 A    
N2    C24   1.363751 A    
C8    O28   1.389387 S    
S1    O35   1.503189 D    
C21   C22   1.350408 D    
P3    O9    1.550014 D    
P1    O5    1.756114 S    
P1    Ba1   3.416968 S    
P5    O19   1.757820 S    
O40   H43   0.984013 S    
C23   C29   1.515729 S    
O46   H45   0.990551 S    
P1    O2    1.545218 S    
O29   H36   0.986623 S    
C25   S3    1.789831 S    
C31   C35   1.363015 D    
C17   S4    1.740234 S    
C14   H21   1.110629 S    
O30   H37   0.992032 S    
O3    P6    1.751870 S    
