data_mof_unit_18678.cif
_audit_creation_date              2012-10-26T19:48:47-0400
_audit_creation_method            fapswitch 2.2
_symmetry_space_group_name_H-M    P1
_symmetry_Int_Tables_number       1
_space_group_crystal_system       triclinic
_cell_length_a                    10.731829
_cell_length_b                    9.523699
_cell_length_c                    27.690802
_cell_angle_alpha                 90.860476
_cell_angle_beta                  87.970138
_cell_angle_gamma                 89.928027
_cell_volume                      2828.08632136

loop_
_atom_site_label
_atom_site_type_symbol
_atom_type_description
_atom_site_fract_x
_atom_site_fract_y
_atom_site_fract_z
_atom_type_partial_charge
C1    C     C_R   0.259944 0.499820 0.499230 0.543310
C2    C     C_R   0.531641 0.359537 0.971803 -0.012655
C3    C     C_R   0.587924 0.609756 0.973240 0.026661
C4    C     C_R   0.500807 0.499027 0.407631 0.535334
C5    C     C_R   0.560141 0.485196 0.947094 0.010496
C6    C     C_R   0.528825 0.233645 0.944506 -0.091470
C7    C     C_R   0.528843 0.233015 0.893979 0.267361
C8    C     C_R   0.542803 0.360589 0.869161 0.031200
C9    C     C_R   0.561943 0.486033 0.895789 -0.073305
C10   C     C_R   0.582542 0.612785 0.871103 0.020543
C11   C     C_R   0.577671 0.613821 0.820592 0.392098
C12   C     C_R   0.570050 0.382093 0.278979 -0.058667
C13   C     C_R   0.538791 0.367251 0.818354 0.414847
C14   C     C_R   0.420050 0.499940 0.726033 -0.061368
C15   C     C_R   0.403099 0.500726 0.675526 0.220229
C16   C     C_R   0.739724 0.499669 0.499007 0.533279
C17   C     C_R   0.629890 0.501907 0.663410 -0.192849
C18   C     C_R   0.644630 0.499502 0.713082 -0.076419
C19   C     C_R   0.539862 0.498030 0.744394 0.201253
C20   C     C_R   0.511831 0.363054 0.022959 0.029791
C21   C     C_R   0.549986 0.484513 0.049017 -0.004605
C22   C     C_R   0.593989 0.605293 0.024262 0.021128
C23   C     C_R   0.519209 0.492786 0.253150 0.232119
C24   C     C_R   0.452075 0.251885 0.048898 0.255784
C25   C     C_R   0.640680 0.715626 0.101678 -0.117355
C26   C     C_R   0.607979 0.734999 0.947373 -0.147333
C27   C     C_R   0.605174 0.736169 0.897287 -0.117636
C28   C     C_R   0.500144 0.500893 0.592208 0.578440
C29   C     C_R   0.642609 0.717891 0.051524 -0.153821
C30   C     C_3   0.066336 0.565810 0.545793 -0.241310
C31   C     C_3   0.071455 0.346684 0.493251 -0.233951
C32   C     C_3   0.922912 0.561373 0.546531 -0.239659
C33   C     C_3   0.928908 0.346586 0.492443 -0.238260
C34   C     C_R   0.542993 0.486295 0.100263 -0.042971
C35   C     C_3   0.075785 0.583959 0.455014 -0.236661
C36   C     C_3   0.121615 0.499082 0.498345 0.048653
C37   C     C_3   0.877724 0.498753 0.498358 0.058149
C38   C     C_3   0.931650 0.587092 0.455822 -0.232704
C39   C     C_3   0.629116 0.082576 0.501760 -0.136754
C40   C     C_3   0.625263 0.918429 0.510446 -0.155081
C41   C     C_3   0.431390 0.088705 0.546016 0.660752
C42   C     C_3   0.403578 0.918150 0.537753 0.652860
C43   C     C_3   0.447523 0.080270 0.456477 -0.159303
C44   C     C_3   0.465840 0.915018 0.453458 -0.139209
C45   C     C_R   0.488394 0.373813 0.125384 -0.019917
C46   C     C_R   0.478882 0.379439 0.176133 0.400397
C47   C     C_R   0.582459 0.600684 0.177225 0.399506
C48   C     C_R   0.461009 0.605151 0.278483 -0.058091
C49   C     C_R   0.455520 0.607826 0.328903 -0.152009
C50   C     C_R   0.561866 0.382998 0.329326 -0.152049
C51   C     C_3   0.507637 0.059466 0.630721 -0.111028
C52   C     C_3   0.312030 0.805153 0.607776 -0.049875
C53   C     C_3   0.276068 0.205844 0.598770 -0.071962
C54   C     C_3   0.178104 0.964614 0.521151 -0.151418
C55   C     C_3   0.185874 0.470707 0.685657 -0.177617
C56   C     C_R   0.440350 0.260329 0.099569 -0.094249
C57   C     C_3   0.408156 0.043750 0.875802 -0.083661
C58   C     C_3   0.419110 0.013207 0.040000 -0.143646
C59   C     C_R   0.588913 0.601830 0.126501 0.037111
C60   C     C_R   0.505421 0.496383 0.354622 0.003758
C61   C     C_R   0.510412 0.502558 0.644642 0.032648
Cu1   Cu    Cu3+1 0.499860 0.642410 0.500020 0.963402
Cu2   Cu    Cu3+1 0.499860 0.357590 0.500020 0.964577
H1    H     H_    0.601986 0.296539 0.348501 0.115628
H2    H     H_    0.888285 0.496423 0.577251 0.102074
H3    H     H_    0.891551 0.279670 0.522235 0.113442
H4    H     H_    0.616372 0.295390 0.259999 0.144553
H5    H     H_    0.885234 0.669477 0.552508 0.116308
H6    H     H_    0.898858 0.299227 0.457743 0.116739
H7    H     H_    0.899065 0.697839 0.459620 0.115868
H8    H     H_    0.898052 0.544998 0.420910 0.115329
H9    H     H_    0.685524 0.133992 0.529832 0.166580
H10   H     H_    0.651828 0.895303 0.547931 0.142510
H11   H     H_    0.681032 0.103954 0.467080 0.089978
H12   H     H_    0.420180 0.690639 0.259077 0.144289
H13   H     H_    0.697522 0.869182 0.485984 0.116800
H14   H     H_    0.494808 0.125056 0.423904 0.125719
H15   H     H_    0.539941 0.889590 0.425488 0.109744
H16   H     H_    0.390258 0.178780 0.118838 0.167222
H17   H     H_    0.410994 0.695947 0.347773 0.113486
H18   H     H_    0.622035 0.835172 0.965009 0.103028
H19   H     H_    0.101002 0.509616 0.577529 0.124074
H20   H     H_    0.100337 0.282482 0.523983 0.142291
H21   H     H_    0.111916 0.693239 0.456396 0.140862
H22   H     H_    0.111847 0.535363 0.420472 0.110729
H23   H     H_    0.678708 0.804718 0.120940 0.164281
H24   H     H_    0.571129 0.967453 0.631152 0.161798
H25   H     H_    0.412860 0.032462 0.643883 0.123229
H26   H     H_    0.543488 0.135939 0.657446 0.146757
H27   H     H_    0.271807 0.712226 0.589790 0.199025
H28   H     H_    0.242124 0.888383 0.613853 0.068884
H29   H     H_    0.339060 0.773020 0.644226 0.149578
H30   H     H_    0.348620 0.109884 0.453688 0.126621
H31   H     H_    0.380206 0.864385 0.440041 0.162266
H32   H     H_    0.346639 0.259766 0.620183 0.202542
H33   H     H_    0.236443 0.115964 0.618549 0.053564
H34   H     H_    0.711821 0.502358 0.639422 0.098226
H35   H     H_    0.198792 0.281909 0.596050 0.126551
H36   H     H_    0.187167 0.053527 0.496282 0.136829
H37   H     H_    0.148531 0.996854 0.558107 0.123967
H38   H     H_    0.098726 0.903003 0.507641 0.101352
H39   H     H_    0.166826 0.557396 0.712213 0.131786
H40   H     H_    0.201206 0.368888 0.703760 0.122898
H41   H     H_    0.101276 0.458473 0.664144 0.123262
H42   H     H_    0.342140 0.501010 0.751868 0.105320
H43   H     H_    0.331588 0.117548 0.867294 0.131917
H44   H     H_    0.394814 0.003853 0.913150 0.108107
H45   H     H_    0.620778 0.834815 0.879125 0.198702
H46   H     H_    0.402128 0.952268 0.850719 0.168250
H47   H     H_    0.532685 0.133043 0.961633 0.160024
H48   H     H_    0.360804 0.983351 0.072122 0.142913
H49   H     H_    0.520058 0.003720 0.047576 0.101733
H50   H     H_    0.399579 0.936445 0.010707 0.140313
H51   H     H_    0.737325 0.497955 0.727289 0.130540
H52   H     H_    0.686044 0.807996 0.034934 0.106567
H53   H     H_    0.095956 0.677016 0.548806 0.136177
H54   H     H_    0.110373 0.296115 0.459465 0.117167
N1    N     N_R   0.526957 0.491015 0.201105 -0.391874
N2    N     N_R   0.554267 0.492701 0.795557 -0.407534
N3    N     N_3   0.500250 0.143650 0.501060 -0.214948
N4    N     N_3   0.500250 0.856350 0.501060 -0.216115
O1    O     O_R   0.317570 0.620260 0.500030 -0.458901
O2    O     O_2   0.518072 0.250295 0.791753 -0.447632
O3    O     O_2   0.632166 0.707920 0.202449 -0.506722
O4    O     O_2   0.594321 0.735167 0.796655 -0.488710
O5    O     O_3   0.514591 0.123087 0.584879 -0.579175
O6    O     O_3   0.420934 0.850909 0.582324 -0.570480
O7    O     O_3   0.318875 0.168160 0.551353 -0.566496
O8    O     O_3   0.283990 0.876446 0.519096 -0.574874
O9    O     O_3   0.287060 0.504756 0.654121 -0.631140
O10   O     O_3   0.526566 0.106144 0.868896 -0.525467
O11   O     O_3   0.386547 0.148812 0.024439 -0.578263
O12   O     O_R   0.317570 0.379740 0.500030 -0.465823
O13   O     O_R   0.499900 0.620250 0.430280 -0.521151
O14   O     O_R   0.499900 0.379750 0.430280 -0.523216
O15   O     O_R   0.682190 0.620260 0.500010 -0.528201
O16   O     O_R   0.682190 0.379740 0.500010 -0.525701
O17   O     O_R   0.499860 0.620280 0.569750 -0.449013
O18   O     O_R   0.499860 0.379720 0.569750 -0.437196
O19   O     O_2   0.420981 0.274649 0.200301 -0.506582

loop_
_geom_bond_atom_site_label_1
_geom_bond_atom_site_label_2
_ccdc_geom_bond_type
C10   C27   A    
C38   H7    S    
C8    C13   A    
C22   C29   A    
C53   H32   S    
C50   H1    S    
C41   C42   S    
C54   H38   S    
C52   H27   S    
C35   C36   S    
C41   O7    S    
C11   N2    A    
C18   H51   S    
C23   N1    S    
C7    C8    A    
C30   H53   S    
C45   C46   A    
C40   N4    S    
C55   H39   S    
C26   C27   A    
C37   C38   S    
C49   C60   A    
C58   H49   S    
Cu2   O12   S    
C4    O13   A    
C11   O4    S    
C13   O2    S    
C39   N3    S    
C55   H40   S    
C44   N4    S    
C31   H20   S    
C40   H10   S    
C46   N1    A    
C18   C19   A    
C39   H11   S    
Cu1   O15   S    
C1    O1    A    
C31   H54   S    
C17   C61   A    
C47   N1    A    
C57   H46   S    
C20   C24   A    
C45   C56   A    
C58   O11   S    
C8    C9    A    
C58   H50   S    
C39   H9    S    
C31   C33   S    
C9    C10   A    
C3    C22   A    
C7    O10   S    
C33   H6    S    
C16   C37   S    
C32   H5    S    
C6    H47   S    
C28   C61   S    
C57   H43   S    
C29   H52   S    
C19   N2    S    
C21   C22   A    
C53   H33   S    
Cu2   O16   S    
C48   H12   S    
C54   H37   S    
C2    C6    A    
C28   O18   A    
C1    O12   A    
C14   C19   A    
C13   N2    A    
C52   O6    S    
C33   H3    S    
C14   H42   S    
C25   C29   A    
C12   H4    S    
C16   O16   A    
C2    C20   A    
C58   H48   S    
C35   C38   S    
C28   O17   A    
C51   H24   S    
C39   C40   S    
C21   C34   A    
C55   H41   S    
C33   C37   S    
C40   H13   S    
Cu2   O14   S    
C30   H19   S    
C43   C44   S    
C5    C9    A    
Cu1   Cu2   S    
C53   O7    S    
C24   O11   S    
C12   C23   A    
C55   O9    S    
C4    C60   S    
C17   C18   A    
C15   C61   A    
C34   C45   A    
C32   C37   S    
Cu1   O17   S    
C56   H16   S    
C42   O6    S    
C4    O14   A    
C48   C49   A    
C57   H44   S    
C26   H18   S    
C34   C59   A    
C54   H36   S    
C52   H29   S    
C2    C5    A    
C43   H14   S    
C16   O15   A    
Cu1   O1    S    
C46   O19   S    
C54   O8    S    
C38   H8    S    
C23   C48   A    
C14   C15   A    
C51   O5    S    
Cu2   O18   S    
C41   O5    S    
C57   O10   S    
C3    C26   A    
C3    C5    A    
C51   H25   S    
C12   C50   A    
C35   H21   S    
C6    C7    A    
C53   H35   S    
C24   C56   A    
C43   N3    S    
C49   H17   S    
C30   C36   S    
C50   C60   A    
Cu1   O13   S    
C44   H15   S    
C51   H26   S    
C30   C32   S    
Cu2   N3    S    
C35   H22   S    
C47   O3    S    
C15   O9    S    
C27   H45   S    
C25   H23   S    
C43   H30   S    
C42   O8    S    
C41   N3    S    
C44   H31   S    
C10   C11   A    
C47   C59   A    
C20   C21   A    
C42   N4    S    
C31   C36   S    
C52   H28   S    
C25   C59   A    
C17   H34   S    
Cu1   N4    S    
C1    C36   S    
C32   H2    S    
