data_mof_unit_9572.cif
_audit_creation_date              2012-10-26T18:32:19-0400
_audit_creation_method            fapswitch 2.2
_symmetry_space_group_name_H-M    P1
_symmetry_Int_Tables_number       1
_space_group_crystal_system       triclinic
_cell_length_a                    12.329063
_cell_length_b                    13.179934
_cell_length_c                    15.868244
_cell_angle_alpha                 77.913237
_cell_angle_beta                  101.096201
_cell_angle_gamma                 116.567917
_cell_volume                      2240.68646172

loop_
_atom_site_label
_atom_site_type_symbol
_atom_type_description
_atom_site_fract_x
_atom_site_fract_y
_atom_site_fract_z
_atom_type_partial_charge
C1    C     C_R   0.854858 0.286586 0.507436 0.526063
C2    C     C_R   0.227997 0.834459 0.469868 0.000066
C3    C     C_R   0.815257 0.085391 0.563907 -0.134741
C4    C     C_R   0.999535 0.499815 0.659552 0.546885
C5    C     C_R   0.736448 0.970608 0.581046 -0.140416
C6    C     C_R   0.613135 0.932857 0.550886 -0.121066
C7    C     C_R   0.566379 0.009426 0.499488 0.031497
C8    C     C_R   0.649841 0.123710 0.473718 0.023772
C9    C     C_R   0.439780 0.976056 0.471957 0.027485
C10   C     C_R   0.400107 0.053154 0.413033 0.050889
C11   C     C_R   0.485321 0.160124 0.380600 -0.141213
C12   C     C_3   0.071734 0.435141 0.070307 -0.229745
C13   C     C_R   0.608386 0.194248 0.409300 -0.123933
C14   C     C_R   0.350979 0.868440 0.501708 -0.133530
C15   C     C_R   0.189742 0.911939 0.413209 -0.137436
C16   C     C_R   0.145073 0.713369 0.487499 0.549480
C17   C     C_R   0.772895 0.163575 0.512339 -0.003286
C18   C     C_R   0.345403 0.327518 0.636752 -0.148006
C19   C     C_R   0.760290 0.645999 0.384099 0.050236
C20   C     C_R   0.664244 0.678103 0.358901 -0.161957
C21   C     C_R   0.560469 0.623018 0.402470 -0.137080
C22   C     C_R   0.551622 0.534696 0.472361 -0.005624
C23   C     C_3   0.002001 0.502980 0.082695 0.045695
C24   C     C_R   0.652824 0.505111 0.496103 0.181335
C25   C     C_R   0.446944 0.475050 0.519703 -0.013052
C26   C     C_R   0.445937 0.387474 0.589282 0.037075
C27   C     C_R   0.545421 0.360407 0.611529 -0.171978
C28   C     C_R   0.000426 0.500163 0.340437 0.544988
C29   C     C_R   0.646646 0.418252 0.566348 -0.093388
C30   C     C_R   0.342401 0.498080 0.501489 0.041565
C31   C     C_R   0.245903 0.354437 0.615615 0.044170
C32   C     C_3   0.067906 0.432211 0.972687 -0.241447
C33   C     C_3   0.868624 0.444965 0.941426 -0.241453
C34   C     C_3   0.065471 0.627967 0.037958 -0.188882
C35   C     C_3   0.869240 0.448088 0.038555 -0.230070
C36   C     C_1   0.001376 0.500621 0.250800 -0.040337
C37   C     C_3   0.001338 0.503932 0.916692 0.137508
C38   C     C_3   0.066224 0.630802 0.938576 0.247945
C39   C     C_1   0.001781 0.501462 0.175127 -0.077968
C40   C     C_1   0.999802 0.501860 0.824491 -0.004196
C41   C     C_1   0.999277 0.500676 0.749044 -0.020710
C42   C     C_R   0.275488 0.021218 0.385376 -0.132383
Cu1   Cu    Cu3+1 0.098280 0.475420 0.519630 0.929527
Cu2   Cu    Cu3+1 0.901720 0.524580 0.480370 0.917890
H1    H     H_    0.030232 0.345937 0.104426 0.120749
H2    H     H_    0.557691 0.842695 0.567381 0.106032
H3    H     H_    0.770460 0.910907 0.620319 0.123585
H4    H     H_    0.018914 0.341702 0.959770 0.104174
H5    H     H_    0.670372 0.275523 0.378255 0.150991
H6    H     H_    0.167887 0.308497 0.651939 0.118002
H7    H     H_    0.545438 0.293883 0.664961 0.107264
H8    H     H_    0.343916 0.260380 0.689964 0.090210
H9    H     H_    0.335099 0.562985 0.449803 0.118870
H10   H     H_    0.840532 0.689277 0.349953 0.122791
H11   H     H_    0.488958 0.651392 0.380198 0.098563
H12   H     H_    0.161712 0.463041 0.955339 0.119100
H13   H     H_    0.670251 0.745917 0.305417 0.098274
H14   H     H_    0.718397 0.392014 0.589389 0.181960
H15   H     H_    0.810859 0.485513 0.900328 0.120374
H16   H     H_    0.824898 0.354128 0.929310 0.104085
H17   H     H_    0.820384 0.359348 0.071512 0.120232
H18   H     H_    0.818919 0.497932 0.044534 0.112889
H19   H     H_    0.160078 0.669150 0.070383 0.098313
H20   H     H_    0.246471 0.650416 0.959850 0.204181
H21   H     H_    0.232076 0.772202 0.924312 0.217353
H22   H     H_    0.050219 0.783826 0.895813 0.216740
H23   H     H_    0.168368 0.475595 0.099296 0.113471
H24   H     H_    0.916691 0.671510 0.908242 0.204509
H25   H     H_    0.017839 0.678253 0.048119 0.097498
H26   H     H_    0.094649 0.886600 0.387742 0.120149
H27   H     H_    0.456781 0.217829 0.332640 0.105693
H28   H     H_    0.244792 0.079672 0.340264 0.104246
H29   H     H_    0.374855 0.808153 0.549191 0.121435
H30   H     H_    0.909210 0.113418 0.592940 0.127393
N1    N     N_R   0.246300 0.438200 0.549400 -0.232338
N2    N     N_R   0.754300 0.561180 0.451130 -0.234682
N3    N     N_3   0.192860 0.685616 0.916469 -0.596632
N4    N     N_3   0.001256 0.697853 0.886475 -0.595724
O1    O     O_R   0.972520 0.318130 0.524690 -0.502918
O2    O     O_R   0.806530 0.359650 0.491530 -0.529091
O3    O     O_R   0.083030 0.479240 0.637150 -0.494986
O4    O     O_R   0.917040 0.520750 0.603990 -0.508606
O5    O     O_R   0.193470 0.640350 0.508470 -0.507992
O6    O     O_R   0.027480 0.681870 0.475310 -0.501380
O7    O     O_R   0.082960 0.479250 0.396010 -0.496269
O8    O     O_R   0.916970 0.520760 0.362850 -0.508679

loop_
_geom_bond_atom_site_label_1
_geom_bond_atom_site_label_2
_ccdc_geom_bond_type
C8    C13   A    
C10   C42   A    
Cu1   O5    S    
H20   N3    S    
C19   C20   A    
C18   C26   A    
Cu1   Cu2   S    
C18   H8    S    
C7    C8    A    
C5    H3    S    
C12   C23   S    
C26   C27   A    
C19   N2    A    
C37   C40   S    
Cu2   O4    S    
C5    C6    A    
C11   H27   S    
C27   C29   A    
C4    C41   S    
Cu1   O1    S    
C16   O6    A    
Cu2   N2    S    
C3    H30   S    
C24   C29   A    
C4    O3    A    
C22   C25   A    
C2    C16   S    
C9    C10   A    
C33   H15   S    
C21   C22   A    
C12   C32   S    
Cu1   N1    S    
C32   H4    S    
Cu2   O8    S    
C12   H23   S    
C27   H7    S    
H24   N4    S    
H22   N4    S    
C30   H9    S    
H21   N3    S    
Cu1   O7    S    
C14   H29   S    
Cu2   O2    S    
C21   H11   S    
C24   N2    A    
C38   N4    S    
C3    C5    A    
C25   C26   A    
C16   O5    A    
C33   C37   S    
C9    C14   A    
C37   C38   S    
C31   N1    A    
C23   C34   S    
C42   H28   S    
C35   H17   S    
C32   C37   S    
C20   C21   A    
C2    C15   A    
C34   H25   S    
C13   H5    S    
C19   H10   S    
C40   C41   T    
C33   H16   S    
C23   C35   S    
C28   O8    A    
C1    O1    A    
C22   C24   A    
C31   H6    S    
C25   C30   A    
C7    C9    A    
C15   H26   S    
C6    H2    S    
Cu1   O3    S    
C34   C38   S    
C36   C39   T    
C15   C42   A    
C12   H1    S    
Cu2   O6    S    
C6    C7    A    
C38   N3    S    
C1    C17   S    
C8    C17   A    
C30   N1    A    
C11   C13   A    
C23   C39   S    
C34   H19   S    
C33   C35   S    
C3    C17   A    
C35   H18   S    
C2    C14   A    
C10   C11   A    
C4    O4    A    
C29   H14   S    
C28   C36   S    
C28   O7    A    
C1    O2    A    
C18   C31   A    
C20   H13   S    
C32   H12   S    
