data_mof_unit_45661.cif
_audit_creation_date              2012-12-11T15:50:34-0500
_audit_creation_method            fapswitch 2.2
_symmetry_space_group_name_H-M    P1
_symmetry_Int_Tables_number       1
_space_group_crystal_system       monoclinic
_cell_length_a                    6.923693
_cell_length_b                    14.521484
_cell_length_c                    16.136125
_cell_angle_alpha                 90.0
_cell_angle_beta                  90.000036
_cell_angle_gamma                 90.0
_cell_volume                      1622.36307412

loop_
_atom_site_label
_atom_site_type_symbol
_atom_type_description
_atom_site_fract_x
_atom_site_fract_y
_atom_site_fract_z
_atom_type_partial_charge
O1    O     O_R   0.638140 0.833910 0.163320 -0.545506
O2    O     O_R   0.361860 0.166090 0.836680 -0.545506
O3    O     O_R   0.361860 0.166090 0.663320 -0.545505
O4    O     O_R   0.638140 0.833910 0.336680 -0.545505
O5    O     O_R   0.138140 0.666090 0.336680 -0.545503
O6    O     O_R   0.861860 0.333910 0.663320 -0.545503
O7    O     O_R   0.861860 0.333910 0.836680 -0.545502
O8    O     O_R   0.138140 0.666090 0.163320 -0.545502
O9    O     O_R   0.308390 0.844930 0.336080 -0.521307
O10   O     O_R   0.691610 0.155070 0.663920 -0.521307
O11   O     O_R   0.691610 0.155070 0.836080 -0.521305
O12   O     O_R   0.308390 0.844930 0.163920 -0.521305
O13   O     O_R   0.808390 0.655070 0.163920 -0.521310
O14   O     O_R   0.191610 0.344930 0.836080 -0.521310
O15   O     O_R   0.191610 0.344930 0.663920 -0.521309
O16   O     O_R   0.808390 0.655070 0.336080 -0.521309
C1    C     C_R   0.476848 0.866218 0.365762 0.716921
C2    C     C_R   0.523152 0.133782 0.634238 0.716921
C3    C     C_R   0.523152 0.133782 0.865762 0.716924
C4    C     C_R   0.476848 0.866218 0.134238 0.716924
C5    C     C_R   0.976847 0.633782 0.134238 0.716924
C6    C     C_R   0.023152 0.366218 0.865761 0.716924
C7    C     C_R   0.023152 0.366218 0.634238 0.716923
C8    C     C_R   0.976848 0.633782 0.365762 0.716923
O17   O     O_3   0.471620 0.691320 0.250000 -0.366719
O18   O     O_3   0.528380 0.308680 0.750000 -0.366719
O19   O     O_3   0.971620 0.808680 0.250000 -0.366720
O20   O     O_3   0.028380 0.191320 0.750000 -0.366720
V1    V     V_3+5 0.196770 0.760880 0.250000 1.464451
V2    V     V_3+5 0.803230 0.239120 0.750000 1.464451
V3    V     V_3+5 0.696770 0.739120 0.250000 1.464442
V4    V     V_3+5 0.303230 0.260880 0.750000 1.464442
C9    C     C_R   0.829338 0.552068 0.489976 0.213430
C10   C     C_R   0.170661 0.447932 0.510024 0.213430
C11   C     C_R   0.170661 0.447932 0.989976 0.213430
C12   C     C_R   0.829339 0.552068 0.010024 0.213431
C13   C     C_R   0.329345 0.947926 0.010020 0.213425
C14   C     C_R   0.670655 0.052074 0.989980 0.213425
C15   C     C_R   0.670655 0.052074 0.510020 0.213428
C16   C     C_R   0.329345 0.947926 0.489980 0.213428
C17   C     C_R   0.844636 0.486189 0.553648 -0.249733
C18   C     C_R   0.155364 0.513811 0.446352 -0.249733
C19   C     C_R   0.155364 0.513811 0.053648 -0.249731
C20   C     C_R   0.844636 0.486189 0.946352 -0.249731
C21   C     C_R   0.344640 0.013807 0.946349 -0.249737
C22   C     C_R   0.655360 0.986193 0.053651 -0.249737
C23   C     C_R   0.655360 0.986193 0.446349 -0.249732
C24   C     C_R   0.344640 0.013806 0.553651 -0.249732
H1    H     H_    0.724340 0.476762 0.595748 0.151271
H2    H     H_    0.275660 0.523238 0.404252 0.151271
H3    H     H_    0.275660 0.523238 0.095748 0.151270
H4    H     H_    0.724340 0.476762 0.904252 0.151270
H5    H     H_    0.224348 0.023228 0.904245 0.151259
H6    H     H_    0.775652 0.976772 0.095755 0.151259
H7    H     H_    0.775651 0.976771 0.404245 0.151260
H8    H     H_    0.224349 0.023228 0.595755 0.151260
C25   C     C_R   0.013818 0.434190 0.565009 -0.097249
C26   C     C_R   0.986181 0.565810 0.434991 -0.097249
C27   C     C_R   0.986181 0.565810 0.065009 -0.097249
C28   C     C_R   0.013818 0.434190 0.934991 -0.097249
C29   C     C_R   0.513817 0.065811 0.934991 -0.097243
C30   C     C_R   0.486183 0.934189 0.065009 -0.097243
C31   C     C_R   0.486182 0.934189 0.434991 -0.097246
C32   C     C_R   0.513818 0.065811 0.565009 -0.097246
N1    N     N_3   0.656704 0.606541 0.482560 -0.656587
H9    H     H_    0.692127 0.674117 0.498989 0.212529
H10   H     H_    0.551843 0.584608 0.524805 0.227370
N2    N     N_3   0.343296 0.393459 0.517440 -0.656586
H11   H     H_    0.307873 0.325883 0.501011 0.212529
H12   H     H_    0.448157 0.415392 0.475195 0.227370
N3    N     N_3   0.343296 0.393459 0.982560 -0.656587
H13   H     H_    0.307874 0.325883 0.998988 0.212529
H14   H     H_    0.448157 0.415391 0.024806 0.227370
N4    N     N_3   0.656704 0.606541 0.017440 -0.656587
H15   H     H_    0.692126 0.674117 0.001012 0.212529
H16   H     H_    0.551843 0.584609 0.975194 0.227370
N5    N     N_3   0.156723 0.893442 0.017428 -0.656575
H17   H     H_    0.192167 0.825871 0.000983 0.212519
H18   H     H_    0.051854 0.915380 0.975189 0.227368
N6    N     N_3   0.843277 0.106558 0.982572 -0.656575
H19   H     H_    0.807833 0.174129 0.999017 0.212519
H20   H     H_    0.948146 0.084620 0.024811 0.227368
N7    N     N_3   0.843279 0.106556 0.517429 -0.656578
H21   H     H_    0.807837 0.174128 0.500990 0.212521
H22   H     H_    0.948144 0.084621 0.475187 0.227369
N8    N     N_3   0.156721 0.893444 0.482570 -0.656578
H23   H     H_    0.192162 0.825872 0.499010 0.212521
H24   H     H_    0.051855 0.915379 0.524812 0.227369

loop_
_geom_bond_atom_site_label_1
_geom_bond_atom_site_label_2
_ccdc_geom_bond_type
O17   V3    S    
O18   V4    S    
C9    C26   A    
O12   V1    S    
O19   V1    S    
C10   C18   A    
C12   C27   A    
C2    C32   S    
C18   C26   A    
C13   C30   A    
C9    N1    S    
O15   V4    S    
N5    H17   S    
O16   V3    S    
C15   C32   A    
O11   C3    A    
C16   C31   A    
N4    H16   S    
C22   C30   A    
O8    V1    S    
O2    V4    S    
O10   C2    A    
C5    C27   S    
C6    C28   S    
C3    C29   S    
N8    H24   S    
C24   C32   A    
O1    V3    S    
O3    C2    A    
C7    C25   S    
C16   N8    S    
C16   C24   A    
O11   V2    S    
N2    H11   S    
N1    H10   S    
C10   C25   A    
C11   C19   A    
O9    V1    S    
C14   C29   A    
C20   H4    S    
O15   C7    A    
C11   N3    S    
O16   C8    A    
O7    V2    S    
C22   H6    S    
C17   H1    S    
O5    V1    S    
N5    H18   S    
O17   V1    S    
N4    H15   S    
O19   V3    S    
O20   V4    S    
N6    H20   S    
C10   N2    S    
N3    H14   S    
N8    H23   S    
C15   C23   A    
C13   N5    S    
C21   H5    S    
C11   C28   A    
O10   V2    S    
N7    H21   S    
O12   C4    A    
O8    C5    A    
O13   C5    A    
C12   N4    S    
C18   H2    S    
O4    C1    A    
O9    C1    A    
O6    V2    S    
O18   V2    S    
C12   C20   A    
C13   C21   A    
C23   H7    S    
C24   H8    S    
O1    C4    A    
N7    H22   S    
O2    C3    A    
O13   V3    S    
O14   V4    S    
N6    H19   S    
C19   C27   A    
O7    C6    A    
C9    C17   A    
O14   C6    A    
O20   V2    S    
C15   N7    S    
N3    H13   S    
C1    C31   S    
C23   C31   A    
C19   H3    S    
O5    C8    A    
C14   N6    S    
C20   C28   A    
O6    C7    A    
C21   C29   A    
C4    C30   S    
O3    V4    S    
C14   C22   A    
O4    V3    S    
C17   C25   A    
C8    C26   S    
N1    H9    S    
N2    H12   S    
