data_mof_unit_63843.cif
_audit_creation_date              2013-03-05T16:34:54-0500
_audit_creation_method            fapswitch 2.2
_symmetry_space_group_name_H-M    P1
_symmetry_Int_Tables_number       1
_space_group_crystal_system       triclinic
_cell_length_a                    35.517879
_cell_length_b                    35.51793
_cell_length_c                    29.193948
_cell_angle_alpha                 90.015876
_cell_angle_beta                  90.060907
_cell_angle_gamma                 89.996544
_cell_volume                      36828.7719528

loop_
_atom_site_label
_atom_site_type_symbol
_atom_site_description
_atom_site_fract_x
_atom_site_fract_y
_atom_site_fract_z
_atom_type_partial_charge
O1    O     O_R   0.968700 0.444570 0.500010 -0.606802
O2    O     O_R   0.444570 0.031300 0.500010 -0.605179
O3    O     O_R   0.031300 0.555430 0.500010 -0.605965
O4    O     O_R   0.555430 0.968700 0.500010 -0.606333
O5    O     O_R   0.968700 0.555430 0.499990 -0.605114
O6    O     O_R   0.444570 0.968700 0.499990 -0.606075
O7    O     O_R   0.031300 0.444570 0.499990 -0.605999
O8    O     O_R   0.555430 0.031300 0.499990 -0.606958
O9    O     O_R   0.468700 0.944570 0.000010 -0.606921
O10   O     O_R   0.944570 0.531300 0.000010 -0.605883
O11   O     O_R   0.531300 0.055430 0.000010 -0.605840
O12   O     O_R   0.055430 0.468700 0.000010 -0.606325
O13   O     O_R   0.468700 0.055430 0.999990 -0.605529
O14   O     O_R   0.944570 0.468700 0.999990 -0.606673
O15   O     O_R   0.531300 0.944570 0.999990 -0.606297
O16   O     O_R   0.055430 0.531300 0.999990 -0.606978
C1    C     C_R   0.999999 0.426742 0.500042 0.907855
C2    C     C_R   0.426724 0.999997 0.499965 0.906407
C3    C     C_R   0.000002 0.573265 0.500036 0.906388
C4    C     C_R   0.573302 0.999998 0.499959 0.907775
C5    C     C_R   0.500001 0.926698 0.000036 0.907670
C6    C     C_R   0.926715 0.500001 0.999975 0.907366
C7    C     C_R   0.499999 0.073275 0.000026 0.906293
C8    C     C_R   0.073273 0.500001 0.999958 0.907930
O17   O     O_R   0.968700 0.500000 0.436870 -0.593096
O18   O     O_R   0.500000 0.031300 0.436870 -0.592898
O19   O     O_R   0.031300 0.500000 0.436870 -0.593135
O20   O     O_R   0.500000 0.968700 0.436870 -0.593237
O21   O     O_R   0.968700 0.500000 0.563130 -0.593083
O22   O     O_R   0.500000 0.968700 0.563130 -0.593095
O23   O     O_R   0.031300 0.500000 0.563130 -0.593256
O24   O     O_R   0.500000 0.031300 0.563130 -0.592879
O25   O     O_R   0.468700 1.000000 0.936870 -0.592907
O26   O     O_R   1.000000 0.531300 0.936870 -0.592932
O27   O     O_R   0.531300 1.000000 0.936870 -0.593033
O28   O     O_R   1.000000 0.468700 0.936870 -0.593112
O29   O     O_R   0.468700 1.000000 0.063130 -0.592856
O30   O     O_R   1.000000 0.468700 0.063130 -0.593027
O31   O     O_R   0.531300 1.000000 0.063130 -0.593194
O32   O     O_R   1.000000 0.531300 0.063130 -0.592886
C9    C     C_R   0.999987 0.500001 0.414156 0.877211
C10   C     C_R   0.499998 0.999996 0.414156 0.876591
C11   C     C_R   0.000013 0.500001 0.585844 0.876237
C12   C     C_R   0.500000 0.000004 0.585844 0.877511
C13   C     C_R   0.499987 0.000001 0.914156 0.877399
C14   C     C_R   0.999999 0.499996 0.914156 0.876701
C15   C     C_R   0.500013 0.000001 0.085844 0.876730
C16   C     C_R   0.000000 0.500004 0.085844 0.877576
Zn1   Zn    Zn3+2 0.958200 0.500000 0.500000 1.023233
Zn2   Zn    Zn3+2 0.500000 0.041800 0.500000 1.023733
Zn3   Zn    Zn3+2 0.041800 0.500000 0.500000 1.023020
Zn4   Zn    Zn3+2 0.500000 0.958200 0.500000 1.023017
Zn5   Zn    Zn3+2 0.458200 0.000000 0.000000 1.023633
Zn6   Zn    Zn3+2 0.000000 0.541800 0.000000 1.023747
Zn7   Zn    Zn3+2 0.541800 0.000000 0.000000 1.023445
Zn8   Zn    Zn3+2 0.000000 0.458200 0.000000 1.023284
C17   C     C_1   0.999955 0.500004 0.363401 -0.171844
C18   C     C_1   0.500003 0.999989 0.363401 -0.172555
C19   C     C_1   0.000045 0.499999 0.636599 -0.172509
C20   C     C_1   0.499993 0.000012 0.636599 -0.171942
C21   C     C_1   0.499955 0.000004 0.863401 -0.171950
C22   C     C_1   0.000004 0.499989 0.863401 -0.172537
C23   C     C_1   0.500045 1.000000 0.136599 -0.172344
C24   C     C_1   0.999995 0.500012 0.136599 -0.171955
C25   C     C_1   0.999959 0.500006 0.321119 0.031597
C26   C     C_1   0.500006 0.999989 0.321119 0.031017
C27   C     C_1   0.000041 0.499997 0.678881 0.031024
C28   C     C_1   0.499990 0.000012 0.678880 0.031537
C29   C     C_1   0.499958 0.000006 0.821119 0.031520
C30   C     C_1   0.000007 0.499989 0.821119 0.030942
C31   C     C_1   0.500040 0.999998 0.178881 0.031168
C32   C     C_1   0.999992 0.500012 0.178880 0.031420
C33   C     C_1   0.999971 0.500009 0.271162 0.035801
C34   C     C_1   0.500013 0.999992 0.271162 0.035491
C35   C     C_1   0.000028 0.499994 0.728838 0.035465
C36   C     C_1   0.499983 0.000011 0.728838 0.035787
C37   C     C_1   0.499970 0.000009 0.771162 0.035779
C38   C     C_1   0.000015 0.499991 0.771162 0.035415
C39   C     C_1   0.500027 0.999995 0.228838 0.035538
C40   C     C_1   0.999985 0.500011 0.228838 0.035715
C41   C     C_R   0.020790 0.173534 0.533088 -0.113063
C42   C     C_R   0.173447 0.975909 0.529511 -0.111708
C43   C     C_R   0.979013 0.826462 0.532783 -0.113370
C44   C     C_R   0.826626 0.023847 0.529797 -0.111784
C45   C     C_R   0.020287 0.826477 0.466448 -0.113626
C46   C     C_R   0.173363 0.024931 0.471394 -0.111746
C47   C     C_R   0.980131 0.173506 0.466065 -0.113590
C48   C     C_R   0.826600 0.975130 0.471262 -0.111463
C49   C     C_R   0.523866 0.673425 0.029939 -0.111560
C50   C     C_R   0.673556 0.480764 0.034498 -0.113740
C51   C     C_R   0.476548 0.326569 0.030302 -0.112054
C52   C     C_R   0.326529 0.519945 0.033895 -0.113540
C53   C     C_R   0.523186 0.326552 0.969390 -0.111935
C54   C     C_R   0.673534 0.520290 0.966556 -0.112855
C55   C     C_R   0.477083 0.673423 0.969058 -0.111849
C56   C     C_R   0.326439 0.479300 0.966912 -0.112615
H1    H     H_    0.036794 0.188671 0.558851 0.183176
H2    H     H_    0.188591 0.956742 0.551822 0.183507
H3    H     H_    0.962767 0.811356 0.558276 0.183919
H4    H     H_    0.811503 0.042874 0.552279 0.181231
H5    H     H_    0.036497 0.811371 0.440908 0.181241
H6    H     H_    0.188439 0.044152 0.449132 0.183947
H7    H     H_    0.964174 0.188642 0.440271 0.178459
H8    H     H_    0.811479 0.956012 0.448848 0.183780
H9    H     H_    0.542220 0.688576 0.053277 0.183807
H10   H     H_    0.688718 0.465255 0.060675 0.178037
H11   H     H_    0.458278 0.311431 0.053680 0.184477
H12   H     H_    0.311429 0.535904 0.059684 0.177563
H13   H     H_    0.541440 0.311393 0.945999 0.183761
H14   H     H_    0.688665 0.535855 0.940439 0.183003
H15   H     H_    0.458803 0.688589 0.945659 0.180489
H16   H     H_    0.311287 0.463301 0.941166 0.182985
C57   C     C_R   0.020256 0.134375 0.533600 -0.192043
C58   C     C_R   0.134251 0.975897 0.529536 -0.191060
C59   C     C_R   0.979476 0.865633 0.533259 -0.191838
C60   C     C_R   0.865807 0.023929 0.529730 -0.190096
C61   C     C_R   0.020263 0.865645 0.466433 -0.190403
C62   C     C_R   0.134166 0.024493 0.470865 -0.191706
C63   C     C_R   0.980090 0.134352 0.466100 -0.189363
C64   C     C_R   0.865788 0.975642 0.470647 -0.192135
C65   C     C_R   0.523362 0.634209 0.030520 -0.191623
C66   C     C_R   0.634383 0.480728 0.034443 -0.189340
C67   C     C_R   0.476863 0.365793 0.030669 -0.191465
C68   C     C_R   0.365691 0.519974 0.033861 -0.189024
C69   C     C_R   0.523049 0.365775 0.969217 -0.190412
C70   C     C_R   0.634357 0.519757 0.966035 -0.191571
C71   C     C_R   0.477032 0.634210 0.969098 -0.189617
C72   C     C_R   0.365603 0.479819 0.966396 -0.191838
H17   H     H_    0.036077 0.119330 0.559563 0.158954
H18   H     H_    0.119159 0.956620 0.551718 0.154887
H19   H     H_    0.963379 0.880683 0.558941 0.158627
H20   H     H_    0.880928 0.043096 0.552065 0.155053
H21   H     H_    0.036544 0.880697 0.440941 0.158641
H22   H     H_    0.119006 0.043575 0.448460 0.154627
H23   H     H_    0.964023 0.119306 0.440362 0.158833
H24   H     H_    0.880918 0.956692 0.448075 0.154851
H25   H     H_    0.541568 0.619053 0.054014 0.155797
H26   H     H_    0.619338 0.465092 0.060537 0.159035
H27   H     H_    0.458637 0.380949 0.054102 0.155833
H28   H     H_    0.380767 0.536023 0.059597 0.158692
H29   H     H_    0.541352 0.380912 0.945871 0.156176
H30   H     H_    0.619282 0.535138 0.939698 0.159355
H31   H     H_    0.458606 0.619071 0.945842 0.155900
H32   H     H_    0.380628 0.463983 0.940450 0.158953
C73   C     C_R   0.000065 0.114792 0.499949 -0.048812
C74   C     C_R   0.114684 0.000103 0.500105 -0.043208
C75   C     C_R   0.999949 0.885216 0.499931 -0.048205
C76   C     C_R   0.885316 0.999920 0.500038 -0.043591
C77   C     C_R   0.500079 0.614696 0.999935 -0.045147
C78   C     C_R   0.614799 0.500126 0.000128 -0.049575
C79   C     C_R   0.499985 0.385302 0.999974 -0.045023
C80   C     C_R   0.385218 0.499994 0.000024 -0.048911
C81   C     C_R   0.000678 0.193018 0.499357 0.103395
C82   C     C_R   0.192935 0.000586 0.500651 0.099666
C83   C     C_R   0.999475 0.806957 0.499428 0.101918
C84   C     C_R   0.807103 0.999292 0.500780 0.100779
C85   C     C_R   0.500671 0.692937 0.999262 0.100994
C86   C     C_R   0.693039 0.500730 0.000735 0.103516
C87   C     C_R   0.499787 0.307033 0.999749 0.099348
C88   C     C_R   0.306981 0.499404 0.000631 0.103711
C89   C     C_1   0.000790 0.233034 0.499204 0.051196
C90   C     C_1   0.232944 0.000675 0.500753 0.053697
C91   C     C_1   0.999376 0.766955 0.499270 0.053350
C92   C     C_1   0.767111 0.999219 0.500910 0.051782
C93   C     C_1   0.500760 0.732928 0.999126 0.052142
C94   C     C_1   0.733005 0.500802 0.000865 0.052422
C95   C     C_1   0.499713 0.267037 0.999648 0.055440
C96   C     C_1   0.266969 0.499277 0.000813 0.051597
C97   C     C_1   0.000591 0.266710 0.499467 0.162862
C98   C     C_1   0.266699 0.000498 0.500497 0.166289
C99   C     C_1   0.999541 0.733223 0.499466 0.165353
C100  C     C_1   0.733398 0.999446 0.500584 0.164190
C101  C     C_1   0.500565 0.766635 0.999439 0.164161
C102  C     C_1   0.766717 0.500577 0.000574 0.164148
C103  C     C_1   0.499755 0.233287 0.999727 0.167943
C104  C     C_1   0.233292 0.499449 0.000548 0.162629
C105  C     C_R   0.026616 0.326820 0.527696 0.299768
C106  C     C_R   0.326806 0.974075 0.528215 0.298586
C107  C     C_R   0.974629 0.673153 0.529216 0.298635
C108  C     C_R   0.673324 0.027834 0.525235 0.298297
C109  C     C_R   0.025612 0.673130 0.471301 0.298554
C110  C     C_R   0.326788 0.025700 0.471073 0.298162
C111  C     C_R   0.973149 0.326798 0.473276 0.298854
C112  C     C_R   0.673261 0.972492 0.473672 0.298495
C113  C     C_R   0.527564 0.826752 0.026356 0.298214
C114  C     C_R   0.826806 0.472894 0.026421 0.298170
C115  C     C_R   0.474139 0.173185 0.028665 0.297352
C116  C     C_R   0.173260 0.527472 0.025750 0.298202
C117  C     C_R   0.525837 0.173176 0.971557 0.297550
C118  C     C_R   0.826777 0.526798 0.972631 0.298561
C119  C     C_R   0.472211 0.826697 0.974693 0.298172
C120  C     C_R   0.173184 0.472719 0.973204 0.298945
C121  C     C_R   0.026255 0.366229 0.526544 -0.236785
C122  C     C_R   0.366165 0.974586 0.527385 -0.236249
C123  C     C_R   0.975008 0.633782 0.528147 -0.236935
C124  C     C_R   0.633961 0.027200 0.524667 -0.235176
C125  C     C_R   0.025112 0.633780 0.472174 -0.236258
C126  C     C_R   0.366168 0.025278 0.472161 -0.236737
C127  C     C_R   0.973653 0.366187 0.473962 -0.235316
C128  C     C_R   0.633876 0.972936 0.474740 -0.236434
C129  C     C_R   0.527070 0.866127 0.025303 -0.236493
C130  C     C_R   0.866171 0.473480 0.025749 -0.235293
C131  C     C_R   0.474650 0.133810 0.027656 -0.236536
C132  C     C_R   0.133904 0.526907 0.025151 -0.235150
C133  C     C_R   0.525349 0.133823 0.972518 -0.235987
C134  C     C_R   0.866158 0.526364 0.973736 -0.236502
C135  C     C_R   0.472826 0.866047 0.975278 -0.235142
C136  C     C_R   0.133805 0.473145 0.974336 -0.236700
H33   H     H_    0.046032 0.382084 0.547303 0.201850
H34   H     H_    0.382026 0.955401 0.548921 0.200976
H35   H     H_    0.956211 0.617890 0.550108 0.200425
H36   H     H_    0.618197 0.047843 0.544231 0.203224
H37   H     H_    0.044051 0.617896 0.450365 0.200606
H38   H     H_    0.382052 0.044291 0.450494 0.200998
H39   H     H_    0.953669 0.381945 0.453384 0.201867
H40   H     H_    0.618003 0.952486 0.454993 0.203084
H41   H     H_    0.547500 0.882004 0.045072 0.203153
H42   H     H_    0.882006 0.453373 0.046090 0.202429
H43   H     H_    0.455605 0.117873 0.049205 0.201696
H44   H     H_    0.118169 0.547324 0.045047 0.202683
H45   H     H_    0.544491 0.117913 0.951035 0.201464
H46   H     H_    0.882041 0.546260 0.953228 0.202421
H47   H     H_    0.452193 0.881813 0.955673 0.203167
H48   H     H_    0.117928 0.452918 0.954251 0.202760
C137  C     C_R   0.999982 0.385671 0.500152 -0.153325
C138  C     C_R   0.385680 0.999972 0.499861 -0.151715
C139  C     C_R   0.000023 0.614302 0.500100 -0.151308
C140  C     C_R   0.614393 0.000014 0.499826 -0.155064
C141  C     C_R   0.499988 0.885606 0.000174 -0.154931
C142  C     C_R   0.885670 0.499978 0.999858 -0.153962
C143  C     C_R   0.500001 0.114318 0.000065 -0.152142
C144  C     C_R   0.114378 0.500007 0.999854 -0.154292
C145  C     C_R   0.999898 0.306962 0.500469 -0.137077
C146  C     C_R   0.306924 0.999922 0.499675 -0.137802
C147  C     C_R   0.000118 0.693009 0.500235 -0.137872
C148  C     C_R   0.693176 0.000132 0.499519 -0.136615
C149  C     C_R   0.499921 0.806858 0.000467 -0.136760
C150  C     C_R   0.806906 0.499893 0.999590 -0.137186
C151  C     C_R   0.499976 0.193056 0.000094 -0.138775
C152  C     C_R   0.193060 0.500072 0.999526 -0.136700
O33   O     O_R   0.055320 0.999990 0.464380 -0.613963
O34   O     O_R   0.999990 0.944680 0.464380 -0.616117
O35   O     O_R   0.944680 0.000010 0.464380 -0.613955
O36   O     O_R   0.000010 0.055320 0.464380 -0.616381
O37   O     O_R   0.055320 0.000010 0.535620 -0.614298
O38   O     O_R   0.999990 0.055320 0.535620 -0.615864
O39   O     O_R   0.944680 0.999990 0.535620 -0.614593
O40   O     O_R   0.000010 0.944680 0.535620 -0.615775
O41   O     O_R   0.555320 0.499990 0.964380 -0.616039
O42   O     O_R   0.499990 0.444680 0.964380 -0.614696
O43   O     O_R   0.444680 0.500010 0.964380 -0.615873
O44   O     O_R   0.500010 0.555320 0.964380 -0.614929
O45   O     O_R   0.555320 0.500010 0.035620 -0.616557
O46   O     O_R   0.499990 0.555320 0.035620 -0.614486
O47   O     O_R   0.444680 0.499990 0.035620 -0.616451
O48   O     O_R   0.500010 0.444680 0.035620 -0.614558
C153  C     C_R   0.073852 0.999990 0.500023 0.890093
C154  C     C_R   0.000026 0.926121 0.499991 0.890226
C155  C     C_R   0.926149 0.000043 0.499988 0.890317
C156  C     C_R   0.999961 0.073884 0.500001 0.890323
C157  C     C_R   0.573894 0.499988 0.000025 0.891298
C158  C     C_R   0.500015 0.426133 0.999995 0.891116
C159  C     C_R   0.426121 0.500061 0.999987 0.891261
C160  C     C_R   0.499966 0.573867 0.999999 0.890972
Zn9   Zn    Zn3+2 1.000000 1.000000 0.452410 0.996165
Zn10  Zn    Zn3+2 1.000000 1.000000 0.547590 0.996083
Zn11  Zn    Zn3+2 0.500000 0.500000 0.952410 0.995232
Zn12  Zn    Zn3+2 0.500000 0.500000 0.047590 0.994838
N1    N     N_R   0.054224 0.308086 0.556263 0.224451
O49   O     O_R   0.081718 0.327352 0.574279 -0.354435
O50   O     O_R   0.051071 0.272672 0.567236 -0.393320
N2    N     N_R   0.308106 0.947645 0.558531 0.225010
O51   O     O_R   0.327477 0.929476 0.589292 -0.355514
O52   O     O_R   0.272297 0.940116 0.554835 -0.392320
N3    N     N_R   0.948199 0.691858 0.559533 0.225209
O53   O     O_R   0.922385 0.672396 0.580547 -0.354101
O54   O     O_R   0.950376 0.727811 0.568278 -0.394358
N4    N     N_R   0.692160 0.056281 0.552511 0.223217
O55   O     O_R   0.673122 0.075763 0.582481 -0.355256
O56   O     O_R   0.727409 0.065114 0.545774 -0.388672
N5    N     N_R   0.051680 0.691830 0.440548 0.224601
O57   O     O_R   0.069615 0.672454 0.409619 -0.355596
O58   O     O_R   0.059260 0.727612 0.444056 -0.390607
N6    N     N_R   0.308097 0.052474 0.441088 0.225363
O59   O     O_R   0.327677 0.078186 0.420033 -0.354232
O60   O     O_R   0.271980 0.050819 0.432955 -0.394227
N7    N     N_R   0.945849 0.307937 0.444373 0.222604
O61   O     O_R   0.927819 0.326889 0.412993 -0.355712
O62   O     O_R   0.936448 0.272842 0.450868 -0.386435
N8    N     N_R   0.691948 0.943837 0.446595 0.224659
O63   O     O_R   0.672579 0.916060 0.429389 -0.354252
O64   O     O_R   0.727586 0.946011 0.436447 -0.393603
N9    N     N_R   0.556261 0.808065 0.053459 0.224915
O65   O     O_R   0.583809 0.827526 0.071083 -0.354087
O66   O     O_R   0.554427 0.772270 0.063068 -0.393769
N10   N     N_R   0.808044 0.445253 0.054906 0.222858
O67   O     O_R   0.827291 0.426301 0.085262 -0.355898
O68   O     O_R   0.772538 0.436747 0.049166 -0.387609
N11   N     N_R   0.447368 0.191793 0.058757 0.226275
O69   O     O_R   0.424401 0.171800 0.083619 -0.354729
O70   O     O_R   0.445965 0.228405 0.062721 -0.395467
N12   N     N_R   0.192139 0.555565 0.053545 0.222717
O71   O     O_R   0.173258 0.574417 0.084198 -0.355257
O72   O     O_R   0.227183 0.564814 0.046597 -0.385833
N13   N     N_R   0.552372 0.191812 0.941247 0.225564
O73   O     O_R   0.572101 0.172031 0.912306 -0.355182
O74   O     O_R   0.558191 0.228098 0.942840 -0.393392
N14   N     N_R   0.808083 0.554704 0.944373 0.225050
O75   O     O_R   0.827581 0.581669 0.925552 -0.353958
O76   O     O_R   0.772267 0.552568 0.934889 -0.393829
N15   N     N_R   0.443786 0.807864 0.947345 0.223241
O77   O     O_R   0.424311 0.826911 0.917365 -0.355232
O78   O     O_R   0.435045 0.772581 0.953929 -0.388296
N16   N     N_R   0.191898 0.444476 0.945503 0.224949
O79   O     O_R   0.172528 0.416939 0.927785 -0.354160
O80   O     O_R   0.227479 0.446973 0.935179 -0.393290

loop_
_geom_bond_atom_site_label_1
_geom_bond_atom_site_label_2
_geom_bond_distance
_ccdc_geom_bond_type
C119  C149  1.424790 A    
C124  C140  1.392793 A    
O48   C158  1.230959 A    
O25   C13   1.294658 A    
C61   H21   1.084085 S    
C10   C18   1.481727 S    
C125  H37   1.084821 S    
C107  C123  1.398788 A    
O46   Zn12  1.995781 S    
C105  C121  1.400179 A    
C14   C22   1.481727 S    
N6    O59   1.302606 A    
O42   Zn11  1.995785 S    
O18   Zn2   1.880269 S    
C110  N6    1.452733 S    
O47   Zn12  1.995321 S    
C114  C130  1.398472 A    
C45   C83   1.398608 A    
O34   Zn9   1.995785 S    
C53   C87   1.399606 A    
O39   Zn10  1.995321 S    
C118  C134  1.399123 A    
O19   Zn3   1.879981 S    
N2    O51   1.302021 A    
N7    O62   1.304421 A    
O3    C3    1.279444 A    
C108  C124  1.398343 A    
O48   Zn12  1.995594 S    
O34   C154  1.231129 A    
O5    Zn1   2.003788 S    
C100  C148  1.429105 S    
C94   C102  1.197441 T    
C119  N15   1.449874 S    
C44   H4    1.084663 S    
C51   H11   1.084963 S    
C108  N4    1.449509 S    
O17   C9    1.294657 A    
C135  C141  1.392788 A    
N16   O79   1.302508 A    
C120  N16   1.450057 S    
C81   C89   1.421296 S    
C132  C144  1.392066 A    
C116  C152  1.424263 A    
O44   Zn11  1.995590 S    
C6    C142  1.457864 S    
C107  N3    1.451654 S    
C71   H31   1.085015 S    
C45   C61   1.391156 A    
C72   H32   1.084194 S    
C42   C58   1.392153 A    
C136  C144  1.393571 A    
C47   H7    1.084683 S    
C80   C159  1.452781 S    
N10   O67   1.305688 A    
C23   C31   1.234376 T    
O26   Zn6   1.880269 S    
C34   C39   1.235588 T    
N1    O50   1.302925 A    
O33   Zn9   1.995317 S    
C117  C151  1.427399 A    
O43   Zn11  1.996052 S    
O31   C15   1.294661 A    
O45   C157  1.231467 A    
O32   C16   1.294486 A    
O35   Zn9   1.996052 S    
C49   C85   1.399905 A    
C123  C139  1.392743 A    
C52   C88   1.398446 A    
C75   C154  1.452882 S    
C46   C82   1.399812 A    
C121  C137  1.392816 A    
C44   C84   1.399094 A    
O9    C5    1.280185 A    
O11   C7    1.279685 A    
C65   C77   1.399847 A    
O8    Zn2   2.003741 S    
C88   C96   1.421182 S    
O16   Zn6   2.003741 S    
C110  C146  1.426544 A    
C78   C157  1.452871 S    
O7    Zn3   2.003791 S    
C124  H36   1.085219 S    
C108  C148  1.424617 A    
O6    Zn4   2.003744 S    
C7    C143  1.457748 S    
C126  C138  1.393313 A    
O43   C159  1.231492 A    
C126  H38   1.084199 S    
C135  H47   1.085105 S    
C115  C131  1.398941 A    
C29   C37   1.458466 S    
O36   C156  1.231179 A    
C109  C125  1.397988 A    
C31   C39   1.458466 S    
C27   C35   1.458463 S    
O21   Zn1   1.879978 S    
C123  H35   1.084674 S    
C22   C30   1.234376 T    
O23   C11   1.294658 A    
C127  H39   1.084986 S    
C101  C149  1.429117 S    
C120  C152  1.425215 A    
C43   C83   1.399098 A    
C57   C73   1.400480 A    
C26   C34   1.458460 S    
C67   H27   1.085145 S    
C41   C81   1.399170 A    
O13   C7    1.279710 A    
O36   Zn9   1.995590 S    
C65   H25   1.085155 S    
C3    C139  1.457525 S    
O42   C158  1.231013 A    
C69   C79   1.399830 A    
C79   C158  1.450219 S    
C19   C27   1.234379 T    
C1    C137  1.458790 S    
C52   H12   1.084588 S    
C113  C149  1.425751 A    
C69   H29   1.085067 S    
C112  C128  1.399326 A    
O28   C14   1.294486 A    
O26   C14   1.294430 A    
O29   C15   1.294253 A    
O30   C16   1.294430 A    
C62   H22   1.084718 S    
C11   C19   1.481726 S    
O29   Zn5   1.879978 S    
C129  C141  1.393118 A    
O46   C160  1.231154 A    
C44   C60   1.391636 A    
C51   C67   1.393225 A    
C115  N11   1.453992 S    
C48   H8    1.084803 S    
N14   O76   1.303800 A    
C53   C69   1.393128 A    
N12   O72   1.303437 A    
C42   H2    1.084642 S    
C43   C59   1.391426 A    
C85   C93   1.420390 S    
C106  C146  1.426464 A    
N5    O58   1.303098 A    
C83   C91   1.420799 S    
C116  C132  1.398067 A    
O15   Zn7   2.003791 S    
C47   C63   1.390681 A    
N9    O65   1.303336 A    
C122  H34   1.084634 S    
N11   O70   1.306435 A    
C60   H20   1.084476 S    
C47   C81   1.398475 A    
C119  C135  1.397906 A    
O40   C154  1.231273 A    
O32   Zn6   1.880468 S    
N15   O78   1.305402 A    
O14   C6    1.279871 A    
C92   C100  1.197454 T    
C113  N9    1.450499 S    
C46   H6    1.084545 S    
C91   C99   1.198120 T    
O18   C10   1.294427 A    
C95   C103  1.198723 T    
C96   C104  1.196160 T    
O22   Zn4   1.880266 S    
C55   C85   1.399283 A    
C82   C90   1.421046 S    
O23   Zn3   1.880756 S    
C105  N1    1.448539 S    
C136  H48   1.084912 S    
O12   C8    1.279744 A    
O1    C1    1.279337 A    
C4    C140  1.459471 S    
C130  H42   1.085539 S    
N6    O60   1.305684 A    
C32   C40   1.458463 S    
C71   C77   1.399901 A    
C70   C78   1.400437 A    
C134  H46   1.084917 S    
C103  C151  1.429011 S    
N10   O68   1.307392 A    
C128  H40   1.084841 S    
C133  C143  1.392552 A    
O44   C160  1.230802 A    
O30   Zn8   1.880266 S    
N2    O52   1.304042 A    
C49   H9    1.085189 S    
N4    O55   1.304788 A    
O38   Zn10  1.995781 S    
C53   H13   1.085005 S    
C58   H18   1.084664 S    
N3    O53   1.302429 A    
C118  C150  1.425626 A    
O10   C6    1.279860 A    
C106  C122  1.398296 A    
C132  H44   1.084439 S    
C66   C78   1.400330 A    
C52   C68   1.390946 A    
C15   C23   1.481729 S    
C16   C24   1.481727 S    
C30   C38   1.458463 S    
N16   O80   1.302547 A    
C59   C75   1.400423 A    
C56   C72   1.391258 A    
N8    O63   1.303073 A    
C128  C140  1.393148 A    
C113  C129  1.398977 A    
C112  C148  1.425517 A    
O31   Zn7   1.880756 S    
C117  C133  1.398146 A    
C48   C64   1.392112 A    
C114  N10   1.449531 S    
C51   C87   1.399815 A    
C111  N7    1.448766 S    
C54   C86   1.398945 A    
C43   H3    1.084369 S    
N1    O49   1.302790 A    
O21   C11   1.294256 A    
O22   C12   1.294430 A    
N13   O74   1.306081 A    
O13   Zn5   2.003788 S    
O45   Zn12  1.996049 S    
C67   C79   1.399850 A    
C50   H10   1.084792 S    
C60   C76   1.399832 A    
O3    Zn3   2.003744 S    
C99   C147  1.428639 S    
C54   H14   1.084868 S    
C63   H23   1.083822 S    
C64   H24   1.084650 S    
N11   O69   1.303120 A    
C117  N13   1.453119 S    
O28   Zn8   1.880471 S    
C116  N12   1.449851 S    
N7    O61   1.304426 A    
C90   C98   1.198968 T    
C5    C141  1.459510 S    
C46   C62   1.392319 A    
O35   C155  1.230966 A    
C66   H26   1.084166 S    
C97   C145  1.430180 S    
C111  C145  1.424027 A    
C104  C152  1.429391 S    
O9    Zn5   2.003747 S    
C76   C155  1.450311 S    
C48   C84   1.399795 A    
O11   Zn7   2.003744 S    
C86   C94   1.419522 S    
O37   C153  1.230707 A    
C68   H28   1.084021 S    
C17   C25   1.234379 T    
C8    C144  1.459965 S    
C115  C151  1.427586 A    
O5    C3    1.279617 A    
C63   C73   1.400490 A    
C61   C75   1.400424 A    
C122  C138  1.393075 A    
C9    C17   1.481729 S    
C131  C143  1.392839 A    
O41   Zn11  1.995317 S    
C49   C65   1.393114 A    
C12   C20   1.481727 S    
C13   C21   1.481729 S    
C98   C146  1.429079 S    
C70   H30   1.084277 S    
O17   Zn1   1.880758 S    
O38   C156  1.231438 A    
C129  H41   1.084715 S    
C55   C71   1.392760 A    
C20   C28   1.234376 T    
N13   O73   1.303612 A    
C41   C57   1.391066 A    
O14   Zn8   2.003744 S    
N15   O77   1.304293 A    
C134  C142  1.392605 A    
O37   Zn10  1.996049 S    
C110  C126  1.399090 A    
C59   H19   1.084170 S    
C56   H16   1.084631 S    
O8    C4    1.280201 A    
C57   H17   1.084017 S    
O4    Zn4   2.003785 S    
N3    O54   1.304442 A    
C102  C150  1.427956 S    
C118  N14   1.450196 S    
O40   Zn10  1.995594 S    
C93   C101  1.197269 T    
C25   C33   1.458463 S    
O20   C10   1.294490 A    
C2    C138  1.457775 S    
C114  C150  1.425449 A    
C18   C26   1.234376 T    
O2    Zn2   2.003789 S    
C77   C160  1.450176 S    
C130  C142  1.392251 A    
C68   C80   1.400523 A    
O16   C8    1.279593 A    
C73   C156  1.452967 S    
C50   C66   1.391345 A    
C87   C95   1.420583 S    
C72   C80   1.400308 A    
C54   C70   1.391702 A    
O25   Zn5   1.880758 S    
O6    C2    1.279607 A    
O27   Zn7   1.879981 S    
C62   C74   1.399898 A    
C36   C37   1.235588 T    
C58   C74   1.399795 A    
C107  C147  1.426500 A    
C105  C145  1.424108 A    
O7    C1    1.279453 A    
N5    O57   1.302133 A    
O33   C153  1.230667 A    
C111  C127  1.399262 A    
C50   C86   1.398297 A    
C109  N5    1.451416 S    
O19   C9    1.294254 A    
C121  H33   1.084782 S    
O24   C12   1.294486 A    
C28   C36   1.458460 S    
C127  C137  1.391500 A    
O24   Zn2   1.880468 S    
O12   Zn8   2.003785 S    
C125  C139  1.392574 A    
C56   C88   1.399121 A    
C120  C136  1.399154 A    
N4    O56   1.305818 A    
C112  N8    1.449776 S    
C45   H5    1.084393 S    
N14   O75   1.303822 A    
C21   C29   1.234376 T    
N12   O71   1.303782 A    
O47   C159  1.230939 A    
O2    C2    1.279836 A    
O39   C155  1.230380 A    
C64   C76   1.399752 A    
O4    C4    1.280167 A    
C131  H43   1.083910 S    
C89   C97   1.196134 T    
N9    O66   1.303666 A    
C55   H15   1.085146 S    
O20   Zn4   1.880471 S    
C41   H1    1.084807 S    
C133  H45   1.084231 S    
C33   C40   1.235588 T    
N8    O64   1.302587 A    
C24   C32   1.234376 T    
O10   Zn6   2.003789 S    
C35   C38   1.235588 T    
C106  N2    1.451693 S    
C42   C82   1.399625 A    
O15   C5    1.280177 A    
C84   C92   1.420457 S    
C74   C153  1.450300 S    
O41   C157  1.231512 A    
O1    Zn1   2.003747 S    
C109  C147  1.425880 A    
O27   C13   1.294256 A    
