data_mof_unit_15500.cif
_audit_creation_date              2012-12-10T19:06:42-0500
_audit_creation_method            fapswitch 2.2
_symmetry_space_group_name_H-M    P1
_symmetry_Int_Tables_number       1
_space_group_crystal_system       triclinic
_cell_length_a                    12.999875
_cell_length_b                    13.645367
_cell_length_c                    16.770164
_cell_angle_alpha                 89.14133
_cell_angle_beta                  92.769888
_cell_angle_gamma                 93.077969
_cell_volume                      2966.83588689

loop_
_atom_site_label
_atom_site_type_symbol
_atom_type_description
_atom_site_fract_x
_atom_site_fract_y
_atom_site_fract_z
_atom_type_partial_charge
C1    C     C_R   0.482474 0.314857 0.502038 0.890489
C2    C     C_2   0.965445 0.460043 0.489302 0.296874
C3    C     C_1   0.853138 0.475525 0.487622 0.036234
C4    C     C_1   0.146558 0.523207 0.510906 0.106383
C5    C     C_R   0.484059 0.496860 0.347108 0.879941
C6    C     C_R   0.515299 0.497046 0.653093 0.878397
C7    C     C_R   0.468650 0.466717 0.264050 -0.136910
C8    C     C_R   0.525162 0.484473 0.739675 -0.144158
C9    C     C_R   0.539582 0.403046 0.235598 -0.357645
C10   C     C_R   0.445059 0.516514 0.784026 -0.330514
C11   C     C_R   0.527737 0.365506 0.158106 0.526639
C12   C     C_R   0.517650 0.684983 0.499080 0.904308
C13   C     C_R   0.442031 0.496448 0.865726 0.521482
C14   C     C_R   0.442393 0.393678 0.110160 0.064425
C15   C     C_R   0.524080 0.447929 0.903352 0.048313
C16   C     C_R   0.366630 0.449730 0.140363 -0.277941
C17   C     C_R   0.607787 0.421823 0.860930 -0.292632
C18   C     C_R   0.378959 0.487475 0.217150 -0.007552
C19   C     C_R   0.608844 0.437668 0.778771 -0.007257
C20   C     C_2   0.444112 0.386484 0.023810 -0.107054
C21   C     C_2   0.526220 0.427062 0.988402 -0.123460
C22   C     C_R   0.696804 0.401728 0.736641 0.140408
C23   C     C_1   0.530921 0.786184 0.510952 -0.187935
C24   C     C_R   0.680940 0.328331 0.678825 -0.078602
C25   C     C_R   0.763872 0.297452 0.637468 -0.104633
C26   C     C_R   0.863897 0.334781 0.656993 -0.153140
C27   C     C_R   0.880705 0.405831 0.715901 -0.170147
C28   C     C_R   0.797530 0.439769 0.755381 -0.155352
C29   C     C_R   0.298434 0.549514 0.245802 0.152435
C30   C     C_R   0.197056 0.510110 0.252539 -0.145249
C31   C     C_R   0.122134 0.566593 0.283609 -0.138502
C32   C     C_R   0.147619 0.662895 0.307507 -0.101345
C33   C     C_R   0.247939 0.703085 0.299999 -0.126191
C34   C     C_1   0.470783 0.212337 0.510473 -0.200706
C35   C     C_R   0.323137 0.646842 0.269029 -0.126230
C36   C     C_3   0.265803 0.508224 0.880522 0.046063
C37   C     C_3   0.211052 0.601717 0.857195 -0.298830
C38   C     C_3   0.104984 0.577901 0.817180 -1.018236
C39   C     C_3   0.694518 0.299649 0.161146 0.082990
C40   C     C_3   0.758723 0.395027 0.144335 -0.383452
C41   C     C_3   0.866980 0.392303 0.183422 -0.964625
C42   C     C_R   0.350750 0.972172 0.496477 0.146714
C43   C     C_R   0.295725 0.005750 0.427939 -0.142140
C44   C     C_R   0.199762 0.961269 0.404558 -0.173665
C45   C     C_2   0.536936 0.972332 0.543035 -0.028760
C46   C     C_R   0.157743 0.883025 0.449187 -0.130428
C47   C     C_R   0.211433 0.849313 0.517415 -0.115313
C48   C     C_R   0.306822 0.894141 0.541512 -0.147156
C49   C     C_R   0.631543 0.016287 0.584359 0.155478
C50   C     C_R   0.728820 0.003363 0.554004 -0.157890
C51   C     C_R   0.818853 0.030334 0.599134 -0.171688
C52   C     C_R   0.812547 0.068443 0.675500 -0.119406
C53   C     C_R   0.716168 0.081694 0.706112 -0.134468
C54   C     C_R   0.625920 0.056760 0.660461 -0.169097
C55   C     C_3   0.931465 0.300865 0.441147 0.077051
C56   C     C_2   0.451733 0.021520 0.523250 -0.031357
C57   C     C_3   0.983112 0.205191 0.426614 -0.299467
C58   C     C_3   0.908436 0.130555 0.384466 -1.001660
C59   C     C_3   0.996397 0.651280 0.596449 0.040676
C60   C     C_3   0.942135 0.747166 0.604054 -0.292705
C61   C     C_3   0.937997 0.777140 0.691039 -0.974685
C62   C     C_1   0.461178 0.125617 0.517888 -0.045938
C63   C     C_1   0.537025 0.871196 0.525087 -0.042290
C64   C     C_2   0.034443 0.535643 0.507747 0.309710
H1    H     H_    0.602848 0.382686 0.275237 0.168609
H2    H     H_    0.958143 0.434859 0.730633 0.134870
H3    H     H_    0.811496 0.495779 0.800288 0.130879
H4    H     H_    0.176654 0.435140 0.235241 0.128896
H5    H     H_    0.044494 0.535477 0.289686 0.138152
H6    H     H_    0.089607 0.706291 0.331832 0.139289
H7    H     H_    0.267624 0.777659 0.318500 0.145728
H8    H     H_    0.400806 0.678515 0.264121 0.108077
H9    H     H_    0.223026 0.469898 0.928689 0.148892
H10   H     H_    0.262019 0.456392 0.829425 0.127795
H11   H     H_    0.202166 0.645465 0.911591 0.226937
H12   H     H_    0.384316 0.557088 0.754809 0.167291
H13   H     H_    0.258034 0.647115 0.815487 0.215317
H14   H     H_    0.113198 0.540215 0.759763 0.255517
H15   H     H_    0.065324 0.646845 0.804738 0.271494
H16   H     H_    0.057040 0.530276 0.856726 0.267424
H17   H     H_    0.733133 0.238987 0.133299 0.169952
H18   H     H_    0.694638 0.279255 0.225436 0.127078
H19   H     H_    0.764897 0.404790 0.078802 0.218268
H20   H     H_    0.721166 0.459428 0.167196 0.221526
H21   H     H_    0.862783 0.386564 0.249252 0.256613
H22   H     H_    0.912294 0.460887 0.168540 0.265162
H23   H     H_    0.595666 0.450573 0.023071 0.148428
H24   H     H_    0.907178 0.328855 0.161543 0.262372
H25   H     H_    0.327177 0.066063 0.392384 0.133901
H26   H     H_    0.157977 0.987458 0.351762 0.135681
H27   H     H_    0.083499 0.848680 0.431025 0.139542
H28   H     H_    0.178939 0.788838 0.552042 0.144511
H29   H     H_    0.346033 0.868426 0.595672 0.129947
H30   H     H_    0.734824 0.970515 0.496127 0.133270
H31   H     H_    0.893478 0.020042 0.575465 0.144116
H32   H     H_    0.882273 0.088354 0.710738 0.133086
H33   H     H_    0.711412 0.111527 0.765179 0.138729
H34   H     H_    0.373467 0.365886 0.989444 0.138054
H35   H     H_    0.551825 0.065183 0.685715 0.129872
H36   H     H_    0.903046 0.331375 0.382744 0.135509
H37   H     H_    0.865461 0.284166 0.479800 0.140952
H38   H     H_    0.050677 0.220426 0.389291 0.228524
H39   H     H_    0.010819 0.173572 0.484745 0.222570
H40   H     H_    0.882407 0.159384 0.324974 0.265548
H41   H     H_    0.840227 0.114223 0.420753 0.267854
H42   H     H_    0.947667 0.061377 0.376119 0.265035
H43   H     H_    0.076001 0.660119 0.623971 0.138565
H44   H     H_    0.952128 0.592421 0.629193 0.147959
H45   H     H_    0.301787 0.470511 0.101748 0.164311
H46   H     H_    0.983578 0.806686 0.570506 0.215811
H47   H     H_    0.862144 0.737856 0.577655 0.235834
H48   H     H_    0.897098 0.718571 0.725945 0.268172
H49   H     H_    0.895865 0.845516 0.694340 0.276418
H50   H     H_    0.017278 0.791102 0.717556 0.260071
H51   H     H_    0.670843 0.385594 0.891733 0.158996
H52   H     H_    0.604123 0.296802 0.664627 0.106098
H53   H     H_    0.750579 0.243459 0.591017 0.147551
H54   H     H_    0.928388 0.308745 0.626480 0.159554
N1    N     N_1   0.235630 0.515160 0.512550 -0.094733
N2    N     N_1   0.764370 0.484840 0.487450 -0.090666
O1    O     O_R   0.402910 0.365220 0.504590 -0.597780
O2    O     O_3   0.593681 0.300636 0.125167 -0.656927
O3    O     O_3   0.004257 0.367697 0.478931 -0.673863
O4    O     O_3   0.999874 0.629216 0.514728 -0.669250
O5    O     O_R   0.597090 0.634780 0.495410 -0.602551
O6    O     O_R   0.572660 0.355490 0.496530 -0.619993
O7    O     O_R   0.427340 0.644510 0.503470 -0.603444
O8    O     O_R   0.405090 0.505430 0.388710 -0.594227
O9    O     O_R   0.594910 0.494570 0.611290 -0.600333
O10   O     O_R   0.574840 0.495690 0.380650 -0.615172
O11   O     O_R   0.425160 0.504310 0.619350 -0.617974
O12   O     O_3   0.366996 0.533483 0.911575 -0.652214
Zn1   Zn    Zn3+2 0.386660 0.506500 0.505380 0.982634
Zn2   Zn    Zn3+2 0.613340 0.493500 0.494620 0.967286

loop_
_geom_bond_atom_site_label_1
_geom_bond_atom_site_label_2
_ccdc_geom_bond_type
O5    Zn2   S    
C21   H23   S    
C47   H28   S    
C40   H20   S    
C12   O7    A    
C53   C54   A    
C41   H22   S    
C12   C23   S    
C26   C27   A    
N1    Zn1   S    
C39   O2    S    
C36   C37   S    
C37   C38   S    
C55   H37   S    
C36   O12   S    
C30   C31   A    
C11   C14   A    
C38   H15   S    
C49   C54   A    
C34   C62   T    
C15   C17   A    
C42   C56   S    
C10   H12   S    
C31   C32   A    
C45   C56   D    
C44   C46   A    
C55   H36   S    
C1    C34   S    
C4    N1    T    
C14   C16   A    
C56   C62   S    
C23   C63   T    
C37   H11   S    
C59   C60   S    
C22   C28   A    
C40   H19   S    
O10   Zn2   S    
C6    O9    A    
C2    C64   D    
C16   H45   S    
C9    H1    S    
C57   H39   S    
C55   O3    S    
C8    C19   A    
C48   H29   S    
C51   C52   A    
C14   C20   S    
C28   H3    S    
C24   C25   A    
C39   H17   S    
O7    Zn1   S    
C3    N2    T    
C39   C40   S    
C5    C7    S    
C50   H30   S    
C32   H6    S    
C46   H27   S    
C38   H14   S    
C53   H33   S    
C25   C26   A    
C2    O3    S    
C37   H13   S    
C45   C63   S    
C59   H43   S    
C60   C61   S    
C58   H42   S    
C43   C44   A    
C29   C30   A    
C57   H38   S    
C31   H5    S    
C47   C48   A    
C45   C49   S    
C7    C18   A    
C19   C22   S    
C50   C51   A    
C18   C29   S    
C42   C48   A    
C1    O6    A    
C9    C11   A    
C36   H10   S    
C16   C18   A    
C5    O10   A    
C35   H8    S    
C24   H52   S    
C55   C57   S    
C61   H49   S    
C22   C24   A    
C54   H35   S    
C11   O2    S    
C58   H40   S    
C42   C43   A    
C17   C19   A    
C61   H50   S    
C44   H26   S    
C52   C53   A    
C17   H51   S    
C59   O4    S    
C7    C9    A    
C41   H24   S    
C29   C35   A    
C46   C47   A    
C40   C41   S    
C26   H54   S    
C39   H18   S    
C6    O11   A    
O11   Zn1   S    
C10   C13   A    
C25   H53   S    
C6    C8    S    
C12   O5    A    
C41   H21   S    
C4    C64   S    
C59   H44   S    
C58   H41   S    
C32   C33   A    
C13   C15   A    
C2    C3    S    
C60   H47   S    
C64   O4    S    
O8    Zn1   S    
C57   C58   S    
C38   H16   S    
C5    O8    A    
C33   C35   A    
C13   O12   S    
C52   H32   S    
N2    Zn2   S    
C43   H25   S    
C1    O1    A    
C60   H46   S    
C36   H9    S    
C33   H7    S    
O9    Zn2   S    
C15   C21   S    
C20   H34   S    
C20   C21   D    
O6    Zn2   S    
C8    C10   A    
C49   C50   A    
C27   C28   A    
C27   H2    S    
O1    Zn1   S    
C61   H48   S    
C30   H4    S    
C51   H31   S    
