data_mof_unit_61534.cif
_audit_creation_date              2012-12-10T20:01:12-0500
_audit_creation_method            fapswitch 2.2
_symmetry_space_group_name_H-M    P1
_symmetry_Int_Tables_number       1
_space_group_crystal_system       triclinic
_cell_length_a                    32.104555
_cell_length_b                    32.104225
_cell_length_c                    23.561235
_cell_angle_alpha                 89.999631
_cell_angle_beta                  89.999733
_cell_angle_gamma                 89.977146
_cell_volume                      24284.3711285

loop_
_atom_site_label
_atom_site_type_symbol
_atom_type_description
_atom_site_fract_x
_atom_site_fract_y
_atom_site_fract_z
_atom_type_partial_charge
C1    C     C_R   0.000008 0.419300 0.500002 0.900290
C2    C     C_1   0.162140 0.000084 0.499992 0.140357
C3    C     C_R   0.728125 0.970716 0.467311 -0.200056
C4    C     C_R   0.030141 0.271875 0.531211 -0.200114
C5    C     C_R   0.728112 0.029119 0.532684 -0.200025
C6    C     C_R   0.969861 0.728126 0.531221 -0.200106
C7    C     C_R   0.271888 0.971081 0.533008 -0.200038
C8    C     C_R   0.471563 0.771889 0.966218 -0.200063
C9    C     C_R   0.771876 0.529117 0.967028 -0.200145
C10   C     C_R   0.527717 0.228111 0.965127 -0.200057
C11   C     C_R   0.228124 0.470626 0.967461 -0.200145
C12   C     C_R   0.528607 0.771876 0.033781 -0.200084
C13   C     C_1   0.999917 0.837860 0.500007 0.140068
C14   C     C_R   0.228111 0.529207 0.032537 -0.200135
C15   C     C_R   0.472110 0.228124 0.034880 -0.200067
C16   C     C_R   0.771889 0.471055 0.032963 -0.200124
C17   C     C_R   0.000075 0.293427 0.500007 0.014686
C18   C     C_R   0.293428 0.000077 0.499991 0.014858
C19   C     C_R   0.999925 0.706573 0.500012 0.014686
C20   C     C_R   0.706572 0.999925 0.499994 0.014812
C21   C     C_R   0.500078 0.793429 0.000004 0.014977
C22   C     C_R   0.793429 0.500078 0.999991 0.014917
C23   C     C_R   0.499921 0.206571 0.000009 0.015086
C24   C     C_1   0.837859 0.999918 0.499996 0.140343
C25   C     C_R   0.206571 0.499923 0.999995 0.014879
C26   C     C_1   0.500084 0.662141 0.000005 0.140282
C27   C     C_1   0.662141 0.500086 0.999993 0.140058
C28   C     C_1   0.499915 0.337859 0.000005 0.140359
C29   C     C_1   0.337859 0.499917 0.999996 0.140024
C30   C     C_1   0.000055 0.337811 0.500012 0.020721
C31   C     C_1   0.337812 0.000056 0.499984 0.020862
C32   C     C_1   0.999945 0.662189 0.500018 0.020725
C33   C     C_R   0.419299 0.000008 0.499997 0.900202
C34   C     C_1   0.662189 0.999945 0.499988 0.020852
C35   C     C_1   0.500056 0.837812 0.000011 0.020784
C36   C     C_1   0.837812 0.500056 0.999984 0.020677
C37   C     C_1   0.499943 0.162188 0.000016 0.020808
C38   C     C_1   0.162188 0.499944 0.999989 0.020669
C39   C     C_1   0.000031 0.375089 0.500009 -0.157546
C40   C     C_1   0.375088 0.000031 0.499988 -0.157445
C41   C     C_1   0.999969 0.624911 0.500012 -0.157544
C42   C     C_1   0.624911 0.999969 0.499991 -0.157447
C43   C     C_1   0.500031 0.875089 0.000008 -0.157536
C44   C     C_R   0.999992 0.580700 0.500003 0.900291
C45   C     C_1   0.875088 0.500031 0.999988 -0.157637
C46   C     C_1   0.499969 0.124911 0.000012 -0.157522
C47   C     C_1   0.124911 0.499969 0.999992 -0.157644
C48   C     C_1   0.000052 0.124862 0.500004 -0.081212
C49   C     C_1   0.124862 0.000053 0.499995 -0.080830
C50   C     C_1   0.999947 0.875138 0.500005 -0.081210
C51   C     C_1   0.875138 0.999948 0.499996 -0.080848
C52   C     C_1   0.500053 0.624862 0.000004 -0.080897
C53   C     C_1   0.624863 0.500054 0.999995 -0.081228
C54   C     C_1   0.499947 0.375137 0.000005 -0.080820
C55   C     C_R   0.580701 0.999992 0.499998 0.900214
C56   C     C_1   0.375137 0.499947 0.999996 -0.081260
C57   C     C_R   1.000000 0.500000 0.390450 0.901625
C58   C     C_R   0.500000 0.000000 0.390449 0.901551
C59   C     C_R   1.000000 0.500000 0.609550 0.901607
C60   C     C_R   0.500000 1.000000 0.609551 0.901568
C61   C     C_R   0.500000 0.000000 0.890450 0.901600
C62   C     C_R   1.000000 0.500000 0.890449 0.901650
C63   C     C_R   0.500000 0.000000 0.109550 0.901581
C64   C     C_R   1.000000 0.500000 0.109551 0.901668
C65   C     C_R   0.080663 0.000011 0.499999 0.898562
C66   C     C_R   0.500008 0.919299 0.000002 0.900243
C67   C     C_R   0.999989 0.919338 0.500001 0.898668
C68   C     C_R   0.919337 0.999989 0.499999 0.898645
C69   C     C_R   0.000011 0.080662 0.500000 0.898672
C70   C     C_R   0.580663 0.500011 0.999999 0.897738
C71   C     C_R   0.499989 0.419337 0.000001 0.897599
C72   C     C_R   0.419337 0.499989 0.999999 0.897843
C73   C     C_R   0.500011 0.580663 0.000000 0.897883
C74   C     C_1   0.000000 0.500000 0.330313 -0.163017
C75   C     C_1   0.499999 0.000000 0.330312 -0.162931
C76   C     C_1   1.000000 0.500000 0.669687 -0.163019
C77   C     C_R   0.919299 0.500008 0.999996 0.900305
C78   C     C_1   0.500001 1.000000 0.669687 -0.162929
C79   C     C_1   0.500000 0.000000 0.830313 -0.163014
C80   C     C_1   0.999999 0.500000 0.830312 -0.163112
C81   C     C_1   0.500000 0.000000 0.169687 -0.163017
C82   C     C_1   0.000001 0.500000 0.169687 -0.163110
C83   C     C_1   0.000001 0.500000 0.279597 0.028776
C84   C     C_1   0.499999 0.000000 0.279597 0.028855
C85   C     C_1   0.999999 0.500000 0.720403 0.028767
C86   C     C_1   0.500001 1.000000 0.720403 0.028864
C87   C     C_1   0.500001 0.000000 0.779597 0.028835
C88   C     C_R   0.499992 0.080701 0.000003 0.900224
C89   C     C_1   0.999999 0.500000 0.779597 0.028737
C90   C     C_1   0.499999 0.000000 0.220403 0.028826
C91   C     C_1   0.000001 0.500000 0.220403 0.028746
C92   C     C_R   0.030311 0.228454 0.531365 0.369141
C93   C     C_R   0.228471 0.970938 0.533183 0.369240
C94   C     C_R   0.969692 0.771546 0.531373 0.369159
C95   C     C_R   0.771529 0.029265 0.532857 0.369240
C96   C     C_R   0.969871 0.228470 0.468632 0.369103
C97   C     C_R   0.771546 0.970552 0.467150 0.369300
C98   C     C_R   0.030125 0.771530 0.468629 0.369082
C99   C     C_R   0.080702 0.499992 0.999998 0.900309
C100  C     C_R   0.228455 0.029253 0.466821 0.369297
C101  C     C_R   0.528769 0.728455 0.033948 0.369252
C102  C     C_R   0.728471 0.470912 0.033138 0.369049
C103  C     C_R   0.471952 0.271545 0.035051 0.369347
C104  C     C_R   0.271529 0.529353 0.032708 0.369099
C105  C     C_R   0.471422 0.728470 0.966040 0.369224
C106  C     C_R   0.271545 0.470460 0.967303 0.369076
C107  C     C_R   0.527853 0.271530 0.964941 0.369259
C108  C     C_R   0.728455 0.529283 0.966868 0.369187
C109  C     C_R   0.000093 0.206658 0.499997 -0.066815
C110  C     C_1   0.000082 0.162140 0.500006 0.140068
C111  C     C_R   0.206658 0.000098 0.500003 -0.066821
C112  C     C_R   0.999906 0.793342 0.499999 -0.066813
C113  C     C_R   0.793342 0.999906 0.500005 -0.066844
C114  C     C_R   0.500098 0.706658 0.999994 -0.066688
C115  C     C_R   0.706658 0.500100 0.000004 -0.066623
C116  C     C_R   0.499900 0.293342 0.999995 -0.066626
C117  C     C_R   0.293342 0.499904 0.000006 -0.066644
C118  C     C_R   0.970021 0.271888 0.468796 -0.200093
C119  C     C_R   0.271875 0.029088 0.466983 -0.200041
C120  C     C_R   0.029975 0.728112 0.468795 -0.200096
Cl1   Cl    Cl    0.068704 0.202298 0.571197 -0.540285
Cl2   Cl    Cl    0.702337 0.433835 0.075219 -0.541275
Cl3   Cl    Cl    0.436439 0.297699 0.079570 -0.540510
Cl4   Cl    Cl    0.297661 0.566766 0.074237 -0.540748
Cl5   Cl    Cl    0.434994 0.702336 0.922918 -0.540404
Cl6   Cl    Cl    0.297699 0.433040 0.925775 -0.541130
Cl7   Cl    Cl    0.563358 0.297663 0.920417 -0.540763
Cl8   Cl    Cl    0.702301 0.566369 0.924792 -0.540739
Cl9   Cl    Cl    0.202337 0.933895 0.575323 -0.539883
Cl10  Cl    Cl    0.931301 0.797702 0.571211 -0.540126
Cl11  Cl    Cl    0.797662 0.066557 0.574580 -0.539824
Cl12  Cl    Cl    0.931484 0.202336 0.428799 -0.540217
Cl13  Cl    Cl    0.797701 0.933253 0.425428 -0.539757
Cl14  Cl    Cl    0.068508 0.797663 0.428787 -0.540364
Cl15  Cl    Cl    0.202302 0.066305 0.424684 -0.539785
Cl16  Cl    Cl    0.565205 0.702302 0.077069 -0.540509
H1    H     H_    0.053386 0.288769 0.555356 0.192872
H2    H     H_    0.788791 0.448595 0.058461 0.192708
H3    H     H_    0.450611 0.211229 0.061863 0.192585
H4    H     H_    0.211209 0.551868 0.057703 0.192756
H5    H     H_    0.449495 0.788791 0.940091 0.192683
H6    H     H_    0.211232 0.447975 0.942287 0.192739
H7    H     H_    0.549227 0.211207 0.938154 0.192582
H8    H     H_    0.788769 0.551566 0.941521 0.192715
H9    H     H_    0.288790 0.948641 0.558540 0.192769
H10   H     H_    0.946619 0.711232 0.555371 0.192882
H11   H     H_    0.711208 0.051711 0.557964 0.192803
H12   H     H_    0.946766 0.288793 0.444659 0.192885
H13   H     H_    0.711231 0.948136 0.442022 0.192787
H14   H     H_    0.053228 0.711207 0.444655 0.192879
H15   H     H_    0.288768 0.051517 0.441442 0.192775
H16   H     H_    0.550663 0.788770 0.059917 0.192670
O1    O     O_R   0.965560 0.438990 0.499980 -0.608741
O2    O     O_R   0.938990 0.534440 0.999980 -0.608773
O3    O     O_R   0.534440 0.061010 0.999980 -0.608699
O4    O     O_R   0.061010 0.465560 0.999980 -0.608800
O5    O     O_R   0.534440 0.938990 0.000020 -0.608748
O6    O     O_R   0.061010 0.534440 0.000020 -0.608747
O7    O     O_R   0.465560 0.061010 0.000020 -0.608712
O8    O     O_R   0.938990 0.465560 0.000020 -0.608763
O9    O     O_R   0.060930 0.999970 0.453240 -0.602135
O10   O     O_R   0.999970 0.939070 0.453240 -0.602363
O11   O     O_R   0.939070 0.000030 0.453240 -0.602194
O12   O     O_R   0.438990 0.034440 0.499980 -0.608697
O13   O     O_R   0.000030 0.060930 0.453240 -0.602360
O14   O     O_R   0.939070 0.999970 0.546760 -0.602147
O15   O     O_R   0.000030 0.939070 0.546760 -0.602403
O16   O     O_R   0.060930 0.000030 0.546760 -0.602084
O17   O     O_R   0.999970 0.060930 0.546760 -0.602412
O18   O     O_R   0.560930 0.499970 0.953240 -0.602021
O19   O     O_R   0.499970 0.439070 0.953240 -0.601669
O20   O     O_R   0.439070 0.500030 0.953240 -0.602098
O21   O     O_R   0.500030 0.560930 0.953240 -0.601861
O22   O     O_R   0.439070 0.499970 0.046760 -0.602044
O23   O     O_R   0.034440 0.561010 0.499980 -0.608757
O24   O     O_R   0.500030 0.439070 0.046760 -0.601711
O25   O     O_R   0.560930 0.500030 0.046760 -0.601975
O26   O     O_R   0.499970 0.560930 0.046760 -0.601919
O27   O     O_R   0.965560 0.499980 0.417220 -0.608782
O28   O     O_R   0.499980 0.034440 0.417220 -0.608751
O29   O     O_R   0.034440 0.500020 0.417220 -0.608799
O30   O     O_R   0.500020 0.965560 0.417220 -0.608787
O31   O     O_R   0.034440 0.499980 0.582780 -0.608806
O32   O     O_R   0.500020 0.034440 0.582780 -0.608743
O33   O     O_R   0.965560 0.500020 0.582780 -0.608789
O34   O     O_R   0.561010 0.965560 0.499980 -0.608738
O35   O     O_R   0.499980 0.965560 0.582780 -0.608781
O36   O     O_R   0.465560 0.999980 0.917220 -0.608794
O37   O     O_R   0.999980 0.534440 0.917220 -0.608830
O38   O     O_R   0.534440 0.000020 0.917220 -0.608809
O39   O     O_R   0.000020 0.465560 0.917220 -0.608842
O40   O     O_R   0.534440 0.999980 0.082780 -0.608816
O41   O     O_R   0.000020 0.534440 0.082780 -0.608823
O42   O     O_R   0.465560 0.000020 0.082780 -0.608800
O43   O     O_R   0.999980 0.465560 0.082780 -0.608837
O44   O     O_R   0.034440 0.438990 0.500020 -0.608789
O45   O     O_R   0.561010 0.034440 0.500020 -0.608676
O46   O     O_R   0.965560 0.561010 0.500020 -0.608771
O47   O     O_R   0.438990 0.965560 0.500020 -0.608697
O48   O     O_R   0.465560 0.938990 0.999980 -0.608700
Zn1   Zn    Zn3+2 0.954010 0.500000 0.500000 1.022696
Zn2   Zn    Zn3+2 0.000000 0.000000 0.562390 1.073939
Zn3   Zn    Zn3+2 0.500000 0.500000 0.937610 1.075356
Zn4   Zn    Zn3+2 0.500000 0.500000 0.062390 1.075355
Zn5   Zn    Zn3+2 0.500000 0.045990 0.500000 1.022993
Zn6   Zn    Zn3+2 0.045990 0.500000 0.500000 1.022629
Zn7   Zn    Zn3+2 0.500000 0.954010 0.500000 1.022853
Zn8   Zn    Zn3+2 0.454010 0.000000 0.000000 1.022641
Zn9   Zn    Zn3+2 1.000000 0.545990 0.000000 1.022391
Zn10  Zn    Zn3+2 0.545990 0.000000 0.000000 1.022579
Zn11  Zn    Zn3+2 0.000000 0.454010 0.000000 1.022331
Zn12  Zn    Zn3+2 1.000000 0.000000 0.437610 1.073936

loop_
_geom_bond_atom_site_label_1
_geom_bond_atom_site_label_2
_ccdc_geom_bond_type
O22   Zn4   S    
C60   O32   A    
C48   C110  T    
C44   O46   A    
C5    H11   S    
O26   Zn4   S    
O24   Zn4   S    
O45   Zn5   S    
C34   C42   T    
C44   O23   A    
C97   Cl13  S    
C48   C69   S    
C103  Cl3   S    
C8    C105  A    
O6    Zn9   S    
C57   O29   A    
O7    Zn8   S    
C5    C20   A    
C31   C40   T    
C9    C108  A    
C6    C19   A    
C68   O11   A    
C65   O16   A    
C60   C78   S    
C92   C109  A    
C94   Cl10  S    
C49   C65   S    
O34   Zn7   S    
C63   C81   S    
C72   O20   A    
C108  C115  A    
C62   C80   S    
C61   C79   S    
O2    Zn9   S    
O12   Zn5   S    
C43   C66   S    
C28   C54   T    
C25   C38   S    
C9    C22   A    
C88   O7    A    
C11   C25   A    
C101  C114  A    
C63   O40   A    
C64   O43   A    
C47   C99   S    
C71   O24   A    
C4    C92   A    
O30   Zn7   S    
O14   Zn2   S    
O15   Zn2   S    
O33   Zn1   S    
C80   C89   T    
C12   H16   S    
C102  C115  A    
C28   C116  S    
O35   Zn7   S    
O17   Zn2   S    
O41   Zn9   S    
C46   C88   S    
C27   C115  S    
C54   C71   S    
O27   Zn1   S    
C6    C94   A    
C32   C41   T    
C8    H5    S    
C72   O22   A    
C35   C43   T    
C50   C67   S    
C74   C83   T    
O1    Zn1   S    
C100  Cl15  S    
C96   Cl12  S    
C20   C34   S    
C78   C86   T    
C24   C51   T    
C15   C23   A    
C4    H1    S    
O29   Zn6   S    
O5    Zn10  S    
O48   Zn8   S    
C59   C76   S    
C99   O4    A    
O4    Zn11  S    
C95   Cl11  S    
C17   C30   S    
C10   C107  A    
C84   C90   S    
C11   C106  A    
C93   Cl9   S    
C53   C70   S    
C79   C87   T    
C5    C95   A    
C9    H8    S    
C58   C75   S    
C62   O37   A    
C15   H3    S    
C119  H15   S    
C7    C93   A    
O9    Zn12  S    
C2    C111  S    
C3    H13   S    
C33   C40   S    
C98   C112  A    
C88   O3    A    
C105  C114  A    
C3    C20   A    
C1    O44   A    
C52   C73   S    
C57   O27   A    
C85   C89   S    
C86   C87   S    
C56   C72   S    
C23   C37   S    
C29   C117  S    
C12   C21   A    
C61   O36   A    
O32   Zn5   S    
C57   C74   S    
O20   Zn3   S    
C59   O31   A    
C26   C114  S    
O43   Zn11  S    
C2    C49   T    
C26   C52   T    
C77   O2    A    
C3    C97   A    
C1    C39   S    
C14   C104  A    
C7    C18   A    
O40   Zn10  S    
C64   O41   A    
C33   O12   A    
O46   Zn1   S    
O47   Zn7   S    
C8    C21   A    
O18   Zn3   S    
O25   Zn4   S    
C36   C45   T    
C55   O34   A    
C100  C119  A    
C69   O17   A    
C108  Cl8   S    
C1    O1    A    
C64   C82   S    
C38   C47   T    
C102  Cl2   S    
C17   C118  A    
C93   C111  A    
C21   C35   S    
C73   O26   A    
C16   C102  A    
O19   Zn3   S    
C14   H4    S    
C19   C120  A    
C60   O35   A    
C106  C117  A    
C61   O38   A    
C41   C44   S    
C71   O19   A    
C4    C17   A    
C97   C113  A    
O28   Zn5   S    
C83   C91   S    
C104  C117  A    
C101  Cl16  S    
C67   O15   A    
O8    Zn11  S    
C106  Cl6   S    
O36   Zn8   S    
C16   C22   A    
C19   C32   S    
O3    Zn10  S    
C16   H2    S    
C81   C90   T    
C58   O28   A    
O11   Zn12  S    
C27   C53   T    
O13   Zn12  S    
C98   C120  A    
C62   O39   A    
C104  Cl4   S    
C29   C56   T    
C10   C23   A    
C13   C112  S    
O21   Zn3   S    
C22   C36   S    
C96   C109  A    
C98   Cl14  S    
C120  H14   S    
C73   O21   A    
C105  Cl5   S    
C58   O30   A    
C118  H12   S    
C103  C116  A    
O38   Zn10  S    
C107  Cl7   S    
C12   C101  A    
O37   Zn9   S    
C92   Cl1   S    
C96   C118  A    
C67   O10   A    
C55   O45   A    
O10   Zn12  S    
C95   C113  A    
C42   C55   S    
C6    H10   S    
C76   C85   T    
C94   C112  A    
O16   Zn2   S    
C30   C39   T    
C59   O33   A    
C51   C68   S    
C66   O5    A    
C14   C25   A    
O44   Zn6   S    
C75   C84   T    
C11   H6    S    
C69   O13   A    
C107  C116  A    
C82   C91   T    
C77   O8    A    
C13   C50   T    
C70   O25   A    
C24   C113  S    
C63   O42   A    
C100  C111  A    
C70   O18   A    
C99   O6    A    
C65   O9    A    
O31   Zn6   S    
C33   O47   A    
C45   C77   S    
C18   C31   S    
O23   Zn6   S    
C15   C103  A    
C37   C46   T    
C109  C110  S    
C18   C119  A    
O42   Zn8   S    
C66   O48   A    
O39   Zn11  S    
C10   H7    S    
C7    H9    S    
C68   O14   A    
