data_mof_unit_65708.cif
_audit_creation_date              2012-12-10T19:37:05-0500
_audit_creation_method            fapswitch 2.2
_symmetry_space_group_name_H-M    P1
_symmetry_Int_Tables_number       1
_space_group_crystal_system       triclinic
_cell_length_a                    16.400278
_cell_length_b                    16.753053
_cell_length_c                    27.647886
_cell_angle_alpha                 91.505159
_cell_angle_beta                  91.196289
_cell_angle_gamma                 86.793619
_cell_volume                      7580.44498932

loop_
_atom_site_label
_atom_site_type_symbol
_atom_type_description
_atom_site_fract_x
_atom_site_fract_y
_atom_site_fract_z
_atom_type_partial_charge
C1    C     C_R   0.488127 0.652170 0.497722 0.893672
C2    C     C_R   0.511826 0.347888 0.502594 0.892549
C3    C     C_R   0.486242 0.503890 0.898139 -0.063577
C4    C     C_R   0.497363 0.499987 0.101068 -0.064724
C5    C     C_R   0.456052 0.573055 0.874374 -0.079079
C6    C     C_R   0.501675 0.426832 0.125106 -0.080463
C7    C     C_R   0.423112 0.638420 0.901338 -0.277388
C8    C     C_R   0.498444 0.355010 0.098399 -0.255442
C9    C     C_R   0.516179 0.436727 0.871024 -0.093025
C10   C     C_R   0.497431 0.572515 0.127932 -0.095208
C11   C     C_R   0.495625 0.502999 0.646414 -0.127233
C12   C     C_R   0.502262 0.500768 0.353278 -0.138957
C13   C     C_R   0.481913 0.574289 0.026356 -0.067865
C14   C     C_R   0.512214 0.430729 0.972716 -0.060092
C15   C     C_R   0.500774 0.427558 0.023260 -0.060648
C16   C     C_R   0.464399 0.572530 0.976056 -0.058064
C17   C     C_R   0.493239 0.500607 0.050158 -0.044545
C18   C     C_R   0.487374 0.502265 0.949040 -0.046394
C19   C     C_R   0.491956 0.646336 0.053525 0.486601
C20   C     C_R   0.550467 0.366920 0.945100 0.490509
C21   C     C_R   0.496490 0.644989 0.103898 -0.248733
C22   C     C_R   0.549172 0.369311 0.894754 -0.247985
C23   C     C_R   0.498943 0.500278 0.593777 0.924589
C24   C     C_R   0.500831 0.500511 0.406131 0.925579
C25   C     C_R   0.423174 0.637132 0.951693 0.519558
C26   C     C_R   0.494642 0.354899 0.048011 0.490677
C27   C     C_R   0.480727 0.737267 0.488952 -0.080475
C28   C     C_R   0.518911 0.263289 0.512927 -0.077876
C29   C     C_R   0.546463 0.773504 0.468585 -0.167204
C30   C     C_R   0.453197 0.228638 0.534403 -0.170041
C31   C     C_R   0.542467 0.855155 0.462208 -0.134837
C32   C     C_R   0.456759 0.147445 0.542416 -0.137246
C33   C     C_R   0.473374 0.901108 0.476865 0.086375
C34   C     C_R   0.525384 0.100312 0.528283 0.087168
C35   C     C_R   0.405007 0.864918 0.494336 0.207611
C36   C     C_R   0.593935 0.135131 0.509969 0.207085
C37   C     C_R   0.408736 0.782514 0.499824 -0.189732
C38   C     C_R   0.590652 0.217127 0.502856 -0.189135
C39   C     C_2   0.480760 0.986313 0.482556 0.086151
C40   C     C_2   0.516740 0.015202 0.523075 0.085234
C41   C     C_R   0.763188 0.453282 0.481250 0.246487
C42   C     C_R   0.237523 0.546077 0.519715 0.245937
C43   C     C_R   0.848046 0.446090 0.489143 0.059627
C44   C     C_R   0.152929 0.555526 0.511339 0.052566
C45   C     C_R   0.457690 0.574166 0.823881 0.571117
C46   C     C_R   0.506085 0.427610 0.175637 0.562833
C47   C     C_R   0.886101 0.505280 0.516993 0.003438
C48   C     C_R   0.113975 0.498689 0.482094 0.011024
C49   C     C_R   0.836373 0.562621 0.542858 0.106187
C50   C     C_R   0.162986 0.442020 0.455234 0.099373
C51   C     C_R   0.751242 0.562987 0.537282 -0.075714
C52   C     C_R   0.248143 0.439696 0.461293 -0.085161
C53   C     C_2   0.976765 0.506050 0.519536 -0.100339
C54   C     C_2   0.023184 0.499197 0.479466 -0.092774
C55   C     C_R   0.515244 0.439979 0.820569 0.620726
C56   C     C_R   0.500671 0.570460 0.178442 0.626895
C57   C     C_R   0.556272 0.537005 0.724052 0.168230
C58   C     C_R   0.577525 0.490604 0.278860 0.172378
C59   C     C_R   0.559765 0.533855 0.673909 -0.222097
C60   C     C_R   0.576536 0.491719 0.329088 -0.215370
C61   C     C_R   0.427407 0.475742 0.669318 -0.301140
C62   C     C_R   0.428716 0.510209 0.326704 -0.312637
C63   C     C_R   0.421626 0.481424 0.719761 0.518307
C64   C     C_R   0.428594 0.506545 0.276079 0.515891
C65   C     C_R   0.487713 0.510005 0.746882 0.163143
C66   C     C_R   0.503678 0.498277 0.252475 0.161149
H1    H     H_    0.380175 0.448105 0.647928 0.175403
H2    H     H_    0.371815 0.522250 0.345348 0.180191
H3    H     H_    0.642446 0.243778 0.487504 0.198205
H4    H     H_    0.357037 0.754683 0.514503 0.200265
H5    H     H_    0.403753 0.120402 0.556288 0.179921
H6    H     H_    0.595304 0.883283 0.448958 0.181925
H7    H     H_    0.286256 0.398323 0.439775 0.173063
H8    H     H_    0.712654 0.605229 0.557914 0.173985
H9    H     H_    0.993943 0.490844 0.444247 0.193124
H10   H     H_    0.005840 0.514170 0.554823 0.187828
H11   H     H_    0.394806 0.690050 0.883523 0.208852
H12   H     H_    0.496418 0.298517 0.116423 0.211870
H13   H     H_    0.633917 0.486030 0.348997 0.209790
H14   H     H_    0.612631 0.555338 0.656534 0.194315
H15   H     H_    0.501627 0.701013 0.123920 0.213107
H16   H     H_    0.576761 0.318921 0.874495 0.212380
H17   H     H_    0.601705 0.739042 0.458605 0.175981
H18   H     H_    0.398222 0.263919 0.543936 0.172383
N1    N     N_R   0.486538 0.508057 0.798317 -0.326129
N2    N     N_R   0.504334 0.498744 0.200980 -0.328213
N3    N     N_R   0.716300 0.510230 0.506270 -0.144541
N4    N     N_R   0.283700 0.489770 0.493730 -0.141822
O1    O     O_R   0.422340 0.612130 0.497740 -0.594974
O2    O     O_R   0.577660 0.387870 0.502260 -0.595920
O3    O     O_R   0.561250 0.618690 0.501770 -0.622181
O4    O     O_R   0.438750 0.381310 0.498230 -0.621130
O5    O     O_R   0.430560 0.496700 0.569230 -0.601749
O6    O     O_R   0.569440 0.503300 0.430770 -0.602761
O7    O     O_R   0.569460 0.503270 0.573260 -0.618409
O8    O     O_R   0.430540 0.496730 0.426740 -0.622089
O9    O     O_2   0.431531 0.640749 0.800453 -0.572230
O10   O     O_2   0.512032 0.358093 0.199374 -0.564919
O11   O     O_2   0.500066 0.639301 0.204955 -0.532111
O12   O     O_2   0.543319 0.376073 0.793823 -0.534773
Zn1   Zn    Zn3+2 0.407250 0.495620 0.497310 0.984211
Zn2   Zn    Zn3+2 0.592750 0.504380 0.502690 0.990958
I1    I     I_    0.557241 0.943584 0.582409 -0.250897
I2    I     I_    0.440230 0.057869 0.423175 -0.260554
I3    I     I_    0.298673 0.932117 0.517245 -0.230714
I4    I     I_    0.699686 0.066163 0.487868 -0.227802
I5    I     I_    0.711395 0.376450 0.427630 -0.248790
I6    I     I_    0.289838 0.618933 0.575388 -0.295650
I7    I     I_    0.883183 0.647083 0.592943 -0.251929
I8    I     I_    0.115180 0.362110 0.402666 -0.294587
I9    I     I_    0.088952 0.665477 0.532829 -0.225384
I10   I     I_    0.914568 0.336954 0.468681 -0.207586
O13   O     O_3   0.357149 0.451127 0.743975 -0.632041
C67   C     C_3   0.280799 0.487139 0.728968 0.061203
H19   H     H_    0.232540 0.451493 0.743947 0.185427
H20   H     H_    0.270999 0.484946 0.689102 0.145085
C68   C     C_3   0.268695 0.573292 0.748827 -0.358202
H21   H     H_    0.277206 0.573968 0.788823 0.243456
H22   H     H_    0.314496 0.611023 0.733100 0.259745
C69   C     C_3   0.183551 0.609023 0.736157 -0.858240
H23   H     H_    0.174201 0.609974 0.696251 0.284381
H24   H     H_    0.176788 0.671316 0.750843 0.277970
H25   H     H_    0.136146 0.573540 0.752177 0.260208
O14   O     O_3   0.357465 0.520397 0.248683 -0.629900
C70   C     C_3   0.298696 0.464104 0.257999 0.068578
H26   H     H_    0.239503 0.487717 0.242368 0.190595
H27   H     H_    0.288126 0.456950 0.297171 0.139833
C71   C     C_3   0.320711 0.382758 0.233525 -0.373891
H28   H     H_    0.331771 0.391048 0.194493 0.239288
H29   H     H_    0.377223 0.355778 0.250639 0.257264
C72   C     C_3   0.252449 0.325425 0.238453 -0.864009
H30   H     H_    0.240943 0.315654 0.277256 0.281920
H31   H     H_    0.270512 0.266998 0.220786 0.274595
H32   H     H_    0.195374 0.349870 0.220678 0.263346
I11   I     I_    0.691731 0.478794 0.244199 -0.263958
I12   I     I_    0.656491 0.581121 0.764102 -0.281101
O15   O     O_3   0.503231 0.718012 0.031578 -0.573194
C73   C     C_3   0.585957 0.719435 0.018428 0.103128
H33   H     H_    0.603629 0.668672 0.993206 0.128028
H34   H     H_    0.626551 0.715852 0.051230 0.107573
C74   C     C_3   0.600304 0.797865 0.993687 -0.348955
H35   H     H_    0.581510 0.849180 0.018030 0.233230
H36   H     H_    0.666630 0.800639 0.986877 0.177891
C75   C     C_3   0.553386 0.805011 0.945553 -0.714239
H37   H     H_    0.569748 0.753075 0.921163 0.246780
H38   H     H_    0.569117 0.860538 0.927674 0.233727
H39   H     H_    0.486583 0.808164 0.951578 0.302572
O16   O     O_3   0.594016 0.303713 0.966434 -0.594626
C76   C     C_3   0.672021 0.328490 0.980701 0.078493
H40   H     H_    0.667317 0.382330 0.005282 0.136150
H41   H     H_    0.707461 0.342259 0.948274 0.141811
C77   C     C_3   0.717631 0.260872 0.007837 -0.288056
H42   H     H_    0.682083 0.246151 0.039916 0.246291
H43   H     H_    0.723755 0.206772 0.983755 0.232244
C78   C     C_3   0.802446 0.284287 0.024612 -0.937930
H44   H     H_    0.839514 0.298153 0.993041 0.266283
H45   H     H_    0.833922 0.233904 0.044103 0.275587
H46   H     H_    0.797629 0.337355 0.049549 0.272109
O17   O     O_3   0.379853 0.698584 0.975992 -0.608138
C79   C     C_3   0.306481 0.670779 0.993770 0.105036
H47   H     H_    0.288478 0.709743 0.025334 0.185507
H48   H     H_    0.313349 0.608615 0.007378 0.117817
C80   C     C_3   0.238133 0.677241 0.955162 -0.389448
H49   H     H_    0.231682 0.739564 0.942201 0.244870
H50   H     H_    0.253748 0.636659 0.923888 0.219215
C81   C     C_3   0.156831 0.654599 0.975215 -0.913034
H51   H     H_    0.161671 0.592008 0.987731 0.262520
H52   H     H_    0.108744 0.659578 0.946413 0.272446
H53   H     H_    0.138676 0.695396 0.005924 0.268534
O18   O     O_3   0.480501 0.283478 0.023967 -0.593948
C82   C     C_3   0.396856 0.282907 0.010861 0.074798
H54   H     H_    0.377958 0.334572 0.987782 0.135376
H55   H     H_    0.358811 0.285070 0.043869 0.134773
C83   C     C_3   0.382037 0.205863 0.982061 -0.285917
H56   H     H_    0.420427 0.202865 0.949316 0.244681
H57   H     H_    0.399920 0.153546 0.004627 0.232650
C84   C     C_3   0.292498 0.201884 0.966525 -0.943329
H58   H     H_    0.253044 0.203610 0.998753 0.266741
H59   H     H_    0.283816 0.145238 0.945782 0.276421
H60   H     H_    0.273791 0.252839 0.943088 0.268602

loop_
_geom_bond_atom_site_label_1
_geom_bond_atom_site_label_2
_ccdc_geom_bond_type
C8    H12   S    
C82   H54   S    
C63   C65   A    
C60   H13   S    
C78   H45   S    
C8    C26   A    
C14   C18   A    
C80   H49   S    
C51   H8    S    
C72   H32   S    
C71   H28   S    
C68   H22   S    
C67   H19   S    
C76   H40   S    
C39   I2    S    
C47   C49   A    
C53   C54   D    
C48   C54   S    
C82   H55   S    
C33   C39   S    
C7    H11   S    
C34   C40   S    
C22   H16   S    
C80   H50   S    
C29   H17   S    
C24   O8    A    
C9    C22   A    
C57   C59   A    
C27   C29   A    
O18   C82   S    
C58   C60   A    
C50   I8    S    
C3    C18   A    
C61   C63   A    
C11   C23   S    
C2    O2    A    
C83   H56   S    
O2    Zn2   S    
C62   C64   A    
C58   C66   A    
C84   H59   S    
C55   O12   S    
C25   O17   S    
C70   C71   S    
C50   C52   A    
C20   O16   S    
C57   I12   S    
C9    C55   A    
C10   C56   A    
O7    Zn2   S    
C47   C53   S    
O1    Zn1   S    
C48   C50   A    
C46   O10   S    
C38   H3    S    
C1    O3    A    
C37   H4    S    
C78   H46   S    
C81   H52   S    
C41   C43   A    
C1    C27   S    
C42   C44   A    
C75   H39   S    
C11   C59   A    
C69   H24   S    
N4    Zn1   S    
C32   H5    S    
C10   C21   A    
C41   N3    A    
C82   C83   S    
C13   C19   A    
C36   I4    S    
C79   C80   S    
C14   C20   A    
C52   N4    A    
C80   C81   S    
O16   C76   S    
C4    C6    A    
C52   H7    S    
C68   C69   S    
C51   N3    A    
C39   C40   D    
C5    C7    A    
C15   C26   A    
C6    C8    A    
C49   C51   A    
C64   O14   S    
C5    C45   A    
C23   O5    A    
C74   H36   S    
C32   C34   A    
C55   N1    A    
C45   N1    A    
C11   C61   A    
C3    C9    A    
C24   O6    A    
N3    Zn2   S    
C12   C62   A    
C61   H1    S    
C56   N2    A    
O17   C79   S    
C77   C78   S    
C28   C38   A    
C19   O15   S    
C84   H60   S    
C31   C33   A    
C2    O4    A    
C83   C84   S    
O6    Zn2   S    
C73   H34   S    
O4    Zn1   S    
C4    C17   A    
C75   H38   S    
C31   H6    S    
C21   H15   S    
C43   C47   A    
C81   H51   S    
C76   C77   S    
C53   H10   S    
C42   N4    A    
C43   I10   S    
C20   C22   A    
O3    Zn2   S    
O5    Zn1   S    
C72   H30   S    
C71   C72   S    
C3    C5    A    
C69   H23   S    
C35   C37   A    
C49   I7    S    
O13   C67   S    
C77   H43   S    
C16   C25   A    
C15   C17   A    
C1    O1    A    
C6    C46   A    
C19   C21   A    
C57   C65   A    
C75   H37   S    
C72   H31   S    
C73   C74   S    
C71   H29   S    
C59   H14   S    
C66   N2    S    
C67   H20   S    
C69   H25   S    
C65   N1    S    
C74   C75   S    
C62   H2    S    
C58   I11   S    
O15   C73   S    
C12   C24   S    
C68   H21   S    
C7    C25   A    
C13   C17   A    
C79   H47   S    
C76   H41   S    
C28   C30   A    
C29   C31   A    
C64   C66   A    
C45   O9    S    
C74   H35   S    
C40   I1    S    
C30   C32   A    
C70   H26   S    
C42   I6    S    
C27   C37   A    
C36   C38   A    
C33   C35   A    
C23   O7    A    
C63   O13   S    
C34   C36   A    
C30   H18   S    
C83   H57   S    
C67   C68   S    
C73   H33   S    
C54   H9    S    
C12   C60   A    
C44   I9    S    
C41   I5    S    
C77   H42   S    
C26   O18   S    
C81   H53   S    
C16   C18   A    
C84   H58   S    
C13   C16   A    
C78   H44   S    
C70   H27   S    
C14   C15   A    
C2    C28   S    
C35   I3    S    
C56   O11   S    
O8    Zn1   S    
C4    C10   A    
C44   C48   A    
C79   H48   S    
O14   C70   S    
C46   N2    A    
