data_mof_unit_57512.cif
_audit_creation_date              2012-12-10T18:33:36-0500
_audit_creation_method            fapswitch 2.2
_symmetry_space_group_name_H-M    P1
_symmetry_Int_Tables_number       1
_space_group_crystal_system       triclinic
_cell_length_a                    10.542062
_cell_length_b                    15.096657
_cell_length_c                    15.550398
_cell_angle_alpha                 81.686292
_cell_angle_beta                  92.384378
_cell_angle_gamma                 105.848846
_cell_volume                      2355.73954229

loop_
_atom_site_label
_atom_site_type_symbol
_atom_type_description
_atom_site_fract_x
_atom_site_fract_y
_atom_site_fract_z
_atom_type_partial_charge
C1    C     C_R   0.476531 0.441249 0.661985 0.973823
C2    C     C_R   0.463843 0.506530 0.034402 0.000587
C3    C     C_R   0.326167 0.463587 0.038913 0.218955
C4    C     C_R   0.673832 0.536414 0.961087 0.218955
C5    C     C_R   0.270681 0.388419 0.992921 0.195205
C6    C     C_R   0.729318 0.611581 0.007079 0.195205
C7    C     C_R   0.701415 0.847551 0.635377 -0.278542
C8    C     C_R   0.298585 0.152449 0.364623 -0.278541
C9    C     C_R   0.674302 0.759917 0.610393 0.271788
C10   C     C_R   0.325698 0.240082 0.389607 0.271787
C11   C     C_R   0.507007 0.792238 0.513918 0.703334
C12   C     C_R   0.523469 0.558751 0.338015 0.973822
C13   C     C_R   0.492993 0.207762 0.486081 0.703334
C14   C     C_R   0.545380 0.886950 0.527934 -0.117519
C15   C     C_R   0.454620 0.113050 0.472066 -0.117519
C16   C     C_R   0.743260 0.503279 0.498137 0.919258
C17   C     C_R   0.256740 0.496721 0.501863 0.919257
C18   C     C_R   0.634246 0.910065 0.596690 -0.001227
C19   C     C_R   0.365754 0.089935 0.403310 -0.001227
C20   C     C_R   0.492529 0.957551 0.481878 0.005797
C21   C     C_R   0.507471 0.042449 0.518122 0.005796
C22   C     C_R   0.571759 0.051565 0.599693 0.253679
C23   C     C_R   0.511979 0.456438 0.816937 0.609245
C24   C     C_R   0.428241 0.948435 0.400307 0.253680
C25   C     C_R   0.646192 0.991426 0.632093 -0.153648
C26   C     C_R   0.353807 0.008574 0.367907 -0.153648
C27   C     C_3   0.938483 0.452265 0.572320 0.170568
C28   C     C_3   0.061517 0.547735 0.427680 0.170569
C29   C     C_3   0.063021 0.535016 0.569547 -0.291382
C30   C     C_3   0.936979 0.464984 0.430452 -0.291382
C31   C     C_3   0.119950 0.492597 0.501405 -0.187221
C32   C     C_3   0.880050 0.507403 0.498595 -0.187221
C33   C     C_3   0.997138 0.409705 0.504709 0.219439
C34   C     C_R   0.488020 0.543562 0.183063 0.609245
C35   C     C_3   0.002861 0.590295 0.495291 0.219439
C36   C     C_R   0.444363 0.404483 0.753833 -0.335285
C37   C     C_R   0.555637 0.595517 0.246167 -0.335287
C38   C     C_R   0.285911 0.313201 0.863534 0.664095
C39   C     C_R   0.714088 0.686799 0.136465 0.664095
C40   C     C_R   0.336290 0.327165 0.779250 0.021876
C41   C     C_R   0.663709 0.672835 0.220750 0.021876
C42   C     C_R   0.467792 0.438774 0.902927 -0.129011
C43   C     C_R   0.532207 0.561226 0.097072 -0.129011
C44   C     C_R   0.341949 0.376359 0.922351 -0.223296
C45   C     C_R   0.658049 0.623641 0.077649 -0.223295
C46   C     C_R   0.536156 0.493470 0.965598 0.000587
F1    F     F_    0.605724 0.242426 0.529187 -0.621213
F2    F     F_    0.394276 0.757574 0.470813 -0.621213
F3    F     F_    0.390244 0.466284 0.208232 -0.629418
F4    F     F_    0.609755 0.533716 0.791767 -0.629418
F5    F     F_    0.178964 0.240505 0.884898 -0.586498
F6    F     F_    0.821034 0.759495 0.115102 -0.586498
H1    H     H_    0.116522 0.562411 0.627293 0.201439
H2    H     H_    0.883478 0.437589 0.372707 0.201439
H3    H     H_    0.773779 0.866300 0.685912 0.199211
H4    H     H_    0.226221 0.133700 0.314088 0.199211
H5    H     H_    0.701888 0.002706 0.691616 0.184277
H6    H     H_    0.298112 0.997294 0.308383 0.184277
I1    I     I_    0.206604 0.322657 0.328215 -0.115697
I2    I     I_    0.927022 0.692915 0.975337 -0.048672
I3    I     I_    0.772148 0.762801 0.307632 -0.123618
I4    I     I_    0.227852 0.237199 0.692368 -0.123618
I5    I     I_    0.196862 0.533191 0.087056 -0.137088
I6    I     I_    0.803138 0.466809 0.912944 -0.137088
I7    I     I_    0.793396 0.677343 0.671785 -0.115697
I8    I     I_    0.529083 0.127747 0.695180 -0.143401
I9    I     I_    0.470917 0.872253 0.304820 -0.143402
I10   I     I_    0.839093 0.379525 0.689383 -0.106445
I11   I     I_    0.160907 0.620475 0.310617 -0.106445
I12   I     I_    0.968003 0.262786 0.513769 -0.165943
I13   I     I_    0.031996 0.737214 0.486231 -0.165943
I14   I     I_    0.072977 0.307085 0.024664 -0.048672
N1    N     N_R   0.574200 0.731700 0.552740 -0.183595
N2    N     N_R   0.425800 0.268300 0.447260 -0.183595
O1    O     O_R   0.462600 0.383110 0.605620 -0.580051
O2    O     O_R   0.537400 0.616890 0.394380 -0.580051
O3    O     O_R   0.510210 0.531900 0.639510 -0.565293
O4    O     O_R   0.489790 0.468100 0.360490 -0.565293
O5    O     O_R   0.662240 0.425610 0.483080 -0.558300
O6    O     O_R   0.337760 0.574390 0.516920 -0.558300
O7    O     O_R   0.709860 0.574400 0.516970 -0.605293
O8    O     O_R   0.290140 0.425600 0.483030 -0.605293
Zn1   Zn    Zn3+2 0.468210 0.400660 0.477370 1.075080
Zn2   Zn    Zn3+2 0.531790 0.599340 0.522630 1.075080

loop_
_geom_bond_atom_site_label_1
_geom_bond_atom_site_label_2
_ccdc_geom_bond_type
O5    Zn1   S    
C6    C45   A    
C27   C29   S    
C34   C37   A    
C1    O3    A    
C14   C18   A    
C28   I11   S    
C7    H3    S    
N2    Zn1   S    
O6    Zn2   S    
O2    Zn2   S    
C39   C41   A    
C4    C46   A    
C27   C33   S    
C15   C19   A    
C30   H2    S    
C23   C42   A    
C9    N1    A    
C24   C26   A    
C5    I14   S    
C11   C14   A    
C40   I4    S    
C17   O8    A    
C42   C46   A    
C12   C37   S    
C19   C26   A    
C22   I8    S    
C27   I10   S    
C24   I9    S    
O4    Zn1   S    
C20   C24   A    
C28   C35   S    
C22   C25   A    
C12   O4    A    
C31   C33   S    
C41   I3    S    
C30   C32   S    
N1    Zn2   S    
C39   C45   A    
C39   F6    S    
C35   I13   S    
C21   C22   A    
C8    H4    S    
C11   F2    S    
C18   C25   A    
C42   C44   A    
C8    C19   A    
C1    O1    A    
C32   C35   S    
C6    I2    S    
C36   C40   A    
C4    C6    A    
C11   N1    A    
C13   F1    S    
C23   F4    S    
C38   F5    S    
O3    Zn2   S    
C17   O6    A    
C2    C46   A    
C38   C44   A    
C14   C20   A    
C26   H6    S    
C2    C43   A    
C7    C18   A    
C13   N2    A    
C43   C45   A    
C33   I12   S    
C5    C44   A    
C23   C36   A    
C12   O2    A    
C17   C31   S    
C25   H5    S    
O7    Zn2   S    
C7    C9    A    
C29   C35   S    
C34   F3    S    
C30   C33   S    
C27   C32   S    
C28   C31   S    
C34   C43   A    
C3    C5    A    
C3    I5    S    
C16   C32   S    
C4    I6    S    
C16   O5    A    
C13   C15   A    
C2    C3    A    
C29   C31   S    
C38   C40   A    
C10   N2    A    
O1    Zn1   S    
C29   H1    S    
C28   C30   S    
C16   O7    A    
C10   I1    S    
C37   C41   A    
C9    I7    S    
C15   C21   A    
C20   C21   A    
C8    C10   A    
O8    Zn1   S    
C1    C36   S    
