data_mof_unit_7607.cif
_audit_creation_date              2013-03-05T15:54:01-0500
_audit_creation_method            fapswitch 2.2
_symmetry_space_group_name_H-M    P1
_symmetry_Int_Tables_number       1
_space_group_crystal_system       triclinic
_cell_length_a                    15.707414
_cell_length_b                    10.665475
_cell_length_c                    9.943983
_cell_angle_alpha                 89.574104
_cell_angle_beta                  89.823134
_cell_angle_gamma                 92.350825
_cell_volume                      1664.42837122

loop_
_atom_site_label
_atom_site_type_symbol
_atom_site_description
_atom_site_fract_x
_atom_site_fract_y
_atom_site_fract_z
_atom_type_partial_charge
O1    O     O_R   0.500000 0.316780 0.614690 -0.646819
O2    O     O_R   0.499990 0.316750 0.385360 -0.567160
C1    C     C_R   0.512825 0.262298 0.500803 0.965490
O3    O     O_R   0.377150 0.500020 0.614720 -0.565698
O4    O     O_R   0.377140 0.499990 0.385380 -0.579072
C2    C     C_R   0.338600 0.500843 0.500264 0.962342
Zn1   Zn    Zn3+2 0.500010 0.500020 0.653130 1.027423
Zn2   Zn    Zn3+2 0.499990 0.499980 0.346870 1.056351
O5    O     O_R   0.500010 0.683250 0.614640 -0.608420
O6    O     O_R   0.500000 0.683220 0.385310 -0.620654
O7    O     O_R   0.622860 0.500010 0.614620 -0.624175
O8    O     O_R   0.622850 0.499980 0.385280 -0.611537
C3    C     C_R   0.494546 0.740225 0.499980 0.908002
C4    C     C_R   0.661487 0.500353 0.499783 0.871322
C5    C     C_3   0.046445 0.381282 0.592794 0.046137
C6    C     C_3   0.048715 0.482331 0.356784 -0.317459
C7    C     C_3   0.951106 0.490316 0.356289 -0.368962
H1    H     H_    0.077284 0.559990 0.293747 0.219602
H2    H     H_    0.066618 0.393362 0.309177 0.264744
H3    H     H_    0.922064 0.410212 0.299348 0.243195
H4    H     H_    0.933474 0.575964 0.300121 0.245946
C8    C     C_1   0.750244 0.498181 0.499724 -0.049912
C9    C     C_3   0.082869 0.492256 0.502717 -0.013611
C10   C     C_3   0.946191 0.373474 0.582422 0.439186
C11   C     C_3   0.917082 0.493460 0.503277 -0.032689
C12   C     C_3   0.954826 0.615645 0.570067 0.206759
C13   C     C_3   0.053179 0.616828 0.563383 -0.440846
C14   C     C_1   0.825497 0.495922 0.500888 0.094841
C15   C     C_1   0.174445 0.496466 0.501501 0.102283
C16   C     C_1   0.249794 0.499396 0.500761 0.042558
H5    H     H_    0.079486 0.630114 0.666427 0.215957
H6    H     H_    0.078554 0.697403 0.501347 0.264761
H7    H     H_    0.934439 0.619339 0.676745 0.187925
H8    H     H_    0.065575 0.406221 0.697124 0.176049
C17   C     C_R   0.552440 0.112405 0.750297 -0.174008
H9    H     H_    0.590796 0.198909 0.755094 0.203053
C18   C     C_R   0.534507 0.047405 0.869681 -0.268082
H10   H     H_    0.557479 0.085713 0.963488 0.246674
C19   C     C_R   0.480718 0.940147 0.868613 0.366511
C20   C     C_R   0.453028 0.890238 0.745305 0.403115
C21   C     C_R   0.487806 0.941322 0.623621 -0.039825
C22   C     C_R   0.523993 0.062978 0.626403 0.033082
C23   C     C_R   0.530918 0.130030 0.503906 -0.157745
C24   C     C_R   0.537772 0.064731 0.382906 0.409629
H11   H     H_    0.529808 0.887174 0.290056 0.225622
C25   C     C_R   0.519837 0.937582 0.382535 -0.170875
C26   C     C_R   0.493071 0.875330 0.500790 -0.136305
H12   H     H_    0.586098 0.655182 0.123262 0.149811
C27   C     C_R   0.407722 0.300339 0.130920 0.323529
C28   C     C_R   0.386684 0.197384 0.048424 -0.287908
H13   H     H_    0.361943 0.110999 0.094404 0.271050
C29   C     C_R   0.371943 0.217909 0.911618 0.144092
C30   C     C_R   0.384439 0.340986 0.863094 0.260658
C31   C     C_R   0.447987 0.415085 0.928007 -0.006771
C32   C     C_R   0.451856 0.407738 0.071416 0.055001
N1    N     N_R   0.499210 0.498800 0.142780 -0.106128
C33   C     C_R   0.547466 0.585211 0.070579 0.006143
H14   H     H_    0.588767 0.651818 0.873508 0.141175
C34   C     C_R   0.548883 0.583369 0.927689 -0.001446
N2    N     N_R   0.499180 0.498720 0.857170 -0.104237
Cl1   Cl    Cl    0.910628 0.233549 0.491392 -0.421413
N3    N     N_R   0.907018 0.366340 0.718151 0.206219
O9    O     O_R   0.937417 0.433578 0.817089 -0.403302
O10   O     O_R   0.837381 0.298403 0.739011 -0.291732
Cl2   Cl    Cl    0.916696 0.756596 0.494741 -0.485467
Cl3   Cl    Cl    0.578996 0.134803 0.234118 -0.601781
Cl4   Cl    Cl    0.446853 0.872501 0.022509 -0.547537
Cl5   Cl    Cl    0.362776 0.785313 0.744055 -0.412313
N4    N     N_R   0.084420 0.259489 0.567349 0.279862
O11   O     O_R   0.076126 0.170992 0.657810 -0.209822
O12   O     O_R   0.127356 0.238052 0.458336 -0.280509
N5    N     N_R   0.349789 0.311673 0.240108 0.242501
O13   O     O_R   0.282367 0.375662 0.217423 -0.346893
O14   O     O_R   0.343852 0.222357 0.330038 -0.335209
N6    N     N_R   0.326907 0.124301 0.832761 0.262263
O15   O     O_R   0.283198 0.032532 0.890562 -0.247994
O16   O     O_R   0.329978 0.129857 0.702016 -0.303963
N7    N     N_R   0.308332 0.402480 0.822650 0.233685
O17   O     O_R   0.244840 0.339701 0.767887 -0.324308
O18   O     O_R   0.296799 0.517644 0.858988 -0.291961

loop_
_geom_bond_atom_site_label_1
_geom_bond_atom_site_label_2
_geom_bond_distance
_ccdc_geom_bond_type
C32   N1    1.397987 A    
C10   Cl1   1.820283 S    
C21   C22   1.395536 A    
C24   Cl3   1.762058 S    
C17   H9    1.082447 S    
C23   C24   1.400776 A    
C29   N6    1.438475 S    
Zn2   N1    2.029672 S    
H12   C33   1.081764 S    
C31   N2    1.366297 A    
C30   C31   1.408702 A    
C11   C14   1.440149 S    
Zn1   O7    1.966131 S    
C1    C23   1.450544 S    
C12   C13   1.545624 S    
N3    O9    1.302107 A    
C9    C15   1.437288 S    
C17   C18   1.392461 A    
C18   H10   1.078387 S    
O4    C2    1.291498 A    
O7    C4    1.291362 A    
N7    O18   1.302496 A    
C33   C34   1.421294 A    
C7    H3    1.111496 S    
N1    C33   1.367071 A    
N4    O12   1.301556 A    
C17   C22   1.410356 A    
O5    C3    1.292755 A    
N3    O10   1.302249 A    
C31   C32   1.429237 A    
C6    C7    1.539045 S    
C27   N5    1.423527 S    
C28   C29   1.397812 A    
C9    C13   1.551653 S    
C5    H8    1.112125 S    
C5    C9    1.567188 S    
C34   N2    1.367954 A    
C8    C14   1.183355 T    
O3    Zn1   1.968405 S    
C24   C25   1.373729 A    
C5    N4    1.474679 S    
C13   H5    1.113894 S    
C10   C11   1.581561 S    
O3    C2    1.290984 A    
C19   C20   1.403565 A    
C3    C26   1.442180 S    
N7    O17   1.301331 A    
H14   C34   1.081780 S    
C27   C32   1.437010 A    
C7    H4    1.112311 S    
O1    C1    1.295664 A    
N6    O15   1.301447 A    
C15   C16   1.182667 T    
C12   H7    1.108579 S    
Zn2   O8    1.968404 S    
C28   H13   1.082689 S    
C21   C26   1.418112 A    
N6    O16   1.301689 A    
N5    O14   1.302068 A    
C20   C21   1.421665 A    
C2    C16   1.394372 S    
O8    C4    1.291867 A    
C6    C9    1.551544 S    
C22   C23   1.409578 A    
Zn1   N2    2.028914 S    
C29   C30   1.401188 A    
Zn1   O5    1.988568 S    
C25   C26   1.401011 A    
C5    C10   1.577241 S    
C10   N3    1.481747 S    
C13   H6    1.113742 S    
O1    Zn1   1.994152 S    
C12   Cl2   1.799894 S    
C19   Cl4   1.758552 S    
Zn2   O6    1.994153 S    
O2    Zn2   1.988569 S    
N5    O13   1.302561 A    
O6    C3    1.300456 A    
O4    Zn2   1.966131 S    
C7    C11   1.555802 S    
C4    C8    1.395287 S    
O2    C1    1.302642 A    
C11   C12   1.562923 S    
C18   C19   1.394109 A    
C6    H2    1.109652 S    
C30   N7    1.443726 S    
N4    O11   1.301378 A    
H11   C25   1.082873 S    
C6    H1    1.113734 S    
C27   C28   1.404705 A    
C20   Cl5   1.769833 S    
