data_mof_unit_14474.cif
_audit_creation_date              2012-12-11T14:21:13-0500
_audit_creation_method            fapswitch 2.2
_symmetry_space_group_name_H-M    P1
_symmetry_Int_Tables_number       1
_space_group_crystal_system       triclinic
_cell_length_a                    11.39772
_cell_length_b                    11.600202
_cell_length_c                    19.580466
_cell_angle_alpha                 90.07708
_cell_angle_beta                  89.605666
_cell_angle_gamma                 59.995632
_cell_volume                      2241.82213183

loop_
_atom_site_label
_atom_site_type_symbol
_atom_type_description
_atom_site_fract_x
_atom_site_fract_y
_atom_site_fract_z
_atom_type_partial_charge
C1    C     C_R   0.640738 0.116636 0.599428 0.535915
C2    C     C_1   0.651684 0.683486 0.664229 -0.002800
C3    C     C_1   0.145727 0.190858 0.862922 -0.000815
C4    C     C_1   0.225015 0.146340 0.735223 -0.032497
C5    C     C_1   0.186145 0.166559 0.804737 -0.031422
C6    C     C_1   0.256106 0.133539 0.675589 -0.000874
C7    C     C_1   0.677744 0.192428 0.860664 -0.002935
C8    C     C_1   0.658705 0.166647 0.729051 -0.032813
C9    C     C_1   0.665220 0.181465 0.800300 -0.034183
C10   C     C_1   0.653478 0.148535 0.668767 -0.000280
C11   C     C_R   0.678155 0.595720 0.203887 -0.009922
C12   C     C_R   0.614189 0.742949 0.598015 0.543573
C13   C     C_R   0.542793 0.653875 0.231285 0.035433
C14   C     C_R   0.509982 0.740257 0.286507 0.013821
C15   C     C_R   0.750469 0.663709 0.303225 -0.157114
C16   C     C_R   0.780958 0.596603 0.241641 -0.154887
C17   C     C_R   0.436858 0.634438 0.204373 -0.078711
C18   C     C_R   0.303673 0.708913 0.226190 -0.141427
C19   C     C_R   0.270897 0.802779 0.276173 -0.120613
C20   C     C_R   0.372054 0.821064 0.303999 -0.082419
C21   C     C_R   0.615613 0.739071 0.325082 -0.006350
C22   C     C_R   0.141747 0.194473 0.192874 0.001406
C23   C     C_R   0.296178 0.120885 0.605148 0.556191
C24   C     C_R   0.205976 0.258018 0.222185 0.019579
C25   C     C_R   0.198445 0.274990 0.293218 0.032057
C26   C     C_R   0.115779 0.119017 0.305012 -0.190745
C27   C     C_R   0.095333 0.126267 0.234812 -0.148464
C28   C     C_R   0.265714 0.316046 0.181950 -0.077865
C29   C     C_R   0.291569 0.410796 0.209826 -0.107405
C30   C     C_R   0.259435 0.448050 0.277863 -0.106523
C31   C     C_R   0.211394 0.382659 0.319074 -0.073468
C32   C     C_R   0.175859 0.185280 0.334506 -0.012576
C33   C     C_R   0.664895 0.182185 0.191817 -0.044783
C34   C     C_R   0.647124 0.108533 0.401438 0.562223
C35   C     C_R   0.728857 0.049791 0.215174 -0.027361
C36   C     C_R   0.754515 0.026353 0.285396 -0.030718
C37   C     C_R   0.610030 0.264273 0.308466 0.247610
C38   C     C_R   0.607956 0.286834 0.238924 -0.134704
C39   C     C_R   0.781933 0.940881 0.169167 -0.052277
C40   C     C_R   0.883740 0.814937 0.189619 0.284999
C41   C     C_R   0.925577 0.795858 0.257174 -0.125013
C42   C     C_R   0.861293 0.898809 0.304791 -0.152898
C43   C     C_R   0.676888 0.133816 0.332112 0.011849
C44   C     C_R   0.083957 0.230699 0.929206 0.540527
C45   C     C_R   0.586323 0.793551 0.393939 0.536269
C46   C     C_R   0.709899 0.545677 0.922428 0.566952
C47   C     C_R   0.707795 0.207287 0.930012 0.540400
C48   C     C_R   0.083711 0.234784 0.124974 0.525361
C49   C     C_R   0.707341 0.549827 0.133520 0.562325
C50   C     C_R   0.704381 0.209606 0.125373 0.525712
C51   C     C_R   0.239504 0.145328 0.402359 0.527155
C52   C     C_1   0.699952 0.581013 0.851685 -0.003260
C53   C     C_1   0.673301 0.645096 0.722401 -0.030739
C54   C     C_1   0.690008 0.609034 0.791951 -0.034051
Cr1   Cr    Cr6+3 0.404720 0.198220 0.499960 1.036596
Cr2   Cr    Cr6+3 0.698290 0.897110 0.500380 1.005170
Cr3   Cr    Cr6+3 0.396970 0.904720 0.499610 1.012294
Cr4   Cr    Cr6+3 0.926180 0.151990 0.028120 0.988168
Cr5   Cr    Cr6+3 0.921330 0.451820 0.027470 1.018457
Cr6   Cr    Cr6+3 0.626260 0.446870 0.028710 0.991645
H1    H     H_    0.832727 0.656096 0.333835 0.137250
H2    H     H_    0.331362 0.458250 0.177448 0.091428
H3    H     H_    0.272412 0.526810 0.299274 0.142493
H4    H     H_    0.179117 0.422440 0.369997 0.141926
H5    H     H_    0.750753 0.955291 0.116299 0.126702
H6    H     H_    0.570403 0.386285 0.222544 0.117503
H7    H     H_    0.007552 0.700157 0.273141 0.110989
H8    H     H_    0.905101 0.877505 0.354955 0.152399
H9    H     H_    0.451690 0.561321 0.166475 0.138163
H10   H     H_    0.884897 0.545542 0.223311 0.173106
H11   H     H_    0.225516 0.694039 0.204133 0.100263
H12   H     H_    0.167118 0.859696 0.293577 0.105514
H13   H     H_    0.342160 0.898576 0.339308 0.166472
H14   H     H_    0.084298 0.062898 0.336706 0.111579
H15   H     H_    0.287744 0.292100 0.128219 0.126393
H16   H     H_    0.040333 0.080920 0.213658 0.151065
O1    O     O_R   0.267740 0.231960 0.575440 -0.503788
O2    O     O_R   0.685970 0.784660 0.430010 -0.507954
O3    O     O_R   0.502530 0.767000 0.423990 -0.535465
O4    O     O_R   0.288330 0.026350 0.429250 -0.527067
O5    O     O_3   0.499990 0.000020 0.499980 -0.283047
O6    O     O_R   0.821500 0.119340 0.952830 -0.513394
O7    O     O_R   0.037130 0.162530 0.957360 -0.493146
O8    O     O_R   0.056440 0.344740 0.951340 -0.524623
O9    O     O_R   0.797900 0.560360 0.957470 -0.498552
O10   O     O_R   0.596130 0.579390 0.952730 -0.495647
O11   O     O_R   0.639060 0.321160 0.958670 -0.510586
O12   O     O_R   0.527280 0.186640 0.570530 -0.507777
O13   O     O_R   0.821240 0.124200 0.104370 -0.525419
O14   O     O_R   0.036890 0.167040 0.097840 -0.503409
O15   O     O_R   0.056180 0.349610 0.102880 -0.518711
O16   O     O_R   0.797660 0.564870 0.097950 -0.445693
O17   O     O_R   0.595880 0.584250 0.104270 -0.527401
O18   O     O_R   0.638830 0.325670 0.099150 -0.533187
O19   O     O_3   0.824590 0.350230 0.028100 -0.285184
O20   O     O_R   0.728090 0.003450 0.576380 -0.504357
O21   O     O_R   0.682970 0.789190 0.570490 -0.491799
O22   O     O_R   0.499290 0.771880 0.575530 -0.504819
O23   O     O_R   0.285330 0.030870 0.569730 -0.488490
O24   O     O_R   0.270980 0.227080 0.423890 -0.519882
O25   O     O_R   0.530280 0.182120 0.430050 -0.446187
O26   O     O_R   0.731330 0.998570 0.424830 -0.553972
O27   O     O_3   0.549975 0.370180 0.353887 -0.565523
C55   C     C_3   0.637474 0.422118 0.364825 0.002539
H17   H     H_    0.573743 0.525982 0.383063 0.196507
H18   H     H_    0.689034 0.426566 0.317177 0.120708
C56   C     C_3   0.743046 0.343820 0.419716 -0.269658
H19   H     H_    0.690901 0.340372 0.467198 0.183520
H20   H     H_    0.811646 0.240299 0.401767 0.148809
C57   C     C_3   0.829054 0.407502 0.435469 -0.464450
H21   H     H_    0.883107 0.410593 0.388680 0.148619
H22   H     H_    0.905442 0.347847 0.474631 0.159579
H23   H     H_    0.764334 0.510180 0.455517 0.183032
O28   O     O_3   0.943446 0.709426 0.144066 -0.559176
C58   C     C_3   0.025546 0.729151 0.096200 -0.005261
H24   H     H_    0.130512 0.643882 0.100377 0.131865
H25   H     H_    0.031498 0.821471 0.104753 0.124101
C59   C     C_3   0.975045 0.730158 0.023950 -0.244237
H26   H     H_    0.979500 0.633832 0.013718 0.206337
H27   H     H_    0.868097 0.811292 0.019442 0.169093
C60   C     C_3   0.060956 0.750780 0.970593 -0.465809
H28   H     H_    0.055978 0.847871 0.979024 0.171927
H29   H     H_    0.022017 0.750531 0.918799 0.161968
H30   H     H_    0.168134 0.669361 0.973304 0.143046

loop_
_geom_bond_atom_site_label_1
_geom_bond_atom_site_label_2
_ccdc_geom_bond_type
C25   C31   A    
C22   C48   S    
C26   C32   A    
C39   H5    S    
C41   C42   A    
Cr3   O3    S    
C23   O23   A    
C35   C36   A    
C44   O7    A    
C2    C12   S    
C55   H18   S    
O28   C58   S    
Cr2   O5    S    
C41   H7    S    
C53   C54   S    
C17   H9    S    
C26   C27   A    
C29   C30   A    
C14   C21   A    
C28   C29   A    
Cr4   O6    S    
C30   C31   A    
Cr1   O1    S    
Cr3   O22   S    
C15   C16   A    
Cr3   O23   S    
C46   C52   S    
C51   O24   A    
Cr2   O2    S    
C7    C9    T    
C18   C19   A    
C47   O6    A    
Cr1   O12   S    
C57   H21   S    
C60   H30   S    
C57   H22   S    
C12   O21   A    
C59   H26   S    
C36   C42   A    
C40   O28   S    
C38   H6    S    
C8    C9    S    
C58   H25   S    
C48   O15   A    
Cr1   O24   S    
C56   H19   S    
C45   O2    A    
Cr1   O5    S    
C12   O22   A    
Cr5   O16   S    
C46   O9    A    
Cr6   O17   S    
C25   C32   A    
C48   O14   A    
C13   C14   A    
C42   H8    S    
C56   H20   S    
Cr3   O4    S    
C19   H12   S    
Cr5   O19   S    
Cr2   O21   S    
C55   H17   S    
Cr6   O11   S    
C52   C54   T    
C21   C45   S    
C3    C44   S    
C34   O25   A    
C34   C43   S    
C14   C20   A    
C16   H10   S    
Cr5   O8    S    
C4    C6    T    
C39   C40   A    
C37   O27   S    
Cr6   O10   S    
C50   O18   A    
C3    C5    T    
C33   C50   S    
C23   O1    A    
C59   C60   S    
C47   O11   A    
C37   C43   A    
C35   C39   A    
Cr4   O19   S    
Cr5   O9    S    
C32   C51   S    
C37   C38   A    
C11   C49   S    
C11   C16   A    
C50   O13   A    
C58   C59   S    
C17   C18   A    
C15   H1    S    
C45   O3    A    
Cr5   O15   S    
C24   C25   A    
Cr4   O14   S    
C57   H23   S    
C60   H28   S    
C40   C41   A    
C22   C27   A    
C56   C57   S    
C22   C24   A    
C49   O16   A    
C27   H16   S    
C18   H11   S    
Cr2   O20   S    
C29   H2    S    
C31   H4    S    
C1    C10   S    
C24   C28   A    
C4    C5    S    
C44   O8    A    
C2    C53   T    
Cr1   O25   S    
C33   C38   A    
C13   C17   A    
C19   C20   A    
Cr2   O26   S    
Cr4   O7    S    
C11   C13   A    
C33   C35   A    
C1    O12   A    
C1    O20   A    
C6    C23   S    
C51   O4    A    
C26   H14   S    
C20   H13   S    
Cr3   O5    S    
C34   O26   A    
Cr4   O13   S    
C59   H27   S    
C60   H29   S    
Cr6   O19   S    
C15   C21   A    
C8    C10   T    
O27   C55   S    
C36   C43   A    
C49   O17   A    
C30   H3    S    
C28   H15   S    
C55   C56   S    
C58   H24   S    
C7    C47   S    
C46   O10   A    
Cr6   O18   S    
