data_mof_unit_29430.cif
_audit_creation_date              2013-03-05T15:40:33-0500
_audit_creation_method            fapswitch 2.2
_symmetry_space_group_name_H-M    P1
_symmetry_Int_Tables_number       1
_space_group_crystal_system       triclinic
_cell_length_a                    14.992622
_cell_length_b                    8.675658
_cell_length_c                    7.449423
_cell_angle_alpha                 102.839987
_cell_angle_beta                  93.69072
_cell_angle_gamma                 91.769017
_cell_volume                      941.747670459

loop_
_atom_site_label
_atom_site_type_symbol
_atom_site_description
_atom_site_fract_x
_atom_site_fract_y
_atom_site_fract_z
_atom_type_partial_charge
O1    O     O_R   0.506510 0.286130 0.619770 -0.593556
O2    O     O_R   0.493490 0.713870 0.380230 -0.593558
O3    O     O_R   0.489600 0.256770 0.308360 -0.573628
O4    O     O_R   0.510400 0.743230 0.691640 -0.573628
C1    C     C_R   0.497837 0.199877 0.453402 0.919950
C2    C     C_R   0.502163 0.800123 0.546598 0.919930
O5    O     O_R   0.378710 0.514640 0.655720 -0.587319
O6    O     O_R   0.621290 0.485360 0.344280 -0.587325
O7    O     O_R   0.361800 0.485290 0.344300 -0.554400
O8    O     O_R   0.638200 0.514710 0.655700 -0.554396
C3    C     C_R   0.329258 0.500130 0.503368 0.867368
C4    C     C_R   0.670741 0.499870 0.496632 0.867352
Cu1   Cu    Cu3+1 0.510010 0.517380 0.684380 1.034631
Cu2   Cu    Cu3+1 0.489990 0.482620 0.315620 1.034627
C5    C     C_R   0.817784 0.642069 0.577736 0.336330
C6    C     C_R   0.182217 0.357918 0.422280 0.336328
C7    C     C_R   0.766903 0.504513 0.490503 -0.171260
C8    C     C_R   0.233097 0.495483 0.509498 -0.171259
C9    C     C_R   0.807390 0.366721 0.408573 -0.208718
C10   C     C_R   0.192608 0.633277 0.591414 -0.208729
C11   C     C_R   0.900603 0.360289 0.418113 0.018634
C12   C     C_R   0.099396 0.639701 0.581882 0.018627
C13   C     C_R   0.953033 0.500386 0.499229 -0.000119
C14   C     C_R   0.046967 0.499601 0.500773 -0.000124
C15   C     C_R   0.911517 0.641495 0.578620 -0.033324
C16   C     C_R   0.088483 0.358491 0.421390 -0.033318
C17   C     C_R   0.942756 0.218239 0.346725 0.310519
C18   C     C_R   0.057243 0.781746 0.653273 0.310562
C19   C     C_R   0.035828 0.219782 0.347355 -0.134837
C20   C     C_R   0.964171 0.780201 0.652657 -0.134846
H1    H     H_    0.764964 0.264566 0.340512 0.203869
H2    H     H_    0.235033 0.735442 0.659457 0.203861
C21   C     C_2   0.496590 0.032032 0.427127 -0.271149
C22   C     C_2   0.503412 0.967968 0.572873 -0.271155
N1    N     N_2   0.474890 0.456420 0.038520 -0.214001
N2    N     N_2   0.525110 0.543580 0.961480 -0.213999
N3    N     N_R   0.773785 0.781668 0.662810 0.114895
O9    O     O_R   0.714659 0.842659 0.566864 -0.346928
O10   O     O_R   0.785791 0.837765 0.840110 -0.292275
N4    N     N_R   0.226219 0.218316 0.337223 0.114906
O11   O     O_R   0.285364 0.157363 0.433171 -0.346957
O12   O     O_R   0.214198 0.162184 0.159922 -0.292276
N5    N     N_R   0.893024 0.069953 0.279453 0.127692
O13   O     O_R   0.833937 0.023911 0.379277 -0.321435
O14   O     O_R   0.919980 0.967092 0.140724 -0.294578
N6    N     N_R   0.106973 0.930025 0.720541 0.127684
O15   O     O_R   0.166029 0.976103 0.620686 -0.321447
O16   O     O_R   0.080037 0.032849 0.859301 -0.294573
H3    H     H_    0.066815 0.109380 0.294607 0.236399
H4    H     H_    0.933185 0.890599 0.705415 0.236382
H5    H     H_    0.489798 0.960821 0.286567 0.178455
H6    H     H_    0.510204 0.039179 0.713433 0.178456
H7    H     H_    0.430463 0.378670 0.948910 0.248827
H8    H     H_    0.569537 0.621330 0.051090 0.248829

loop_
_geom_bond_atom_site_label_1
_geom_bond_atom_site_label_2
_geom_bond_distance
_ccdc_geom_bond_type
C4    C7    1.444977 S    
O6    Cu2   1.965200 S    
O7    Cu2   1.947641 S    
C3    C8    1.444979 S    
N3    O9    1.300818 A    
N1    H7    1.029153 S    
C17   C19   1.394752 A    
N5    O14   1.301476 A    
C22   H6    1.087804 S    
N1    N2    1.296696 D    
O6    C4    1.294612 A    
C13   C14   1.407861 A    
C9    H1    1.082170 S    
N4    O12   1.300834 A    
C21   C22   1.324983 D    
C11   C17   1.414579 A    
O2    Cu2   1.954611 S    
N3    O10   1.300772 A    
C6    C8    1.401330 A    
C19   H3    1.082278 S    
Cu1   Cu2   2.692096 S    
O5    C3    1.294612 A    
Cu1   N2    2.022894 S    
O7    C3    1.291993 A    
C18   N6    1.438076 S    
O2    C2    1.293792 A    
O3    Cu2   1.947909 S    
O8    C4    1.291993 A    
C6    N4    1.437223 S    
O1    C1    1.293792 A    
C18   C20   1.394740 A    
N4    O11   1.300840 A    
C9    C11   1.398203 A    
C10   C12   1.398194 A    
C8    C10   1.392204 A    
C13   C15   1.417224 A    
C11   C13   1.419064 A    
C6    C16   1.405077 A    
N5    O13   1.300889 A    
C20   H4    1.082264 S    
C12   C14   1.419062 A    
C5    C15   1.405064 A    
N2    H8    1.029153 S    
N6    O16   1.301354 A    
C17   N5    1.438127 S    
O5    Cu1   1.965200 S    
O1    Cu1   1.954611 S    
C16   C19   1.402083 A    
O4    C2    1.284493 A    
C10   H2    1.082181 S    
O4    Cu1   1.947909 S    
C5    C7    1.401316 A    
N6    O15   1.300829 A    
C15   C20   1.402062 A    
C12   C18   1.414551 A    
C7    C9    1.392209 A    
Cu2   N1    2.022894 S    
C5    N3    1.437218 S    
C21   H5    1.087803 S    
C2    C22   1.424869 S    
C14   C16   1.417224 A    
O3    C1    1.284493 A    
O8    Cu1   1.947641 S    
C1    C21   1.424869 S    
