data_mof_unit_29932.cif
_audit_creation_date              2012-12-10T17:15:51-0500
_audit_creation_method            fapswitch 2.2
_symmetry_space_group_name_H-M    P1
_symmetry_Int_Tables_number       1
_space_group_crystal_system       triclinic
_cell_length_a                    10.105864
_cell_length_b                    10.738094
_cell_length_c                    10.686436
_cell_angle_alpha                 90.043107
_cell_angle_beta                  95.163918
_cell_angle_gamma                 79.977243
_cell_volume                      1137.20319751

loop_
_atom_site_label
_atom_site_type_symbol
_atom_type_description
_atom_site_fract_x
_atom_site_fract_y
_atom_site_fract_z
_atom_type_partial_charge
C1    C     C_R   0.444185 0.503874 0.266223 0.944506
C2    C     C_R   0.627896 0.039228 0.485780 0.019602
C3    C     C_R   0.515774 0.124907 0.524373 -0.134750
C4    C     C_R   0.401587 0.081992 0.558320 -0.300372
C5    C     C_R   0.395425 0.955544 0.553246 0.214069
C6    C     C_R   0.494352 0.875091 0.491463 -0.129935
C7    C     C_2   0.414451 0.485804 0.133261 -0.386742
C8    C     C_2   0.514650 0.427969 0.068781 -0.225560
C9    C     C_2   0.586670 0.461060 0.867000 -0.419841
C10   C     C_2   0.497060 0.418111 0.934022 0.268048
C11   C     C_2   0.073564 0.489889 0.489555 -0.143563
C12   C     C_R   0.505083 0.259319 0.510142 0.912594
C13   C     C_2   0.926613 0.509362 0.511224 -0.143377
C14   C     C_R   0.555929 0.484769 0.733465 0.951610
C15   C     C_R   0.497207 0.740884 0.494193 0.883164
C16   C     C_R   0.762644 0.063432 0.486476 0.188077
C17   C     C_R   0.853184 0.990464 0.409648 0.158752
C18   C     C_R   0.811557 0.890382 0.340646 0.179426
C19   C     C_R   0.688202 0.855309 0.360115 -0.264349
C20   C     C_R   0.602468 0.922374 0.443849 -0.024808
H1    H     H_    0.659724 0.775863 0.308408 0.175257
N1    N     N_2   0.157290 0.551390 0.551110 -0.183513
N2    N     N_2   0.842740 0.448550 0.448960 -0.199617
O1    O     O_R   0.568950 0.489660 0.307530 -0.617945
O2    O     O_R   0.348880 0.522640 0.340350 -0.610959
O3    O     O_R   0.610060 0.300270 0.483590 -0.597162
O4    O     O_R   0.389990 0.333260 0.516410 -0.619037
O5    O     O_R   0.651120 0.477360 0.659650 -0.610325
O6    O     O_R   0.431050 0.510340 0.692470 -0.577650
O7    O     O_R   0.610010 0.666740 0.483590 -0.624332
O8    O     O_R   0.389940 0.699730 0.516410 -0.580412
Zn1   Zn    Zn3+2 0.646940 0.477980 0.478090 0.928359
Zn2   Zn    Zn3+2 0.353060 0.522020 0.521910 0.953742
H2    H     H_    0.318000 0.146154 0.592435 0.173419
H3    H     H_    0.313430 0.518917 0.089022 0.143063
H4    H     H_    0.889136 0.576389 0.581299 0.171129
H5    H     H_    0.111285 0.421878 0.420413 0.164071
H6    H     H_    0.881238 0.387539 0.381622 0.156538
H7    H     H_    0.118150 0.615263 0.616047 0.165789
N3    N     N_2   0.812447 0.145489 0.577638 -0.259077
H8    H     H_    0.896779 0.180467 0.557179 0.253537
C21   C     C_3   0.821174 0.101618 0.706575 -0.803779
H9    H     H_    0.721555 0.084557 0.731746 0.242157
H10   H     H_    0.853344 0.174711 0.770265 0.239184
H11   H     H_    0.896365 0.012893 0.720618 0.232764
N4    N     N_2   0.988339 0.012038 0.408603 -0.315018
H12   H     H_    0.060177 0.932624 0.398533 0.258015
C22   C     C_3   0.006786 0.120207 0.335380 -0.850769
H13   H     H_    0.064333 0.088106 0.254002 0.247675
H14   H     H_    0.065390 0.179899 0.395033 0.237118
H15   H     H_    0.908775 0.178359 0.299167 0.238288
N5    N     N_2   0.898022 0.818739 0.258796 -0.302568
H16   H     H_    0.892922 0.723579 0.258716 0.229454
C23   C     C_3   0.885600 0.871101 0.132818 -0.795820
H17   H     H_    0.783475 0.868033 0.085930 0.233421
H18   H     H_    0.962117 0.814803 0.077432 0.234121
H19   H     H_    0.902880 0.970396 0.134662 0.259857
N6    N     N_2   0.289647 0.911216 0.610045 -0.283274
H20   H     H_    0.198735 0.972796 0.599325 0.227950
C24   C     C_3   0.324761 0.870647 0.739743 -0.754507
H21   H     H_    0.241093 0.829481 0.774272 0.228282
H22   H     H_    0.341639 0.952440 0.799146 0.222008
H23   H     H_    0.417402 0.797199 0.748719 0.244434
N7    N     N_2   0.385499 0.366860 0.876528 -0.257600
H24   H     H_    0.298714 0.387812 0.921812 0.221430
C25   C     C_3   0.418295 0.233280 0.851804 -0.776157
H25   H     H_    0.327661 0.200291 0.806675 0.227285
H26   H     H_    0.450882 0.178966 0.941073 0.230916
H27   H     H_    0.500104 0.215087 0.787986 0.238319
H28   H     H_    0.616278 0.397487 0.113323 0.174569
H29   H     H_    0.677158 0.489165 0.912876 0.120819

loop_
_geom_bond_atom_site_label_1
_geom_bond_atom_site_label_2
_ccdc_geom_bond_type
C25   H26   S    
C9    C14   S    
O1    Zn1   S    
O3    Zn1   S    
O7    Zn1   S    
N2    H6    S    
C6    C20   A    
C9    C10   D    
C11   N1    D    
C8    H28   S    
C19   C20   A    
N2    Zn1   S    
O8    Zn2   S    
C17   C18   A    
C6    C15   S    
C18   N5    S    
C7    C8    D    
C1    C7    S    
N5    H16   S    
O4    Zn2   S    
C1    O2    A    
C11   C13   S    
C7    H3    S    
C16   C17   A    
C21   H10   S    
C5    N6    S    
C1    O1    A    
C24   H23   S    
N1    H7    S    
N7    H24   S    
C22   H14   S    
C22   H13   S    
C19   H1    S    
N5    C23   S    
C25   H25   S    
C2    C3    A    
C22   H15   S    
C4    H2    S    
C5    C6    A    
C23   H18   S    
C25   H27   S    
C21   H9    S    
C14   O6    A    
C2    C20   A    
C3    C4    A    
N4    C22   S    
O6    Zn2   S    
C16   N3    S    
O5    Zn1   S    
C2    C16   A    
C17   N4    S    
C13   N2    D    
C13   H4    S    
C24   H22   S    
C18   C19   A    
C15   O7    A    
O2    Zn2   S    
C11   H5    S    
N1    Zn2   S    
N4    H12   S    
C4    C5    A    
N3    H8    S    
C3    C12   S    
C12   O4    A    
C24   H21   S    
C14   O5    A    
N6    H20   S    
C23   H17   S    
N6    C24   S    
C15   O8    A    
C21   H11   S    
C8    C10   S    
C10   N7    S    
C9    H29   S    
C12   O3    A    
N3    C21   S    
C23   H19   S    
N7    C25   S    
