data_mof_unit_10039.cif
_audit_creation_date              2012-12-10T17:03:46-0500
_audit_creation_method            fapswitch 2.2
_symmetry_space_group_name_H-M    P1
_symmetry_Int_Tables_number       1
_space_group_crystal_system       triclinic
_cell_length_a                    10.049967
_cell_length_b                    10.735268
_cell_length_c                    13.026537
_cell_angle_alpha                 90.055495
_cell_angle_beta                  69.797409
_cell_angle_gamma                 90.135875
_cell_volume                      1318.95232864

loop_
_atom_site_label
_atom_site_type_symbol
_atom_type_description
_atom_site_fract_x
_atom_site_fract_y
_atom_site_fract_z
_atom_type_partial_charge
C1    C     C_R   0.498192 0.737220 0.504855 0.803255
C2    C     C_R   0.367531 0.478746 0.824726 -0.187314
C3    C     C_2   0.616963 0.066752 0.486859 -0.135256
C4    C     C_R   0.420653 0.493849 0.704960 0.957199
C5    C     C_2   0.509172 0.132092 0.477802 -0.231998
C6    C     C_2   0.614277 0.933105 0.479345 -0.205047
C7    C     C_2   0.492989 0.869097 0.522241 0.298896
C8    C     C_2   0.089855 0.410587 0.460792 -0.078337
C9    C     C_2   0.933984 0.402152 0.478926 -0.120291
C10   C     C_R   0.502094 0.262907 0.495038 0.888420
C11   C     C_R   0.579040 0.498800 0.295164 0.865440
C12   C     C_R   0.424565 0.448010 0.988987 -0.142504
C13   C     C_R   0.770571 0.362869 0.018081 -0.159762
C14   C     C_R   0.626376 0.476855 0.177731 -0.075424
C15   C     C_R   0.231645 0.523820 0.888029 0.235898
C16   C     C_R   0.189474 0.523521 0.003572 0.371730
C17   C     C_R   0.282895 0.480525 0.053768 0.388746
C18   C     C_1   0.063094 0.565094 0.589711 0.366109
C19   C     C_R   0.456959 0.427162 0.876863 -0.076941
C20   C     C_R   0.536672 0.439403 0.030705 0.037767
C21   C     C_R   0.663971 0.376358 0.971406 0.130018
C22   C     C_R   0.681632 0.328868 0.867263 0.414641
C23   C     C_R   0.578692 0.355990 0.820141 -0.224703
C24   C     C_R   0.528449 0.500452 0.126815 -0.230075
C25   C     C_R   0.749700 0.409718 0.122620 -0.186420
H1    H     H_    0.826659 0.389784 0.161543 0.200226
H2    H     H_    0.708031 0.110555 0.498927 0.157495
H3    H     H_    0.295001 0.861593 0.618303 0.352905
H4    H     H_    0.798807 0.237575 0.738608 0.334451
H5    H     H_    0.043466 0.541944 0.880167 0.347287
H6    H     H_    0.280841 0.395337 0.185135 0.326406
H7    H     H_    0.024875 0.630477 0.030749 0.340523
H8    H     H_    0.424117 0.088735 0.456816 0.193311
H9    H     H_    0.714364 0.886907 0.436690 0.140232
H10   H     H_    0.157285 0.337400 0.412772 0.153107
H11   H     H_    0.890258 0.312077 0.469948 0.153015
H12   H     H_    0.900781 0.584650 0.487370 0.183951
H13   H     H_    0.867690 0.313052 0.975734 0.200138
H14   H     H_    0.441320 0.562858 0.166291 0.204261
H15   H     H_    0.593639 0.319201 0.739621 0.160416
N1    N     N_2   0.148270 0.498670 0.498870 -0.149939
N2    N     N_2   0.852610 0.498640 0.498840 -0.182222
N3    N     N_1   0.992765 0.620351 0.665250 -0.199024
O1    O     O_R   0.386950 0.680940 0.500020 -0.614767
O2    O     O_3   0.802067 0.261687 0.811219 -0.773026
O3    O     O_3   0.141921 0.565270 0.835581 -0.735555
O4    O     O_3   0.228944 0.464720 0.165823 -0.725321
O5    O     O_3   0.058997 0.566749 0.070564 -0.728266
O6    O     O_R   0.613110 0.680900 0.499980 -0.622695
O7    O     O_R   0.330780 0.500000 0.653640 -0.548377
O8    O     O_R   0.556930 0.499960 0.653610 -0.616683
O9    O     O_R   0.386890 0.319100 0.500020 -0.617496
O10   O     O_R   0.613050 0.319060 0.499980 -0.635229
O11   O     O_R   0.443070 0.500040 0.346390 -0.608199
O12   O     O_R   0.669220 0.500000 0.346360 -0.587799
O13   O     O_3   0.369254 0.925938 0.588411 -0.759289
Zn1   Zn    Zn3+2 0.349000 0.500030 0.500020 0.992467
Zn2   Zn    Zn3+2 0.651000 0.499970 0.499980 0.959646

loop_
_geom_bond_atom_site_label_1
_geom_bond_atom_site_label_2
_ccdc_geom_bond_type
C12   C17   A    
C9    H11   S    
C19   C23   A    
O10   Zn2   S    
C6    C7    D    
C8    H10   S    
C1    O1    A    
C2    C4    S    
O1    Zn1   S    
C3    C6    S    
C10   O9    A    
C16   O5    S    
C3    H2    S    
H3    O13   S    
N1    Zn1   S    
C5    C10   S    
O8    Zn2   S    
H6    O4    S    
C21   C22   A    
C20   C21   A    
C18   N3    T    
C2    C15   A    
H7    O5    S    
C12   C20   A    
C9    N2    D    
C11   O11   A    
C7    O13   S    
C12   C19   A    
C13   H13   S    
C14   C25   A    
C11   C14   S    
C18   N1    S    
C6    H9    S    
O9    Zn1   S    
C4    O8    A    
C13   C21   A    
C23   H15   S    
C17   O4    S    
C22   O2    S    
C11   O12   A    
C8    N1    D    
O12   Zn2   S    
C14   C24   A    
H12   N2    S    
C10   O10   A    
C20   C24   A    
C22   C23   A    
C16   C17   A    
N2    Zn2   S    
C15   O3    S    
C3    C5    D    
C25   H1    S    
C1    C7    S    
O7    Zn1   S    
C1    O6    A    
C24   H14   S    
H5    O3    S    
H4    O2    S    
O6    Zn2   S    
C15   C16   A    
C2    C19   A    
C4    O7    A    
C8    C9    S    
C13   C25   A    
O11   Zn1   S    
C5    H8    S    
