data_mof_unit_6113.cif
_audit_creation_date              2012-12-10T19:05:15-0500
_audit_creation_method            fapswitch 2.2
_symmetry_space_group_name_H-M    P1
_symmetry_Int_Tables_number       1
_space_group_crystal_system       triclinic
_cell_length_a                    9.526425
_cell_length_b                    10.85179
_cell_length_c                    17.139584
_cell_angle_alpha                 90.722263
_cell_angle_beta                  85.926857
_cell_angle_gamma                 89.520635
_cell_volume                      1767.17697197

loop_
_atom_site_label
_atom_site_type_symbol
_atom_type_description
_atom_site_fract_x
_atom_site_fract_y
_atom_site_fract_z
_atom_type_partial_charge
C1    C     C_R   0.499473 0.737509 0.500683 0.833038
C2    C     C_R   0.352842 0.430141 0.771971 -0.362846
C3    C     C_R   0.445741 0.369855 0.153732 -0.143345
C4    C     C_R   0.435273 0.397264 0.233104 -0.270263
C5    C     C_R   0.640765 0.528648 0.216523 0.053749
C6    C     C_R   0.658899 0.491251 0.137719 0.444381
C7    C     C_R   0.553500 0.420535 0.105170 0.041453
C8    C     C_2   0.435183 0.448888 0.983838 0.479515
C9    C     C_2   0.548682 0.411215 0.019906 -0.297335
C10   C     C_R   0.530171 0.478533 0.264926 -0.141169
C11   C     C_R   0.377290 0.940584 0.506938 0.098084
C12   C     C_R   0.481511 0.499261 0.650403 0.857108
C13   C     C_R   0.500530 0.870334 0.499395 -0.112928
C14   C     C_R   0.629381 0.933944 0.488749 -0.202790
C15   C     C_R   0.630867 0.063134 0.487683 -0.211731
C16   C     C_R   0.503298 0.130307 0.495575 -0.073898
C17   C     C_R   0.379599 0.064303 0.502139 0.049400
C18   C     C_3   0.225410 0.080398 0.516575 -0.521575
C19   C     C_3   0.220325 0.938735 0.522717 0.305565
C20   C     C_R   0.931853 0.407619 0.462828 0.250210
C21   C     C_R   0.919111 0.582375 0.544224 -0.088352
C22   C     C_R   0.068213 0.581734 0.544607 -0.105605
C23   C     C_R   0.500904 0.262749 0.498489 0.796814
C24   C     C_R   0.079359 0.408210 0.462339 0.262346
C25   C     C_3   0.095531 0.376001 0.377323 -0.512693
C26   C     C_3   0.936238 0.373759 0.378191 -0.496803
C27   C     C_R   0.518646 0.498825 0.349607 0.853469
C28   C     C_R   0.470245 0.489375 0.735708 -0.171774
C29   C     C_R   0.577806 0.533300 0.780742 0.477450
C30   C     C_R   0.561898 0.521363 0.862104 -0.381456
C31   C     C_R   0.447161 0.458578 0.897869 -0.113598
C32   C     C_R   0.342626 0.411145 0.852443 0.493960
Cu1   Cu    Cu3+1 0.359330 0.500020 0.500000 0.947099
Cu2   Cu    Cu3+1 0.640670 0.499980 0.500000 0.964419
H1    H     H_    0.728967 0.884670 0.482152 0.170487
H2    H     H_    0.731164 0.109578 0.481252 0.159963
H3    H     H_    0.199218 0.131600 0.572322 0.210231
H4    H     H_    0.175600 0.116367 0.464705 0.156825
H5    H     H_    0.168219 0.889561 0.475296 0.075793
H6    H     H_    0.857940 0.650387 0.578876 0.149400
H7    H     H_    0.119810 0.648123 0.579910 0.162794
H8    H     H_    0.142248 0.451686 0.341219 0.229728
H9    H     H_    0.352791 0.354499 0.269759 0.161431
H10   H     H_    0.145226 0.283894 0.366123 0.182548
H11   H     H_    0.892980 0.447194 0.342229 0.241211
H12   H     H_    0.893783 0.280172 0.368357 0.189362
H13   H     H_    0.645755 0.390197 0.985088 0.124257
H14   H     H_    0.369314 0.309643 0.129765 0.178242
H15   H     H_    0.270010 0.395888 0.737566 0.177035
H16   H     H_    0.637937 0.562954 0.898038 0.170738
N1    N     N_R   0.852130 0.499070 0.499500 -0.175506
N2    N     N_R   0.148040 0.499110 0.499500 -0.181762
O1    O     O_R   0.381190 0.680360 0.500000 -0.578305
O2    O     O_R   0.618770 0.680320 0.499990 -0.580009
O3    O     O_R   0.367430 0.500040 0.613600 -0.594927
O4    O     O_R   0.605020 0.500000 0.613590 -0.552757
O5    O     O_R   0.381230 0.319680 0.500010 -0.584873
O6    O     O_R   0.618810 0.319640 0.500000 -0.596238
O7    O     O_R   0.394980 0.500000 0.386410 -0.586498
O8    O     O_R   0.632570 0.499960 0.386400 -0.564203
O9    O     O_3   0.687826 0.600507 0.745311 -0.605352
C33   C     C_3   0.820956 0.557927 0.766487 0.060881
H17   H     H_    0.885729 0.535356 0.711670 0.160089
H18   H     H_    0.817733 0.471855 0.801579 0.125530
C34   C     C_3   0.893808 0.660454 0.810129 -0.366556
H19   H     H_    0.897511 0.744854 0.774345 0.220813
H20   H     H_    0.833231 0.682557 0.866339 0.222513
C35   C     C_3   0.043499 0.623647 0.826749 -0.895998
H21   H     H_    0.042032 0.541284 0.864562 0.282752
H22   H     H_    0.093477 0.700608 0.857496 0.250865
H23   H     H_    0.107097 0.603317 0.771164 0.262582
O10   O     O_3   0.774755 0.531726 0.091908 -0.602089
C36   C     C_3   0.872351 0.432810 0.078166 0.035516
H24   H     H_    0.941181 0.454530 0.025157 0.179083
H25   H     H_    0.820716 0.343769 0.065268 0.124957
C37   C     C_3   0.965136 0.416559 0.147032 -0.311789
H26   H     H_    0.030776 0.499740 0.153503 0.244123
H27   H     H_    0.898175 0.404384 0.201924 0.218971
C38   C     C_3   0.059920 0.303000 0.135297 -0.901865
H28   H     H_    0.995377 0.218507 0.132396 0.249325
H29   H     H_    0.126775 0.294957 0.185489 0.252120
H30   H     H_    0.128157 0.310094 0.080394 0.287159
O11   O     O_3   0.182544 0.900614 0.599940 -0.589725
C39   C     C_3   0.034474 0.889417 0.612556 0.062384
H31   H     H_    0.014914 0.820358 0.659127 0.161328
H32   H     H_    0.983745 0.853293 0.560404 0.106750
C40   C     C_3   0.964421 0.011691 0.640360 -0.378577
H33   H     H_    0.027879 0.056904 0.684347 0.230734
H34   H     H_    0.958037 0.073891 0.589750 0.204878
C41   C     C_3   0.815415 0.992318 0.676739 -0.885433
H35   H     H_    0.752349 0.938964 0.636292 0.268692
H36   H     H_    0.763314 0.083100 0.689080 0.253418
H37   H     H_    0.818550 0.942200 0.732617 0.253497
I1    I     I_    0.773486 0.669980 0.256976 -0.401326
O12   O     O_3   0.225772 0.352748 0.886723 -0.615851
C42   C     C_3   0.256200 0.226054 0.896166 0.070945
H38   H     H_    0.196500 0.195929 0.950532 0.167832
H39   H     H_    0.369502 0.206211 0.904286 0.118930
C43   C     C_3   0.207223 0.150335 0.827160 -0.372838
H40   H     H_    0.095259 0.172883 0.818845 0.223218
H41   H     H_    0.271398 0.173873 0.772835 0.214011
C44   C     C_3   0.221398 0.012175 0.840883 -0.898153
H42   H     H_    0.332840 0.987222 0.848621 0.258343
H43   H     H_    0.186288 0.960130 0.789666 0.276542
H44   H     H_    0.154982 0.985171 0.893701 0.249329
O13   O     O_3   0.308967 0.475304 0.026926 -0.602848
C45   C     C_3   0.264825 0.598093 0.014949 0.080296
H45   H     H_    0.150387 0.604002 0.032219 0.173170
H46   H     H_    0.276770 0.626127 0.952607 0.143744
C46   C     C_3   0.341555 0.688016 0.066547 -0.348783
H47   H     H_    0.325420 0.660068 0.128703 0.239255
H48   H     H_    0.456265 0.685199 0.049394 0.227126
C47   C     C_3   0.287533 0.819685 0.058475 -0.911520
H49   H     H_    0.305028 0.850035 0.996912 0.253056
H50   H     H_    0.344957 0.882550 0.096404 0.263688
H51   H     H_    0.173398 0.825661 0.076703 0.265392

loop_
_geom_bond_atom_site_label_1
_geom_bond_atom_site_label_2
_ccdc_geom_bond_type
C10   C27   S    
C24   N2    A    
C23   O6    A    
C40   H33   S    
Cu1   O3    S    
C36   H25   S    
C36   H24   S    
O12   C42   S    
C37   C38   S    
C5    I1    S    
Cu1   N2    S    
Cu2   O4    S    
C11   C19   S    
Cu2   N1    S    
C33   H17   S    
C12   C28   S    
O11   C39   S    
C28   C29   A    
C18   H3    S    
C37   H27   S    
C20   N1    A    
C3    C7    A    
C27   O8    A    
C5    C6    A    
C22   H7    S    
O13   C45   S    
C15   C16   A    
C42   C43   S    
C3    H14   S    
C44   H44   S    
C2    C32   A    
C18   C19   S    
C1    O1    A    
C46   H47   S    
C33   H18   S    
C26   H11   S    
C35   H21   S    
C39   H31   S    
C20   C24   A    
C8    C9    D    
C34   H20   S    
C42   H39   S    
C45   H45   S    
C39   C40   S    
C47   H51   S    
C30   H16   S    
Cu1   O7    S    
C21   C22   A    
Cu2   O8    S    
C45   H46   S    
C44   H42   S    
C19   O11   S    
C25   H10   S    
Cu1   Cu2   S    
Cu1   O1    S    
C29   O9    S    
C24   C25   S    
C14   H1    S    
C38   H29   S    
C16   C17   A    
C25   C26   S    
C6    O10   S    
C1    O2    A    
C29   C30   A    
C2    H15   S    
C41   H36   S    
C43   H40   S    
C34   C35   S    
C42   H38   S    
C43   C44   S    
C17   C18   S    
C37   H26   S    
C44   H43   S    
C46   C47   S    
C12   O4    A    
C19   H5    S    
C43   H41   S    
Cu2   O2    S    
C16   C23   S    
C40   H34   S    
C36   C37   S    
C1    C13   S    
C4    C10   A    
C3    C4    A    
C15   H2    S    
C21   N1    A    
C41   H37   S    
C22   N2    A    
C47   H49   S    
C23   O5    A    
C11   C17   A    
Cu1   O5    S    
C33   C34   S    
C8    C31   S    
C31   C32   A    
C39   H32   S    
O10   C36   S    
C8    O13   S    
C25   H8    S    
C38   H30   S    
C9    H13   S    
C6    C7    A    
C4    H9    S    
C18   H4    S    
C5    C10   A    
C27   O7    A    
C11   C13   A    
C41   H35   S    
C30   C31   A    
C21   H6    S    
C20   C26   S    
C35   H23   S    
C45   C46   S    
O9    C33   S    
C46   H48   S    
C12   O3    A    
C26   H12   S    
C38   H28   S    
C7    C9    S    
C32   O12   S    
C35   H22   S    
C34   H19   S    
C40   C41   S    
Cu2   O6    S    
C14   C15   A    
C2    C28   A    
C13   C14   A    
C47   H50   S    
