data_mof_unit_47061.cif
_audit_creation_date              2012-12-10T19:51:00-0500
_audit_creation_method            fapswitch 2.2
_symmetry_space_group_name_H-M    P1
_symmetry_Int_Tables_number       1
_space_group_crystal_system       triclinic
_cell_length_a                    23.512528
_cell_length_b                    10.827048
_cell_length_c                    22.241086
_cell_angle_alpha                 92.083248
_cell_angle_beta                  88.90408
_cell_angle_gamma                 87.930615
_cell_volume                      5653.32490321

loop_
_atom_site_label
_atom_site_type_symbol
_atom_type_description
_atom_site_fract_x
_atom_site_fract_y
_atom_site_fract_z
_atom_type_partial_charge
C1    C     C_R   0.498389 0.262406 0.498938 0.826133
C2    C     C_R   0.703754 0.575999 0.458650 -0.142528
C3    C     C_R   0.240563 0.416594 0.551224 0.333515
C4    C     C_R   0.763775 0.559481 0.455950 0.396116
C5    C     C_R   0.209260 0.466515 0.503409 0.138458
C6    C     C_R   0.791236 0.480243 0.496603 0.119030
C7    C     C_R   0.320402 0.206603 0.422139 -0.109328
C8    C     C_R   0.667792 0.771659 0.593588 -0.063543
C9    C     C_R   0.364090 0.148949 0.453404 -0.156497
C10   C     C_R   0.619730 0.803399 0.560909 -0.118751
C11   C     C_R   0.417374 0.121778 0.425505 0.000559
C12   C     C_R   0.501430 0.738365 0.501114 0.787891
C13   C     C_R   0.579025 0.891485 0.583547 0.048812
C14   C     C_R   0.426719 0.152081 0.364484 -0.022118
C15   C     C_R   0.585808 0.944423 0.642783 -0.021939
C16   C     C_R   0.390885 0.494255 0.500607 0.858206
C17   C     C_R   0.609112 0.504137 0.499265 0.824949
C18   C     C_R   0.382120 0.212051 0.334143 -0.133924
C19   C     C_R   0.635951 0.914875 0.673763 -0.071388
C20   C     C_R   0.329483 0.238707 0.362775 -0.051632
C21   C     C_R   0.676405 0.829052 0.649406 -0.065723
C22   C     C_R   0.463790 0.932905 0.464268 -0.152796
C23   C     C_R   0.237512 0.520849 0.454722 -0.052500
C24   C     C_R   0.538103 0.069984 0.533402 -0.144292
C25   C     C_R   0.501247 0.872876 0.503009 -0.059214
C26   C     C_R   0.499404 0.129185 0.496845 -0.019379
C27   C     C_R   0.537205 0.943148 0.540712 0.069325
C28   C     C_R   0.461664 0.061138 0.461794 0.051341
C29   C     C_R   0.503089 0.359155 0.870803 0.676781
C30   C     C_R   0.462651 0.588539 0.125692 0.734634
C31   C     C_R   0.448650 0.545271 0.871723 0.654077
C32   C     C_R   0.497068 0.379889 0.128890 0.687171
C33   C     C_R   0.442492 0.547743 0.935676 -0.120480
C34   C     C_R   0.758995 0.410615 0.536755 -0.042703
C35   C     C_R   0.494160 0.363536 0.064741 -0.117395
C36   C     C_R   0.472165 0.456506 0.967684 -0.032049
C37   C     C_R   0.472682 0.464169 0.031871 -0.029842
C38   C     C_R   0.499041 0.355167 0.935322 -0.118145
C39   C     C_R   0.451844 0.573665 0.063024 -0.134318
C40   C     C_R   0.878511 0.566803 0.530272 0.718569
C41   C     C_R   0.122120 0.373015 0.473052 0.718319
C42   C     C_R   0.408521 0.639516 0.968950 0.355824
C43   C     C_R   0.511941 0.251623 0.032090 0.263019
C44   C     C_R   0.419554 0.662188 0.030787 -0.151833
C45   C     C_R   0.296878 0.525290 0.454690 -0.252465
C46   C     C_R   0.519726 0.252864 0.968353 -0.133948
C47   C     C_R   0.542079 0.489806 0.249481 0.234078
C48   C     C_R   0.487611 0.593410 0.749328 0.268525
C49   C     C_R   0.545662 0.466003 0.312181 0.450319
C50   C     C_R   0.475669 0.592616 0.687212 0.416599
C51   C     C_R   0.449390 0.534193 0.325601 -0.126385
C52   C     C_R   0.533203 0.409989 0.674664 -0.094733
C53   C     C_R   0.440776 0.524373 0.263093 0.302696
C54   C     C_R   0.538346 0.403581 0.738289 0.323179
C55   C     C_R   0.488111 0.504309 0.223400 0.068514
C56   C     C_R   0.699716 0.419827 0.534988 -0.236818
C57   C     C_R   0.501584 0.481501 0.776123 0.043211
C58   C     C_R   0.882153 0.379441 0.470323 0.727318
C59   C     C_R   0.118229 0.554233 0.537420 0.719322
C60   C     C_R   0.942244 0.376770 0.468336 -0.126106
C61   C     C_R   0.058257 0.554583 0.540343 -0.168578
C62   C     C_R   0.970254 0.468920 0.502464 -0.090165
C63   C     C_R   0.030276 0.464317 0.505220 -0.090899
C64   C     C_R   0.938484 0.568934 0.531499 -0.151412
C65   C     C_R   0.062256 0.366436 0.475069 -0.120107
C66   C     C_R   0.974993 0.283606 0.435140 0.287000
C67   C     C_R   0.328516 0.481086 0.502460 -0.171320
C68   C     C_R   0.025604 0.644611 0.575206 0.311810
C69   C     C_R   0.033534 0.268098 0.446468 0.249466
C70   C     C_R   0.967585 0.664180 0.562613 0.333546
C71   C     C_2   0.481275 0.121734 0.330875 0.905790
C72   C     C_2   0.540674 0.022356 0.675971 0.951536
C73   C     C_2   0.394120 0.775610 0.061263 1.063556
C74   C     C_2   0.552912 0.149461 0.937538 1.035010
C75   C     C_2   0.206230 0.575613 0.403655 0.936496
C76   C     C_2   0.785552 0.327394 0.581227 0.950313
C77   C     C_2   0.333440 0.376765 0.601759 0.997611
C78   C     C_R   0.671745 0.500979 0.497001 -0.195351
C79   C     C_2   0.676583 0.682465 0.427804 0.911183
C80   C     C_R   0.300414 0.425990 0.551177 -0.169073
Cu1   Cu    Cu3+1 0.500000 0.499970 0.559570 1.052589
Cu2   Cu    Cu3+1 0.500000 0.500030 0.440430 1.048042
H1    H     H_    0.387586 0.237517 0.287814 0.215524
H2    H     H_    0.714237 0.805975 0.674247 0.181378
H3    H     H_    0.279463 0.226798 0.444074 0.189412
H4    H     H_    0.699339 0.705122 0.574965 0.164152
H5    H     H_    0.356321 0.124709 0.499577 0.199549
H6    H     H_    0.614915 0.762924 0.516630 0.098076
H7    H     H_    0.884597 0.249902 0.303799 0.401741
H8    H     H_    0.114660 0.656452 0.708266 0.410881
H9    H     H_    0.526425 0.131074 0.253275 0.414163
H10   H     H_    0.508501 0.085426 0.756379 0.390938
H11   H     H_    0.333733 0.863212 0.876603 0.408165
H12   H     H_    0.643254 0.955701 0.717992 0.215821
H13   H     H_    0.611559 0.121007 0.075145 0.364329
H14   H     H_    0.338951 0.849903 0.124207 0.365527
H15   H     H_    0.552189 0.992189 0.886116 0.376647
H16   H     H_    0.659121 0.400674 0.143333 0.385831
H17   H     H_    0.468634 0.867286 0.835887 0.406419
H18   H     H_    0.627786 0.237274 0.400593 0.371688
H19   H     H_    0.370568 0.768351 0.596351 0.372863
H20   H     H_    0.311330 0.692588 0.223943 0.407176
H21   H     H_    0.655569 0.381780 0.844089 0.397286
H22   H     H_    0.997474 0.020064 0.476979 0.379017
H23   H     H_    0.435083 0.879746 0.436824 0.156119
H24   H     H_    0.876570 0.901001 0.642219 0.383482
H25   H     H_    0.132496 0.644906 0.371271 0.373457
H26   H     H_    0.775371 0.187761 0.637864 0.360207
H27   H     H_    0.352409 0.392566 0.689662 0.348840
H28   H     H_    0.676276 0.865801 0.414046 0.361081
H29   H     H_    0.113498 0.344056 0.624835 0.386576
H30   H     H_    0.843530 0.815286 0.398967 0.409924
H31   H     H_    0.568225 0.124518 0.558376 0.129450
H32   H     H_    0.413429 0.564239 0.353635 0.205984
H33   H     H_    0.560320 0.349773 0.645684 0.188455
H34   H     H_    0.318744 0.567727 0.417866 0.209619
H35   H     H_    0.674592 0.364759 0.564559 0.210150
H36   H     H_    0.295420 0.283588 0.338730 0.208586
N1    N     N_R   0.852326 0.475490 0.498785 -0.454046
N2    N     N_R   0.148273 0.463815 0.504986 -0.446419
N3    N     N_R   0.486539 0.463372 0.841010 -0.415685
N4    N     N_R   0.481914 0.490753 0.157879 -0.423461
N5    N     N_R   0.500010 0.500010 0.350920 -0.259183
N6    N     N_R   0.499990 0.499990 0.649080 -0.263325
O1    O     O_R   0.500000 0.319610 0.550310 -0.573611
O2    O     O_2   0.154293 0.293644 0.437542 -0.472179
O3    O     O_2   0.853113 0.285212 0.446429 -0.437246
O4    O     O_2   0.146765 0.647033 0.563441 -0.415166
O5    O     O_2   0.520190 0.257461 0.838285 -0.486916
O6    O     O_2   0.455436 0.700096 0.154207 -0.438329
O7    O     O_2   0.417019 0.625350 0.840595 -0.425406
O8    O     O_2   0.517181 0.288047 0.162408 -0.403241
O9    O     O_2   0.993744 0.163647 0.326819 -0.178991
O10   O     O_2   0.915332 0.094476 0.389837 -0.193431
O11   O     O_3   0.902072 0.301916 0.335472 -0.437510
O12   O     O_R   0.500000 0.680390 0.449690 -0.567540
O13   O     O_2   0.084180 0.826502 0.628772 -0.146600
O14   O     O_2   0.005319 0.745443 0.687226 -0.185735
O15   O     O_3   0.097692 0.609814 0.674366 -0.478649
O16   O     O_2   0.519964 0.062974 0.353900 -0.537290
O17   O     O_R   0.488202 0.159316 0.271798 -0.708010
O18   O     O_2   0.500102 0.068020 0.650137 -0.554122
O19   O     O_R   0.542934 0.037300 0.738530 -0.652664
O20   O     O_2   0.318551 0.624466 0.895200 -0.192436
O21   O     O_2   0.304000 0.756934 0.985036 -0.233838
O22   O     O_3   0.367559 0.836738 0.899388 -0.451622
O23   O     O_R   0.499990 0.319670 0.449690 -0.538355
O24   O     O_2   0.472010 0.094378 0.113177 -0.152708
O25   O     O_2   0.520497 0.996763 0.025875 -0.223205
O26   O     O_3   0.582164 0.103746 0.105896 -0.405212
O27   O     O_2   0.406895 0.877122 0.044070 -0.470770
O28   O     O_R   0.353745 0.766122 0.107627 -0.664308
O29   O     O_2   0.604707 0.143725 0.941584 -0.550258
O30   O     O_R   0.524876 0.057798 0.904976 -0.664136
O31   O     O_2   0.590241 0.602497 0.156323 -0.258449
O32   O     O_2   0.650411 0.564406 0.242210 -0.156001
O33   O     O_3   0.627858 0.378097 0.170836 -0.436382
O34   O     O_R   0.500010 0.680330 0.550310 -0.524029
O35   O     O_2   0.543721 0.699717 0.841989 -0.260447
O36   O     O_2   0.564046 0.766040 0.741072 -0.265039
O37   O     O_3   0.469133 0.845225 0.792267 -0.403491
O38   O     O_2   0.618927 0.277660 0.281124 -0.197156
O39   O     O_2   0.655470 0.440874 0.345787 -0.210169
O40   O     O_3   0.591043 0.280408 0.392337 -0.513557
O41   O     O_2   0.391273 0.756162 0.717457 -0.167661
O42   O     O_2   0.465307 0.823371 0.649482 -0.267051
O43   O     O_3   0.386964 0.686820 0.607267 -0.504740
O44   O     O_2   0.363058 0.469980 0.178733 -0.245511
O45   O     O_R   0.417880 0.499930 0.550320 -0.514039
O46   O     O_2   0.330472 0.487370 0.283912 -0.298275
O47   O     O_3   0.352838 0.689312 0.230880 -0.448977
O48   O     O_2   0.614911 0.221488 0.762362 -0.238685
O49   O     O_2   0.650902 0.409055 0.720370 -0.265769
O50   O     O_3   0.618501 0.419015 0.832376 -0.466997
O51   O     O_2   0.099130 0.106051 0.378307 -0.139771
O52   O     O_2   0.107037 0.094272 0.487497 -0.185063
O53   O     O_3   0.017999 0.006832 0.437859 -0.416656
O54   O     O_2   0.980670 0.910460 0.583222 -0.224407
O55   O     O_2   0.899314 0.849792 0.524471 -0.217100
O56   O     O_R   0.582120 0.500070 0.449680 -0.483858
O57   O     O_3   0.895653 0.817850 0.639830 -0.428035
O58   O     O_2   0.231649 0.594114 0.356516 -0.526045
O59   O     O_R   0.148268 0.608520 0.409145 -0.740191
O60   O     O_2   0.835303 0.336959 0.595086 -0.567774
O61   O     O_R   0.752941 0.238339 0.608327 -0.734134
O62   O     O_2   0.366703 0.288234 0.592969 -0.591163
O63   O     O_R   0.327002 0.433064 0.659148 -0.639585
O64   O     O_2   0.635733 0.668895 0.395466 -0.512161
O65   O     O_R   0.698156 0.800328 0.436592 -0.697185
O66   O     O_2   0.239094 0.229060 0.628108 -0.204762
O67   O     O_R   0.417880 0.499990 0.449700 -0.616274
O68   O     O_2   0.202130 0.431686 0.665291 -0.193926
O69   O     O_3   0.139266 0.299640 0.594933 -0.492278
O70   O     O_2   0.858881 0.566439 0.384060 -0.246471
O71   O     O_2   0.770840 0.655314 0.345429 -0.189752
O72   O     O_3   0.820883 0.776836 0.430801 -0.433039
O73   O     O_R   0.582120 0.500010 0.550300 -0.596340
O74   O     O_2   0.845885 0.650476 0.562827 -0.445373
S1    S     S_3+6 0.946921 0.205244 0.370676 0.137955
S2    S     S_3+6 0.607395 0.359743 0.762800 0.077320
S3    S     S_3+6 0.066569 0.116968 0.437185 0.156970
S4    S     S_3+6 0.935920 0.815631 0.576430 0.121700
S5    S     S_3+6 0.205325 0.342971 0.611626 0.101245
S6    S     S_3+6 0.804675 0.637657 0.401359 0.104035
S7    S     S_3+6 0.052848 0.712044 0.642797 0.143114
S8    S     S_3+6 0.347023 0.713749 0.937263 0.114374
S9    S     S_3+6 0.520420 0.106960 0.068924 0.130306
S10   S     S_3+6 0.604150 0.512478 0.204267 0.123822
S11   S     S_3+6 0.517603 0.727678 0.782529 0.112787
S12   S     S_3+6 0.604194 0.366497 0.332998 0.121128
S13   S     S_3+6 0.429636 0.716828 0.664863 0.123344
S14   S     S_3+6 0.369954 0.538600 0.237950 0.058004

loop_
_geom_bond_atom_site_label_1
_geom_bond_atom_site_label_2
_ccdc_geom_bond_type
C70   S4    S    
C72   O19   S    
C63   C65   A    
C34   C56   A    
C59   N2    A    
C23   C45   A    
Cu2   O67   S    
C51   N5    A    
C14   C71   S    
C14   C18   A    
C2    C4    A    
O57   S4    S    
C61   C68   A    
C24   C27   A    
C32   O8    S    
O22   S8    S    
C75   O59   S    
O25   S9    D    
C20   H36   S    
Cu1   Cu2   S    
C54   S2    S    
C48   C57   A    
C47   C49   A    
O13   S7    D    
H27   O63   S    
C15   C19   A    
O36   S11   D    
C10   H6    S    
C47   S10   S    
H7    O11   S    
C33   C42   A    
C36   C37   A    
C19   C21   A    
C1    O1    A    
O26   S9    S    
O69   S5    S    
O11   S1    S    
C11   C14   A    
O66   S5    D    
C4    S6    S    
C66   C69   A    
C58   C60   A    
C49   N5    A    
C33   C36   A    
C56   C78   A    
C74   O30   S    
C60   C62   A    
C56   H35   S    
H19   O43   S    
H10   O19   S    
O44   S14   D    
H30   O72   S    
C62   C64   A    
C2    C79   S    
O15   S7    S    
O24   S9    D    
H17   O37   S    
C16   O45   A    
O39   S12   D    
C29   O5    S    
C30   N4    A    
O40   S12   S    
C22   C25   A    
C29   N3    A    
C49   S12   S    
C45   C67   A    
C31   O7    S    
C31   C33   A    
C17   O73   A    
C64   C70   A    
O72   S6    S    
C35   C43   A    
C18   C20   A    
C66   S1    S    
C71   O17   S    
C77   C80   S    
Cu1   O1    S    
C48   C50   A    
C55   N4    S    
C60   C66   A    
C24   H31   S    
O9    S1    D    
C22   C28   A    
C73   O27   D    
O49   S2    D    
C77   O62   D    
O33   S10   S    
C42   C44   A    
C3    C80   A    
O52   S3    D    
O21   S8    D    
O14   S7    D    
C52   C54   A    
Cu2   O23   S    
C21   H2    S    
O20   S8    D    
C53   C55   A    
O10   S1    D    
C59   C61   A    
C51   H32   S    
C79   O64   D    
Cu1   N6    S    
C43   S9    S    
C32   C35   A    
C32   N4    A    
H26   O61   S    
C50   N6    A    
C31   N3    A    
C4    C6    A    
O31   S10   D    
O55   S4    D    
C23   C75   S    
H13   O26   S    
O41   S13   D    
C41   C65   A    
O71   S6    D    
C5    N2    S    
C59   O4    S    
C30   O6    S    
O37   S11   S    
H8    O15   S    
C6    C34   A    
C74   O29   D    
H25   O59   S    
C51   C53   A    
C29   C38   A    
C72   O18   D    
H24   O57   S    
C62   C63   A    
C2    C78   A    
C16   O67   A    
O42   S13   D    
H22   O53   S    
C5    C23   A    
H16   O33   S    
O70   S6    D    
C61   C63   A    
C18   H1    S    
O46   S14   D    
H11   O22   S    
H18   O40   S    
C16   C67   S    
H15   O30   S    
C9    C11   A    
O51   S3    D    
C71   O16   D    
C19   H12   S    
H29   O69   S    
C69   S3    S    
C17   O56   A    
C8    C10   A    
C50   S13   S    
Cu1   O45   S    
O54   S4    D    
C73   O28   S    
C79   O65   S    
C1    C26   S    
C77   O63   S    
O53   S3    S    
C1    O23   A    
Cu2   N5    S    
C46   C74   S    
C47   C55   A    
C52   H33   S    
H20   O47   S    
C7    C9    A    
Cu1   O34   S    
C35   C37   A    
C6    N1    S    
C26   C28   A    
C41   O2    S    
C67   C80   A    
C24   C26   A    
C3    C5    A    
C10   C13   A    
C8    C21   A    
C39   C44   A    
C25   C27   A    
C22   H23   S    
O38   S12   D    
H28   O65   S    
O50   S2    S    
O35   S11   D    
C42   S8    S    
C12   C25   S    
C13   C15   A    
O43   S13   S    
C37   C39   A    
C9    H5    S    
Cu1   O73   S    
O47   S14   S    
C52   N6    A    
C45   H34   S    
C7    H3    S    
C40   O74   S    
C11   C28   S    
C53   S14   S    
C65   C69   A    
C40   C64   A    
C36   C38   A    
C17   C78   S    
O68   S5    D    
C15   C72   S    
C30   C39   A    
O48   S2    D    
C8    H4    S    
H21   O50   S    
C41   N2    A    
Cu2   O12   S    
C44   C73   S    
O32   S10   D    
C43   C46   A    
C38   C46   A    
C57   N3    S    
C58   O3    S    
C40   N1    A    
C58   N1    A    
C48   S11   S    
C68   C70   A    
C7    C20   A    
C12   O12   A    
Cu2   O56   S    
C68   S7    S    
C3    S5    S    
C13   C27   S    
C12   O34   A    
C76   O60   D    
C75   O58   D    
C76   O61   S    
C34   C76   S    
H9    O17   S    
C54   C57   A    
H14   O28   S    
