data_mof_unit_26720.cif
_audit_creation_date              2012-12-10T17:44:30-0500
_audit_creation_method            fapswitch 2.2
_symmetry_space_group_name_H-M    P1
_symmetry_Int_Tables_number       1
_space_group_crystal_system       triclinic
_cell_length_a                    10.022667
_cell_length_b                    10.617378
_cell_length_c                    15.137458
_cell_angle_alpha                 95.912421
_cell_angle_beta                  68.91254
_cell_angle_gamma                 90.639934
_cell_volume                      1494.39266796

loop_
_atom_site_label
_atom_site_type_symbol
_atom_type_description
_atom_site_fract_x
_atom_site_fract_y
_atom_site_fract_z
_atom_type_partial_charge
C1    C     C_R   0.506606 0.737141 0.489097 0.888780
C2    C     C_R   0.455574 0.380698 0.887953 0.086716
C3    C     C_R   0.327291 0.317988 0.930568 0.157355
C4    C     C_R   0.565269 0.381158 0.925839 -0.080400
C5    C     C_R   0.528442 0.357937 0.021546 0.021087
C6    C     C_R   0.399594 0.294064 0.064514 -0.167419
C7    C     C_R   0.303443 0.269344 0.017201 -0.192082
C8    C     C_R   0.708930 0.409806 0.873086 0.438858
C9    C     C_R   0.796990 0.454904 0.921384 -0.289353
C10   C     C_R   0.749567 0.464286 0.020908 -0.009864
C11   C     C_R   0.617041 0.408196 0.071317 0.091510
C12   C     C_R   0.411296 0.490541 0.675142 0.892281
C13   C     C_R   0.826737 0.533027 0.071990 0.010591
C14   C     C_R   0.774000 0.540006 0.171248 -0.196495
C15   C     C_R   0.568906 0.418243 0.170914 -0.230197
C16   C     C_R   0.373950 0.847950 0.365655 -0.193546
C17   C     C_R   0.300190 0.906160 0.317759 -0.123537
C18   C     C_R   0.299000 0.037192 0.318778 -0.149011
C19   C     C_R   0.370966 0.110711 0.368091 -0.191636
C20   C     C_R   0.441619 0.054034 0.420528 0.117411
C21   C     C_R   0.443994 0.921010 0.418665 0.098519
C22   C     C_R   0.522281 0.865927 0.467048 -0.137993
C23   C     C_R   0.503974 0.259689 0.491350 0.852298
C24   C     C_R   0.618034 0.936860 0.497595 -0.232879
C25   C     C_R   0.608648 0.065156 0.505301 -0.200339
C26   C     C_R   0.514978 0.124628 0.472689 -0.093729
C27   C     C_R   0.781859 0.644350 0.654821 0.543394
C28   C     C_R   0.807996 0.665909 0.740228 -0.303453
C29   C     C_R   0.944145 0.663267 0.739197 -0.354268
C30   C     C_R   0.056874 0.642077 0.652496 0.534705
C31   C     C_R   0.032705 0.569527 0.574479 -0.002782
C32   C     C_R   0.887660 0.569960 0.574973 0.008105
C33   C     C_R   0.968702 0.437773 0.427797 0.002975
C34   C     C_R   0.589527 0.496544 0.323687 0.831149
C35   C     C_R   0.110201 0.438001 0.428640 -0.153060
C36   C     C_R   0.366527 0.444276 0.769276 -0.126592
C37   C     C_R   0.645883 0.484259 0.220151 -0.084066
C38   C     C_R   0.224423 0.309415 0.886866 -0.133958
C39   C     C_R   0.246281 0.369387 0.804417 -0.124668
C40   C     C_R   0.465965 0.452457 0.814093 -0.247181
H1    H     H_    0.206174 0.220001 0.051406 0.162093
H2    H     H_    0.693125 0.894355 0.523034 0.180671
H3    H     H_    0.379907 0.745773 0.356987 0.174438
H4    H     H_    0.247185 0.849094 0.277431 0.157166
H5    H     H_    0.245171 0.081911 0.279193 0.143975
H6    H     H_    0.374835 0.210821 0.360847 0.151447
H7    H     H_    0.670628 0.117853 0.541126 0.172874
H8    H     H_    0.726305 0.698075 0.807276 0.168882
H9    H     H_    0.468221 0.380114 0.212357 0.143159
H10   H     H_    0.960635 0.690836 0.805141 0.178085
H11   H     H_    0.195443 0.386782 0.370415 0.140623
H12   H     H_    0.830935 0.593074 0.211084 0.188199
H13   H     H_    0.900709 0.486284 0.879153 0.217786
H14   H     H_    0.127662 0.257305 0.916452 0.135007
H15   H     H_    0.169973 0.357600 0.768741 0.151610
H16   H     H_    0.553806 0.515207 0.789699 0.208635
H17   H     H_    0.371710 0.261010 0.133825 0.141244
N1    N     N_R   0.856800 0.501200 0.500850 -0.131157
N2    N     N_R   0.142390 0.501280 0.500880 -0.100136
O1    O     O_R   0.385310 0.683220 0.500000 -0.563374
O2    O     O_R   0.614640 0.683250 0.500010 -0.560763
O3    O     O_R   0.319840 0.499980 0.632240 -0.554504
O4    O     O_R   0.549160 0.500000 0.632250 -0.561356
O5    O     O_R   0.385360 0.316750 0.499990 -0.640578
O6    O     O_R   0.614690 0.316780 0.500000 -0.577969
O7    O     O_R   0.450840 0.500000 0.367750 -0.636092
O8    O     O_R   0.680160 0.500020 0.367760 -0.598623
Zn1   Zn    Zn3+2 0.346880 0.499980 0.499990 0.964421
Zn2   Zn    Zn3+2 0.653120 0.500020 0.500010 1.010801
C41   C     C_2   0.952198 0.611589 0.027274 0.885815
O9    O     O_2   0.957367 0.718891 0.063872 -0.634634
O10   O     O_R   0.066245 0.563465 0.946478 -0.829164
H18   H     H_    0.144406 0.627020 0.923969 0.342579
C42   C     C_2   0.947505 0.370765 0.343887 0.921128
O11   O     O_2   0.019911 0.397728 0.264353 -0.660123
O12   O     O_R   0.851480 0.272416 0.354309 -0.784240
H19   H     H_    0.847780 0.233500 0.291219 0.332938
O13   O     O_3   0.659099 0.696656 0.648667 -0.596987
C43   C     C_3   0.602238 0.809671 0.710628 0.034376
H20   H     H_    0.560867 0.871742 0.671626 0.157368
H21   H     H_    0.684064 0.866550 0.729499 0.118415
C44   C     C_3   0.472755 0.784375 0.799421 -0.375819
H22   H     H_    0.394439 0.727148 0.777829 0.212626
H23   H     H_    0.503188 0.730179 0.848075 0.212256
C45   C     C_3   0.399594 0.908264 0.855721 -0.957513
H24   H     H_    0.361825 0.964649 0.811009 0.257555
H25   H     H_    0.475039 0.965271 0.880973 0.270112
H26   H     H_    0.305799 0.887199 0.918506 0.278812
O14   O     O_3   0.189310 0.688138 0.643518 -0.585514
C46   C     C_3   0.192338 0.808817 0.692572 0.072098
H27   H     H_    0.305860 0.822250 0.683684 0.176591
H28   H     H_    0.134803 0.814708 0.770598 0.124026
C47   C     C_3   0.147659 0.916954 0.648523 -0.370843
H29   H     H_    0.188608 0.896422 0.569895 0.249557
H30   H     H_    0.029096 0.925195 0.673996 0.209739
C48   C     C_3   0.207920 0.042366 0.675180 -0.964525
H31   H     H_    0.154434 0.072828 0.752400 0.258237
H32   H     H_    0.191749 0.116932 0.633716 0.275508
H33   H     H_    0.324879 0.032819 0.658431 0.262299
O15   O     O_3   0.763530 0.407430 0.774814 -0.661993
C49   C     C_3   0.760520 0.285421 0.728347 0.085724
H34   H     H_    0.702473 0.294525 0.678973 0.187438
H35   H     H_    0.704644 0.213200 0.776609 0.108817
C50   C     C_3   0.914325 0.238791 0.671161 -0.346698
H36   H     H_    0.981394 0.319417 0.641561 0.247053
H37   H     H_    0.958163 0.198239 0.720061 0.212171
C51   C     C_3   0.922613 0.139618 0.588710 -0.958248
H38   H     H_    0.852110 0.059537 0.614977 0.246511
H39   H     H_    0.034007 0.102476 0.552050 0.279116
H40   H     H_    0.891022 0.183801 0.535589 0.283644

loop_
_geom_bond_atom_site_label_1
_geom_bond_atom_site_label_2
_ccdc_geom_bond_type
O7    Zn1   S    
C47   H29   S    
C34   C37   S    
C24   H2    S    
C19   C20   A    
C32   N1    A    
C4    C8    A    
C27   O13   S    
C34   O7    A    
C50   H37   S    
C19   H6    S    
C45   H24   S    
C33   N1    A    
C42   O12   S    
O5    Zn1   S    
C28   C29   A    
C5    C11   A    
C3    C7    A    
C30   C31   A    
C13   C41   S    
C48   H33   S    
C35   N2    A    
C18   C19   A    
C23   C26   S    
C31   N2    A    
C15   C37   A    
C11   C15   A    
C14   H12   S    
O4    Zn2   S    
C3    C38   A    
C8    C9    A    
C40   H16   S    
C48   H32   S    
C51   H38   S    
C41   O9    D    
C12   C36   S    
C9    C10   A    
C25   H7    S    
C15   H9    S    
C1    C22   S    
C47   H30   S    
C21   C22   A    
C51   H39   S    
C6    H17   S    
C30   O14   S    
C50   H36   S    
C29   H10   S    
C45   H25   S    
C38   C39   A    
C39   H15   S    
C42   O11   D    
C49   H34   S    
C36   C40   A    
C24   C25   A    
C1    O1    A    
C43   H21   S    
C12   O4    A    
O13   C43   S    
C16   C17   A    
C25   C26   A    
O8    Zn2   S    
C2    C4    A    
C29   C30   A    
N2    Zn1   S    
C12   O3    A    
C46   H28   S    
C31   C32   A    
C38   H14   S    
C48   H31   S    
C17   C18   A    
N1    Zn2   S    
O12   H19   S    
C16   H3    S    
C23   O5    A    
C47   C48   S    
C44   H23   S    
C35   H11   S    
C51   H40   S    
C22   C24   A    
C9    H13   S    
C18   H5    S    
C46   C47   S    
C45   H26   S    
O2    Zn2   S    
C28   H8    S    
C27   C32   A    
C36   C39   A    
O10   H18   S    
C10   C13   A    
C1    O2    A    
C34   O8    A    
C43   C44   S    
C16   C21   A    
C6    C7    A    
C49   C50   S    
C44   C45   S    
O3    Zn1   S    
C23   O6    A    
C2    C3    A    
C8    O15   S    
C17   H4    S    
C14   C37   A    
C46   H27   S    
C5    C6    A    
C20   C26   A    
O6    Zn2   S    
O15   C49   S    
C33   C35   A    
C7    H1    S    
C10   C11   A    
C43   H20   S    
C2    C40   A    
C33   C42   S    
C4    C5    A    
C20   C21   A    
O1    Zn1   S    
C49   H35   S    
C44   H22   S    
C27   C28   A    
C41   O10   S    
O14   C46   S    
C13   C14   A    
C50   C51   S    
