data_mof_unit_8501.cif
_audit_creation_date              2012-12-10T20:31:03-0500
_audit_creation_method            fapswitch 2.2
_symmetry_space_group_name_H-M    P1
_symmetry_Int_Tables_number       1
_space_group_crystal_system       triclinic
_cell_length_a                    14.876969
_cell_length_b                    10.667043
_cell_length_c                    9.91744
_cell_angle_alpha                 88.973344
_cell_angle_beta                  90.883284
_cell_angle_gamma                 90.404205
_cell_volume                      1573.35516162

loop_
_atom_site_label
_atom_site_type_symbol
_atom_type_description
_atom_site_fract_x
_atom_site_fract_y
_atom_site_fract_z
_atom_type_partial_charge
C1    C     C_R   0.498527 0.260291 0.500544 0.944348
C2    C     C_R   0.907670 0.610270 0.525435 0.083773
C3    C     C_R   0.950057 0.271902 0.457367 -0.207283
C4    C     C_R   0.043500 0.269124 0.455907 -0.037291
C5    C     C_R   0.093158 0.381204 0.476129 -0.032832
C6    C     C_R   0.047059 0.494990 0.499976 0.005928
C7    C     C_R   0.094873 0.608067 0.521615 0.123863
C8    C     C_R   0.049936 0.719898 0.545114 -0.209752
C9    C     C_R   0.956624 0.722101 0.547133 0.006679
C10   C     C_R   0.187264 0.384660 0.473857 0.538663
C11   C     C_R   0.232203 0.497298 0.496636 -0.165349
C12   C     C_R   0.327334 0.499451 0.499010 0.962394
C13   C     C_R   0.187560 0.608026 0.519574 -0.312745
C14   C     C_R   0.433683 0.059992 0.573588 0.033933
C15   C     C_R   0.495559 0.128053 0.497263 -0.050642
C16   C     C_R   0.547472 0.067406 0.401355 -0.150233
C17   C     C_R   0.547925 0.937850 0.399163 -0.191449
C18   C     C_R   0.497908 0.870848 0.494725 -0.024652
C19   C     C_R   0.437567 0.931944 0.575494 -0.060439
C20   C     C_3   0.419098 0.921939 0.722970 0.541708
C21   C     C_3   0.408345 0.064943 0.718708 -0.341870
C22   C     C_R   0.422596 0.479081 0.069920 0.201149
C23   C     C_R   0.501255 0.739358 0.498898 0.855321
C24   C     C_R   0.573004 0.539233 0.073886 -0.140816
C25   C     C_R   0.572770 0.541843 0.930533 0.021070
C26   C     C_R   0.422126 0.480433 0.928044 0.176775
C27   C     C_3   0.360600 0.369829 0.924087 -0.285981
C28   C     C_3   0.362756 0.367108 0.077930 -0.497777
C29   C     C_R   0.672723 0.499658 0.500868 0.968581
C30   C     C_R   0.814181 0.608817 0.525864 -0.333206
C31   C     C_R   0.767933 0.497717 0.502756 -0.176522
C32   C     C_R   0.811622 0.385670 0.479484 0.562084
C33   C     C_R   0.904891 0.383930 0.479500 0.000191
C34   C     C_R   0.953287 0.496353 0.501872 -0.002045
H1    H     H_    0.776419 0.693577 0.542575 0.178018
H2    H     H_    0.591045 0.890585 0.329414 0.164737
H3    H     H_    0.458086 0.115908 0.782326 0.193710
H4    H     H_    0.631927 0.570154 0.129750 0.157156
H5    H     H_    0.391619 0.287550 0.877994 0.166279
H6    H     H_    0.297711 0.388794 0.126002 0.222350
H7    H     H_    0.397796 0.283752 0.121718 0.220839
H8    H     H_    0.912454 0.185812 0.441109 0.209851
H9    H     H_    0.225421 0.694028 0.534970 0.165669
H10   H     H_    0.087772 0.805763 0.561853 0.166105
H11   H     H_    0.590724 0.119696 0.333313 0.189653
N1    N     N_R   0.499390 0.499140 0.142800 -0.113661
N2    N     N_R   0.499390 0.499180 0.857150 -0.139968
O1    O     O_R   0.500010 0.316790 0.614690 -0.628417
O2    O     O_R   0.500000 0.316760 0.385350 -0.613525
O3    O     O_R   0.367850 0.499990 0.614680 -0.624199
O4    O     O_R   0.367840 0.499950 0.385340 -0.609122
O5    O     O_R   0.500000 0.683240 0.614650 -0.578919
O6    O     O_R   0.499990 0.683210 0.385310 -0.631221
O7    O     O_R   0.632160 0.500050 0.614660 -0.620439
O8    O     O_R   0.632150 0.500010 0.385320 -0.620015
Zn1   Zn    Zn3+2 0.500010 0.500020 0.653130 0.997834
Zn2   Zn    Zn3+2 0.499990 0.499980 0.346870 0.982633
C35   C     C_1   0.338945 0.845245 0.754078 0.154605
N3    N     N_1   0.276244 0.785026 0.779422 -0.204875
F1    F     F_    0.493938 0.884587 0.797783 -0.642484
C36   C     C_1   0.314901 0.108737 0.729927 0.197263
N4    N     N_1   0.241279 0.141711 0.738004 -0.147842
C37   C     C_1   0.649356 0.597923 0.866203 0.297471
N5    N     N_1   0.711533 0.644617 0.817159 -0.186903
C38   C     C_1   0.271751 0.403643 0.867876 0.306464
N6    N     N_1   0.201740 0.430377 0.824243 -0.182738
F2    F     F_    0.762949 0.279223 0.457511 -0.685676
C39   C     C_1   0.085208 0.149259 0.434129 0.322364
N7    N     N_1   0.118325 0.053128 0.416791 -0.183826
F3    F     F_    0.236533 0.280468 0.450979 -0.687172
C40   C     C_1   0.913304 0.840460 0.571108 0.171497
N8    N     N_1   0.878714 0.935207 0.590251 -0.169067

loop_
_geom_bond_atom_site_label_1
_geom_bond_atom_site_label_2
_ccdc_geom_bond_type
C16   H11   S    
C12   O3    A    
C11   C12   S    
C28   H7    S    
C23   O6    A    
C6    C7    A    
C27   C38   S    
C17   H2    S    
C20   F1    S    
C29   O8    A    
C25   N2    A    
C24   H4    S    
C19   C20   S    
C13   H9    S    
C30   C31   A    
C2    C30   A    
C24   N1    A    
C32   C33   A    
C2    C34   A    
C17   C18   A    
C23   O5    A    
C21   H3    S    
C40   N8    T    
C29   C31   S    
C22   C28   S    
C24   C25   A    
C38   N6    T    
C4    C5    A    
C11   C13   A    
C26   C27   S    
C5    C6    A    
C6    C34   A    
C1    O2    A    
C30   H1    S    
C32   F2    S    
C1    C15   S    
C15   C16   A    
C10   F3    S    
C14   C21   S    
C5    C10   A    
C22   N1    A    
C33   C34   A    
O8    Zn2   S    
N1    Zn2   S    
C22   C26   A    
C36   N4    T    
O7    Zn1   S    
C1    O1    A    
C16   C17   A    
C29   O7    A    
C28   H6    S    
C20   C35   S    
C18   C23   S    
O5    Zn1   S    
O4    Zn2   S    
C7    C13   A    
C3    H8    S    
O2    Zn2   S    
C20   C21   S    
C12   O4    A    
C9    C40   S    
C18   C19   A    
C10   C11   A    
C27   C28   S    
O1    Zn1   S    
C7    C8    A    
C3    C33   A    
C14   C15   A    
N2    Zn1   S    
C4    C39   S    
C25   C37   S    
C26   N2    A    
C35   N3    T    
C37   N5    T    
C2    C9    A    
C21   C36   S    
C14   C19   A    
C39   N7    T    
C31   C32   A    
O3    Zn1   S    
C3    C4    A    
C8    H10   S    
C27   H5    S    
C8    C9    A    
O6    Zn2   S    
