data_mof_unit_14850.cif
_audit_creation_date              2012-12-11T14:07:21-0500
_audit_creation_method            fapswitch 2.2
_symmetry_space_group_name_H-M    P1
_symmetry_Int_Tables_number       1
_space_group_crystal_system       triclinic
_cell_length_a                    19.705394
_cell_length_b                    16.999342
_cell_length_c                    15.350866
_cell_angle_alpha                 90.008744
_cell_angle_beta                  53.335313
_cell_angle_gamma                 89.947042
_cell_volume                      4124.7915542

loop_
_atom_site_label
_atom_site_type_symbol
_atom_type_description
_atom_site_fract_x
_atom_site_fract_y
_atom_site_fract_z
_atom_type_partial_charge
C1    C     C_R   0.376251 0.198253 0.993766 -0.124066
C2    C     C_R   0.714694 0.856732 0.972341 0.086224
C3    C     C_R   0.146563 0.685686 0.078127 0.089488
C4    C     C_R   0.214691 0.356729 0.972338 0.086240
C5    C     C_R   0.614511 0.818005 0.692498 0.001842
C6    C     C_R   0.691147 0.137721 0.677534 0.080756
C7    C     C_R   0.114485 0.317996 0.692511 0.001811
C8    C     C_R   0.191148 0.637719 0.677534 0.080754
C9    C     C_3   0.189817 0.128034 0.521127 -0.463894
C10   C     C_3   0.250681 0.794584 0.466453 -0.430326
C11   C     C_3   0.689759 0.628053 0.521102 -0.463859
C12   C     C_R   0.340843 0.824164 0.048497 -0.106490
C13   C     C_3   0.750681 0.294579 0.466444 -0.430309
C14   C     C_3   0.130248 0.180028 0.623020 -0.147967
C15   C     C_3   0.194355 0.746397 0.570332 -0.171582
C16   C     C_3   0.630200 0.680055 0.622993 -0.147987
C17   C     C_3   0.694352 0.246386 0.570317 -0.171575
C18   C     C_3   0.305878 0.230989 0.437360 -0.367160
C19   C     C_3   0.376889 0.770248 0.468043 -0.400010
C20   C     C_3   0.805891 0.730932 0.437404 -0.367156
C21   C     C_3   0.876884 0.270257 0.468052 -0.399976
C22   C     C_3   0.688019 0.736906 0.413508 -0.467371
C23   C     C_R   0.876258 0.698256 0.993761 -0.124093
C24   C     C_3   0.845857 0.176477 0.369379 -0.483069
C25   C     C_3   0.187947 0.236826 0.413560 -0.467290
C26   C     C_3   0.345844 0.676478 0.369378 -0.483040
C27   C     C_3   0.247719 0.181761 0.420655 0.307107
C28   C     C_3   0.342959 0.764217 0.399289 0.295482
C29   C     C_3   0.747725 0.681772 0.420644 0.307116
C30   C     C_3   0.842962 0.264217 0.399289 0.295471
C31   C     C_3   0.659037 0.768275 0.594534 0.169693
C32   C     C_3   0.748449 0.181415 0.575481 0.140009
C33   C     C_3   0.159016 0.268265 0.594544 0.169672
C34   C     C_R   0.840843 0.324164 0.048496 -0.106485
C35   C     C_3   0.248449 0.681414 0.575481 0.140044
C36   C     C_3   0.753681 0.771854 0.547222 -0.344410
C37   C     C_3   0.819721 0.222711 0.573689 -0.369965
C38   C     C_3   0.253671 0.271917 0.547175 -0.344365
C39   C     C_3   0.319734 0.722693 0.573675 -0.369949
C40   C     C_R   0.399196 0.800437 0.207727 -0.145499
C41   C     C_R   0.349152 0.170730 0.217767 -0.127775
C42   C     C_R   0.899197 0.300436 0.207727 -0.145503
C43   C     C_R   0.849152 0.670728 0.217760 -0.127722
C44   C     C_3   0.648827 0.798005 0.505388 0.337220
C45   C     C_R   0.672169 0.919978 0.044479 -0.121773
C46   C     C_3   0.790806 0.126989 0.472991 0.379703
C47   C     C_3   0.148740 0.297938 0.505432 0.337186
C48   C     C_3   0.290788 0.626992 0.472990 0.379645
C49   C     C_2   0.180524 0.745759 0.110450 0.030580
C50   C     C_2   0.295133 0.322250 0.938669 0.036029
C51   C     C_2   0.680524 0.245760 0.110449 0.030581
C52   C     C_2   0.795149 0.822275 0.938666 0.036068
C53   C     C_2   0.713538 0.311382 0.048868 -0.247778
C54   C     C_2   0.813374 0.747933 0.899953 -0.257555
C55   C     C_2   0.213534 0.811385 0.048876 -0.247760
C56   C     C_R   0.630726 0.106408 0.108465 -0.141093
C57   C     C_2   0.313308 0.247893 0.900028 -0.257596
C58   C     C_R   0.329060 0.913378 0.953032 -0.153221
C59   C     C_R   0.367868 0.112290 0.893929 -0.149391
C60   C     C_R   0.829061 0.413379 0.953031 -0.153223
C61   C     C_R   0.867879 0.612300 0.893917 -0.149379
C62   C     C_R   0.355987 0.076888 0.313831 -0.140763
C63   C     C_R   0.407489 0.892074 0.303773 -0.148347
C64   C     C_R   0.855981 0.576888 0.313829 -0.140777
C65   C     C_R   0.907490 0.392075 0.303773 -0.148338
C66   C     C_R   0.351317 0.189467 0.928017 0.153743
C67   C     C_R   0.172170 0.419973 0.044481 -0.121763
C68   C     C_R   0.287141 0.851894 0.026278 0.155935
C69   C     C_R   0.851331 0.689481 0.928002 0.153726
C70   C     C_R   0.787142 0.351894 0.026276 0.155935
C71   C     C_R   0.390514 0.814003 0.302409 0.046889
C72   C     C_R   0.305496 0.136820 0.320125 0.040027
C73   C     C_R   0.890517 0.314003 0.302408 0.046894
C74   C     C_R   0.805495 0.636824 0.320119 0.040016
C75   C     C_R   0.620795 0.200644 0.014088 -0.136222
C76   C     C_R   0.662210 0.824386 0.949585 -0.120058
C77   C     C_R   0.120796 0.700644 0.014088 -0.136215
C78   C     C_R   0.130727 0.606407 0.108463 -0.141093
C79   C     C_R   0.162211 0.324395 0.949570 -0.120073
C80   C     C_R   0.605277 0.802105 0.787532 -0.139064
C81   C     C_R   0.650190 0.171523 0.780120 -0.143863
C82   C     C_R   0.105262 0.302102 0.787539 -0.139041
C83   C     C_R   0.150191 0.671521 0.780120 -0.143868
C84   C     C_R   0.641806 0.076278 0.685579 -0.091513
C85   C     C_R   0.591873 0.894710 0.696476 -0.060381
C86   C     C_R   0.141806 0.576277 0.685580 -0.091521
C87   C     C_R   0.091864 0.394707 0.696480 -0.060462
C88   C     C_1   0.540900 0.670046 0.665349 0.057624
C89   C     C_R   0.646562 0.185687 0.078128 0.089493
C90   C     C_1   0.621255 0.214746 0.577175 0.068629
C91   C     C_1   0.040941 0.169947 0.665432 0.057611
C92   C     C_1   0.121240 0.714775 0.577220 0.068651
C93   C     C_1   0.182726 0.730063 0.201512 0.054464
C94   C     C_1   0.347917 0.366904 0.957287 0.052539
C95   C     C_1   0.682720 0.230071 0.201516 0.054457
C96   C     C_1   0.847847 0.866914 0.957458 0.052442
Cl1   Cl    Cl    0.699823 0.891359 0.445003 -0.705088
Cl2   Cl    Cl    0.851290 0.048587 0.474527 -0.648779
Cl3   Cl    Cl    0.199667 0.391307 0.445005 -0.705173
Cl4   Cl    Cl    0.351259 0.548570 0.474513 -0.648902
H1    H     H_    0.382759 0.252099 0.024813 0.106650
H2    H     H_    0.167877 0.786974 0.640689 0.135386
H3    H     H_    0.635311 0.658829 0.687303 0.119685
H4    H     H_    0.667853 0.286962 0.640680 0.135391
H5    H     H_    0.353968 0.193374 0.433358 0.152105
H6    H     H_    0.377924 0.832257 0.490017 0.150922
H7    H     H_    0.853938 0.693272 0.433436 0.152085
H8    H     H_    0.877919 0.332269 0.490019 0.150925
H9    H     H_    0.764120 0.742136 0.603024 0.145081
H10   H     H_    0.792390 0.263643 0.643625 0.142473
H11   H     H_    0.264161 0.242239 0.602953 0.145110
H12   H     H_    0.334719 0.772559 0.093137 0.104999
H13   H     H_    0.292417 0.763616 0.643617 0.142473
H14   H     H_    0.719840 0.767713 0.334901 0.198419
H15   H     H_    0.912510 0.155338 0.317888 0.208922
H16   H     H_    0.219721 0.267614 0.334944 0.198405
H17   H     H_    0.412494 0.655334 0.317889 0.208919
H18   H     H_    0.636975 0.701570 0.421625 0.147840
H19   H     H_    0.820539 0.169096 0.321690 0.147061
H20   H     H_    0.136910 0.201440 0.421726 0.147854
H21   H     H_    0.320526 0.669103 0.321689 0.147057
H22   H     H_    0.580645 0.805093 0.541481 0.060756
H23   H     H_    0.882784 0.752097 0.024798 0.106668
H24   H     H_    0.741849 0.098724 0.469227 0.094811
H25   H     H_    0.080545 0.304979 0.541566 0.060798
H26   H     H_    0.241820 0.598743 0.469233 0.094778
H27   H     H_    0.340923 0.275780 0.371829 0.213974
H28   H     H_    0.442868 0.747517 0.420687 0.180210
H29   H     H_    0.840986 0.775720 0.371881 0.213979
H30   H     H_    0.942862 0.247524 0.420706 0.180227
H31   H     H_    0.398422 0.744392 0.175245 0.098636
H32   H     H_    0.333135 0.222827 0.194060 0.104968
H33   H     H_    0.898421 0.244392 0.175247 0.098641
H34   H     H_    0.834718 0.272558 0.093137 0.104999
H35   H     H_    0.833136 0.722817 0.194038 0.104944
H36   H     H_    0.775986 0.833585 0.537806 0.238946
H37   H     H_    0.858157 0.178914 0.580717 0.216581
H38   H     H_    0.275935 0.333666 0.537738 0.238962
H39   H     H_    0.358173 0.678886 0.580681 0.216596
H40   H     H_    0.701059 0.326388 0.991144 0.121541
H41   H     H_    0.782470 0.721520 0.868069 0.122329
H42   H     H_    0.201047 0.826397 0.991160 0.121538
H43   H     H_    0.282334 0.221450 0.868264 0.122337
H44   H     H_    0.307745 0.947488 0.914083 0.101801
H45   H     H_    0.153807 0.086920 0.506119 0.178442
H46   H     H_    0.364463 0.086280 0.832306 0.096945
H47   H     H_    0.807747 0.447488 0.914081 0.101806
H48   H     H_    0.864488 0.586297 0.832279 0.096949
H49   H     H_    0.345128 0.041445 0.379331 0.094060
H50   H     H_    0.412095 0.922132 0.362055 0.089493
H51   H     H_    0.845117 0.541447 0.379334 0.094059
H52   H     H_    0.912096 0.422134 0.362054 0.089506
H53   H     H_    0.610328 0.257103 0.991641 0.092276
H54   H     H_    0.674082 0.775829 0.897172 0.090766
H55   H     H_    0.110329 0.757102 0.991640 0.092279
H56   H     H_    0.227441 0.792772 0.415636 0.180730
H57   H     H_    0.174089 0.275853 0.897134 0.090774
H58   H     H_    0.610102 0.745522 0.815416 0.085453
H59   H     H_    0.668281 0.223428 0.802251 0.093929
H60   H     H_    0.110081 0.245520 0.815432 0.085451
H61   H     H_    0.168284 0.723426 0.802250 0.093928
H62   H     H_    0.651316 0.039763 0.621823 0.141154
H63   H     H_    0.577920 0.923390 0.646218 0.136063
H64   H     H_    0.151316 0.539759 0.621824 0.141143
H65   H     H_    0.077906 0.423387 0.646228 0.136167
H66   H     H_    0.695171 0.955985 0.079752 0.113788
H67   H     H_    0.653738 0.586988 0.506057 0.178451
H68   H     H_    0.633271 0.079466 0.170286 0.108223
H69   H     H_    0.195171 0.455973 0.079759 0.113788
H70   H     H_    0.133272 0.579464 0.170283 0.108238
H71   H     H_    0.228692 0.091184 0.535832 0.151013
H72   H     H_    0.247957 0.857414 0.489121 0.156016
H73   H     H_    0.728586 0.591152 0.535833 0.151017
H74   H     H_    0.747951 0.357409 0.489119 0.156013
H75   H     H_    0.727449 0.292767 0.415618 0.180728
H76   H     H_    0.135408 0.158837 0.687301 0.119671
N1    N     N_R   0.408680 0.130160 0.995800 -0.045927
N2    N     N_R   0.403730 0.078230 0.935950 -0.041791
N3    N     N_R   0.903730 0.421770 0.935950 -0.047033
N4    N     N_R   0.903730 0.578230 0.935950 -0.041791
N5    N     N_R   0.426630 0.075970 0.212960 -0.039350
N6    N     N_R   0.426630 0.924030 0.212960 -0.034244
N7    N     N_R   0.926630 0.575970 0.212960 -0.039350
N8    N     N_R   0.926630 0.424030 0.212960 -0.034245
N9    N     N_R   0.591320 0.134600 0.004200 -0.038489
N10   N     N_R   0.591320 0.865400 0.004200 -0.043442
N11   N     N_R   0.091320 0.634600 0.004200 -0.038491
N12   N     N_R   0.408680 0.869840 0.995800 -0.049792
N13   N     N_R   0.091320 0.365400 0.004200 -0.043444
N14   N     N_R   0.578320 0.867660 0.846880 -0.035305
N15   N     N_R   0.578320 0.132340 0.846880 -0.041065
N16   N     N_R   0.078320 0.367660 0.846880 -0.035308
N17   N     N_R   0.078320 0.632340 0.846880 -0.041064
N18   N     N_R   0.573370 0.074390 0.787040 -0.050773
N19   N     N_R   0.573370 0.925610 0.787040 -0.045088
N20   N     N_R   0.073370 0.574390 0.787040 -0.050771
N21   N     N_R   0.073370 0.425610 0.787040 -0.045090
N22   N     N_R   0.596270 0.927870 0.064040 -0.043139
N23   N     N_R   0.908680 0.630160 0.995800 -0.045930
N24   N     N_R   0.596270 0.072130 0.064040 -0.040473
N25   N     N_R   0.096270 0.427870 0.064040 -0.043137
N26   N     N_R   0.096270 0.572130 0.064040 -0.040474
N27   N     N_1   0.470931 0.662310 0.698537 -0.080667
N28   N     N_1   0.564105 0.190109 0.582596 -0.080081
N29   N     N_1   0.970968 0.162152 0.698666 -0.080629
N30   N     N_1   0.064074 0.690152 0.582667 -0.080074
N31   N     N_1   0.184052 0.717364 0.274572 -0.096934
N32   N     N_1   0.389969 0.403219 0.971857 -0.090821
N33   N     N_1   0.684041 0.217378 0.274581 -0.096936
N34   N     N_R   0.908680 0.369840 0.995800 -0.049790
N35   N     N_1   0.889817 0.903218 0.972195 -0.090787
N36   N     N_R   0.421680 0.867580 0.153120 -0.037595
N37   N     N_R   0.421680 0.132420 0.153120 -0.041322
N38   N     N_R   0.921680 0.367580 0.153120 -0.037597
N39   N     N_R   0.921680 0.632420 0.153120 -0.041328
N40   N     N_R   0.403730 0.921770 0.935950 -0.047036
Ni1   Ni    Ni4+2 0.500000 0.131190 0.000000 0.218837
Ni2   Ni    Ni4+2 0.500000 0.868810 0.000000 0.215693
Ni3   Ni    Ni4+2 0.000000 0.631190 0.000000 0.218836
Ni4   Ni    Ni4+2 0.000000 0.368810 0.000000 0.215692
Ni5   Ni    Ni4+2 0.488650 0.000000 0.862740 0.217391
Ni6   Ni    Ni4+2 0.988650 0.500000 0.862740 0.217396
Ni7   Ni    Ni4+2 0.511350 1.000000 0.137260 0.219407
Ni8   Ni    Ni4+2 0.011350 0.500000 0.137260 0.219420

loop_
_geom_bond_atom_site_label_1
_geom_bond_atom_site_label_2
_ccdc_geom_bond_type
C6    C32   S    
C81   H59   S    
C62   H49   S    
N5    Ni7   S    
C8    C83   A    
C23   C69   A    
C13   H75   S    
C26   H17   S    
C20   H29   S    
C43   N39   A    
N15   Ni1   S    
C14   C33   S    
C55   C68   S    
C3    C49   S    
C65   C73   A    
N11   Ni3   S    
C67   H69   S    
C16   C31   S    
N10   Ni2   S    
N11   N26   A    
N6    Ni7   S    
C22   C29   S    
N9    Ni1   S    
C42   H33   S    
C42   N38   A    
C40   C71   A    
C61   H48   S    
C96   N35   T    
C10   C15   S    
C59   C66   A    
C5    C31   S    
C35   C48   S    
C61   C69   A    
C12   N12   A    
C58   N40   A    
C23   N23   A    
C19   H28   S    
C78   H70   S    
C53   H40   S    
C47   Cl3   S    
N17   Ni3   S    
C11   C16   S    
C44   H22   S    
N40   Ni5   S    
C81   N15   A    
C14   H76   S    
C34   N34   A    
C86   N20   A    
C15   C92   S    
C64   N7    A    
C1    N1    A    
C92   N30   T    
C7    C87   A    
C84   N18   A    
N7    Ni8   S    
C39   H13   S    
N2    Ni5   S    
N4    Ni6   S    
C60   H47   S    
C45   H66   S    
C57   C66   S    
N13   Ni4   S    
C26   C48   S    
C20   H7    S    
C5    C85   A    
C43   C74   A    
C46   Cl2   S    
C88   N27   T    
C63   N6    A    
C37   H37   S    
C11   H67   S    
C7    C33   S    
C46   H24   S    
C75   N9    A    
C80   N14   A    
N20   Ni6   S    
C53   C70   S    
C36   H36   S    
C15   C35   S    
C91   N29   T    
C52   C54   D    
C47   H25   S    
C90   N28   T    
C20   C29   S    
C2    C45   A    
N7    N39   A    
C13   H74   S    
C48   Cl4   S    
C22   C44   S    
C11   H73   S    
C6    C84   A    
C31   C44   S    
C57   H43   S    
C64   H51   S    
C62   C72   A    
C95   N33   T    
N26   Ni8   S    
C13   C30   S    
N23   Ni3   S    
C4    C79   A    
N21   Ni6   S    
N34   Ni4   S    
C10   H56   S    
N19   Ni5   S    
C30   C73   S    
N37   Ni1   S    
C85   N19   A    
C76   N10   A    
C23   H23   S    
C29   C74   S    
N3    Ni6   S    
N13   N25   A    
C45   N22   A    
N16   N21   A    
C4    C50   S    
C60   N3    A    
C8    C35   S    
C83   N17   A    
C35   C39   S    
C9    C14   S    
C59   H46   S    
C63   H50   S    
C67   N25   A    
N39   Ni3   S    
C18   H27   S    
C41   H32   S    
C82   H60   S    
C44   Cl1   S    
C75   H53   S    
C16   H3    S    
C80   H58   S    
N3    N34   A    
C60   C70   A    
N14   Ni2   S    
N17   N20   A    
C49   C55   D    
C56   H68   S    
N6    N36   A    
C1    C66   A    
C38   H38   S    
C94   N32   T    
C32   C37   S    
C5    C80   A    
C43   H35   S    
C19   C28   S    
C87   N21   A    
C37   H10   S    
C19   C39   S    
N14   N19   A    
C24   H15   S    
N18   Ni5   S    
C58   C68   A    
C56   C89   A    
C26   H21   S    
C40   H31   S    
C63   C71   A    
N12   N40   A    
C77   N11   A    
C14   C91   S    
C25   H16   S    
C28   C71   S    
C86   H64   S    
N16   Ni4   S    
C93   N31   T    
C25   H20   S    
C1    H1    S    
C12   H12   S    
C2    C76   A    
C9    C27   S    
C41   C72   A    
C16   C88   S    
C10   C28   S    
N8    Ni8   S    
C34   C70   A    
C25   C47   S    
C24   H19   S    
C64   C74   A    
C82   N16   A    
N24   Ni7   S    
C32   C46   S    
C17   H4    S    
C59   N2    A    
C50   C94   S    
C18   C27   S    
C78   N26   A    
N1    Ni1   S    
C79   H57   S    
C4    C67   A    
N12   Ni2   S    
C25   C27   S    
C21   C30   S    
C40   N36   A    
C49   C93   S    
C26   C28   S    
C33   C38   S    
C2    C52   S    
C13   C17   S    
C24   C46   S    
C12   C68   A    
C65   H52   S    
N22   Ni7   S    
C18   C38   S    
C18   H5    S    
N4    N23   A    
N38   Ni4   S    
C51   C89   S    
C62   N5    A    
C17   C90   S    
C50   C57   D    
C87   H65   S    
C54   C69   S    
N36   Ni2   S    
C85   H63   S    
C9    H45   S    
C42   C73   A    
C76   H54   S    
C52   C96   S    
C8    C86   A    
N9    N24   A    
C83   H61   S    
C15   H2    S    
C24   C30   S    
C21   H30   S    
N15   N18   A    
C21   H8    S    
C9    H71   S    
C41   N37   A    
C75   C89   A    
C48   H26   S    
C20   C36   S    
C19   H6    S    
C58   H44   S    
N8    N38   A    
C22   H14   S    
C7    C82   A    
C21   C37   S    
C11   C29   S    
C61   N4    A    
N1    N2    A    
C79   N13   A    
C84   H62   S    
C36   H9    S    
C6    C81   A    
C17   C32   S    
C34   H34   S    
C31   C36   S    
N10   N22   A    
C22   H18   S    
N5    N37   A    
N25   Ni8   S    
C51   C53   D    
C38   H11   S    
C33   C47   S    
C3    C78   A    
C10   H72   S    
C54   H41   S    
C39   H39   S    
C77   H55   S    
C27   C72   S    
C3    C77   A    
C51   C95   S    
C56   N24   A    
C65   N8    A    
C55   H42   S    
