data_mof_unit_10818.cif
_audit_creation_date              2012-10-26T18:20:26-0400
_audit_creation_method            fapswitch 2.2
_symmetry_space_group_name_H-M    P1
_symmetry_Int_Tables_number       1
_space_group_crystal_system       triclinic
_cell_length_a                    18.345087
_cell_length_b                    18.346035
_cell_length_c                    30.418718
_cell_angle_alpha                 89.948259
_cell_angle_beta                  89.93286
_cell_angle_gamma                 89.979837
_cell_volume                      10237.6999779

loop_
_atom_site_label
_atom_site_type_symbol
_atom_type_description
_atom_site_fract_x
_atom_site_fract_y
_atom_site_fract_z
_atom_type_partial_charge
C1    C     C_R   0.139914 0.499974 0.000068 0.548718
C2    C     C_1   0.499970 0.217484 0.000031 -0.083384
C3    C     C_R   0.099424 0.589460 0.770466 0.041088
C4    C     C_R   0.413550 0.898926 0.228682 0.042022
C5    C     C_R   0.898852 0.586355 0.228599 0.042024
C6    C     C_R   0.586145 0.101314 0.228446 0.042040
C7    C     C_R   0.101231 0.413603 0.228534 0.042042
C8    C     C_3   0.903415 0.681201 0.288456 -0.270962
C9    C     C_3   0.921917 0.739800 0.254342 -0.450742
C10   C     C_3   0.318776 0.903405 0.288707 -0.270955
C11   C     C_3   0.260112 0.921910 0.254702 -0.450729
C12   C     C_3   0.096831 0.318879 0.288575 -0.270947
C13   C     C_1   0.782512 0.500073 0.000134 -0.086735
C14   C     C_3   0.078316 0.260203 0.254601 -0.450780
C15   C     C_3   0.680976 0.096816 0.288305 -0.270973
C16   C     C_3   0.739607 0.078325 0.254212 -0.450769
C17   C     C_3   0.817378 0.395578 0.705407 -0.265150
C18   C     C_3   0.768923 0.446124 0.678048 -0.440343
C19   C     C_3   0.318705 0.096375 0.711617 -0.271154
C20   C     C_3   0.260158 0.077820 0.745760 -0.451168
C21   C     C_3   0.098772 0.686297 0.711464 -0.270542
C22   C     C_3   0.084297 0.744888 0.746223 -0.450881
C23   C     C_3   0.681053 0.902968 0.711393 -0.271010
C24   C     C_1   0.500023 0.782516 0.999970 -0.083484
C25   C     C_3   0.739751 0.921330 0.745379 -0.450829
C26   C     C_3   0.398285 0.179395 0.785583 -0.267273
C27   C     C_3   0.468959 0.220442 0.795168 -0.438991
C28   C     C_3   0.798890 0.457505 0.795647 -0.268753
C29   C     C_3   0.786865 0.532792 0.816172 -0.436406
C30   C     C_3   0.601581 0.820343 0.785738 -0.267355
C31   C     C_3   0.530894 0.779392 0.795577 -0.439146
C32   C     C_3   0.178891 0.599850 0.783859 -0.267271
C33   C     C_3   0.216360 0.526642 0.791887 -0.439572
C34   C     C_3   0.398294 0.820624 0.214496 -0.267225
C35   C     C_1   0.717485 0.999980 0.500042 -0.084595
C36   C     C_3   0.468998 0.779626 0.204741 -0.439036
C37   C     C_3   0.820531 0.601651 0.214432 -0.267237
C38   C     C_3   0.779528 0.530971 0.204798 -0.439075
C39   C     C_3   0.601379 0.179619 0.214153 -0.267244
C40   C     C_3   0.530666 0.220590 0.204435 -0.439050
C41   C     C_3   0.179516 0.398276 0.214214 -0.267240
C42   C     C_3   0.220502 0.468935 0.204362 -0.439013
C43   C     C_R   0.105286 0.412083 0.366849 0.045760
C44   C     C_R   0.088188 0.354885 0.395908 -0.070466
C45   C     C_R   0.143808 0.316978 0.417471 -0.091154
C46   C     C_1   0.999883 0.717488 0.499925 -0.084816
C47   C     C_R   0.216601 0.336347 0.410625 -0.108633
C48   C     C_R   0.233980 0.393498 0.382073 -0.126531
C49   C     C_R   0.178617 0.431287 0.360221 -0.087563
C50   C     C_R   0.587888 0.105192 0.366746 0.045421
C51   C     C_R   0.645111 0.088019 0.395707 -0.069825
C52   C     C_R   0.683081 0.143587 0.417212 -0.090470
C53   C     C_R   0.663750 0.216401 0.410406 -0.108847
C54   C     C_R   0.606563 0.233854 0.381960 -0.126406
C55   C     C_R   0.568709 0.178543 0.360167 -0.087439
C56   C     C_R   0.894966 0.588090 0.366878 0.045919
C57   C     C_1   0.282515 0.000027 0.499957 -0.084446
C58   C     C_R   0.912097 0.645301 0.395833 -0.069313
C59   C     C_R   0.856496 0.683281 0.417404 -0.090339
C60   C     C_R   0.783691 0.663968 0.410673 -0.109312
C61   C     C_R   0.766278 0.606797 0.382231 -0.126821
C62   C     C_R   0.821622 0.568936 0.360370 -0.087349
C63   C     C_R   0.412008 0.894893 0.366968 0.045511
C64   C     C_R   0.354772 0.911952 0.396003 -0.069700
C65   C     C_R   0.316897 0.856307 0.417613 -0.090454
C66   C     C_R   0.336345 0.783528 0.410842 -0.108994
C67   C     C_R   0.393541 0.766188 0.382316 -0.126420
C68   C     C_1   0.000011 0.282514 0.500063 -0.062483
C69   C     C_R   0.431293 0.821576 0.360414 -0.087375
C70   C     C_R   0.098860 0.595050 0.632114 0.043675
C71   C     C_R   0.082013 0.652738 0.603449 -0.074684
C72   C     C_R   0.137809 0.689829 0.581454 -0.090388
C73   C     C_R   0.210364 0.668701 0.587214 -0.106677
C74   C     C_R   0.227384 0.610648 0.615154 -0.125068
C75   C     C_R   0.171910 0.573869 0.637567 -0.084422
C76   C     C_R   0.587902 0.894677 0.633117 0.045531
C77   C     C_R   0.645144 0.911761 0.604080 -0.069790
C78   C     C_R   0.683072 0.856135 0.582523 -0.090487
C79   C     C_R   0.999993 0.499972 0.085685 0.547544
C80   C     C_R   0.663679 0.783350 0.589351 -0.109040
C81   C     C_R   0.606478 0.765984 0.617878 -0.126464
C82   C     C_R   0.568666 0.821353 0.639723 -0.087390
C83   C     C_R   0.938415 0.382641 0.638162 0.024580
C84   C     C_R   0.981326 0.323420 0.651975 -0.108733
C85   C     C_R   0.969800 0.253892 0.634548 -0.116780
C86   C     C_R   0.915295 0.242770 0.603253 -0.106525
C87   C     C_R   0.872621 0.301236 0.589042 -0.116726
C88   C     C_R   0.884080 0.370924 0.606238 -0.068087
C89   C     C_R   0.411729 0.104854 0.633143 0.045543
C90   C     C_R   0.499964 0.000024 0.085684 0.547290
C91   C     C_R   0.354532 0.087578 0.604213 -0.070169
C92   C     C_R   0.316371 0.143080 0.582682 -0.090887
C93   C     C_R   0.335498 0.215931 0.589417 -0.109091
C94   C     C_R   0.392666 0.233488 0.617826 -0.126491
C95   C     C_R   0.430701 0.178243 0.639653 -0.087184
C96   C     C_R   0.604288 0.911860 0.867420 0.053759
C97   C     C_R   0.586021 0.852576 0.894624 -0.064331
C98   C     C_R   0.640644 0.814442 0.916961 -0.092506
C99   C     C_R   0.713439 0.835869 0.912906 -0.110061
C100  C     C_R   0.731834 0.895456 0.886470 -0.129183
C101  C     C_R   0.000419 0.500151 0.914168 0.543203
C102  C     C_R   0.677518 0.933495 0.863837 -0.090635
C103  C     C_R   0.091594 0.602504 0.867476 0.053510
C104  C     C_R   0.150982 0.580341 0.893431 -0.068296
C105  C     C_R   0.192702 0.632240 0.915754 -0.093759
C106  C     C_R   0.174521 0.706090 0.913161 -0.107961
C107  C     C_R   0.114711 0.728331 0.888097 -0.128785
C108  C     C_R   0.073285 0.676815 0.865327 -0.089932
C109  C     C_R   0.395907 0.088168 0.867465 0.053759
C110  C     C_R   0.414240 0.147487 0.894534 -0.064538
C111  C     C_R   0.359681 0.185582 0.916986 -0.092233
C112  C     C_R   0.499989 0.139916 0.000007 0.546876
C113  C     C_R   0.500035 0.999997 0.914316 0.547311
C114  C     C_R   0.286890 0.164077 0.913185 -0.109455
C115  C     C_R   0.268433 0.104459 0.886880 -0.128935
C116  C     C_R   0.322682 0.066462 0.864131 -0.090613
C117  C     C_R   0.906097 0.401158 0.864192 0.046116
C118  C     C_R   0.854718 0.415844 0.897389 -0.056805
C119  C     C_R   0.815171 0.358942 0.916598 -0.095014
C120  C     C_R   0.826821 0.287130 0.903067 -0.113994
C121  C     C_R   0.877778 0.272065 0.870133 -0.124568
C122  C     C_R   0.917153 0.328788 0.850656 -0.093418
C123  C     C_R   0.604120 0.088131 0.132460 0.053766
C124  C     C_R   0.499998 0.999965 0.585675 0.546943
C125  C     C_R   0.585891 0.147435 0.105280 -0.064360
C126  C     C_R   0.640537 0.185475 0.082852 -0.092146
C127  C     C_R   0.713315 0.163932 0.086793 -0.109633
C128  C     C_R   0.731671 0.104327 0.113209 -0.129121
C129  C     C_R   0.677333 0.066384 0.135932 -0.090544
C130  C     C_R   0.087946 0.395574 0.132568 0.053694
C131  C     C_R   0.147243 0.413716 0.105335 -0.064330
C132  C     C_R   0.185227 0.359018 0.082960 -0.092178
C133  C     C_R   0.163647 0.286272 0.087012 -0.109708
C134  C     C_R   0.104060 0.268000 0.113489 -0.129058
C135  C     C_R   0.999780 0.499763 0.585778 0.560942
C136  C     C_R   0.066167 0.322391 0.136156 -0.090602
C137  C     C_R   0.395679 0.912024 0.132674 0.053666
C138  C     C_R   0.413981 0.852742 0.105531 -0.064369
C139  C     C_R   0.359396 0.814706 0.083168 -0.092155
C140  C     C_R   0.286601 0.836216 0.087145 -0.109739
C141  C     C_R   0.268170 0.895786 0.113532 -0.129143
C142  C     C_R   0.322450 0.933735 0.136185 -0.090641
C143  C     C_R   0.911895 0.604189 0.132578 0.053705
C144  C     C_R   0.852588 0.585937 0.105484 -0.064274
C145  C     C_R   0.814535 0.640552 0.083073 -0.092087
C146  C     C_R   0.499970 0.000025 0.414324 0.546898
C147  C     C_R   0.836059 0.713325 0.086948 -0.109855
C148  C     C_R   0.895659 0.731705 0.113283 -0.129148
C149  C     C_R   0.933621 0.677397 0.135986 -0.090510
C150  C     C_R   0.000036 0.500017 0.414324 0.547952
C151  C     C_1   0.282831 0.499860 0.000113 -0.077429
C152  C     C_1   0.499975 0.282828 0.000041 -0.076113
C153  C     C_1   0.717169 0.500064 0.000009 -0.075633
C154  C     C_1   0.500016 0.717172 0.999960 -0.076237
C155  C     C_1   0.782830 0.999991 0.500055 -0.075477
C156  C     C_R   0.860086 0.500024 0.000242 0.541791
C157  C     C_1   0.999871 0.782832 0.499985 -0.076325
C158  C     C_1   0.217171 0.000022 0.499946 -0.074911
C159  C     C_1   0.000035 0.217170 0.499975 -0.068121
C160  C     C_R   0.499992 0.360416 0.000016 0.555021
C161  C     C_R   0.639583 0.500024 0.999987 0.555384
C162  C     C_R   0.500004 0.639584 0.999984 0.554834
C163  C     C_R   0.360417 0.499936 0.000029 0.554606
C164  C     C_R   0.999945 0.860417 0.500008 0.555357
C165  C     C_R   0.139583 0.000008 0.499980 0.555773
C166  C     C_R   0.000021 0.139584 0.499986 0.552005
C167  C     C_R   0.500009 0.860084 0.999993 0.546827
C168  C     C_R   0.860417 0.000007 0.500021 0.554565
C169  C     C_R   0.046794 0.452023 0.342818 -0.051065
C170  C     C_R   0.547914 0.046755 0.342756 -0.051042
C171  C     C_R   0.953439 0.548098 0.342821 -0.051015
C172  C     C_R   0.451898 0.953410 0.342875 -0.051040
C173  C     C_R   0.040305 0.556247 0.656643 -0.054435
C174  C     C_R   0.547974 0.953171 0.657167 -0.051110
C175  C     C_R   0.951887 0.455689 0.657970 -0.037103
C176  C     C_R   0.451854 0.046483 0.657194 -0.051025
C177  C     C_R   0.547127 0.952256 0.842836 -0.048099
C178  C     C_R   0.639915 0.999991 0.500010 0.544350
C179  C     C_R   0.047804 0.548584 0.842451 -0.046422
C180  C     C_R   0.453016 0.047711 0.842837 -0.048000
C181  C     C_R   0.946981 0.460926 0.842072 -0.047140
C182  C     C_R   0.546931 0.047787 0.157108 -0.048023
C183  C     C_R   0.047652 0.452818 0.157156 -0.048075
C184  C     C_R   0.452816 0.952405 0.157221 -0.048042
C185  C     C_R   0.952289 0.547021 0.157179 -0.048015
C186  C     C_R   0.000107 0.500057 0.365905 -0.018522
C187  C     C_R   0.499919 0.000074 0.365902 -0.018685
C188  C     C_R   0.997752 0.503853 0.634321 -0.018078
C189  C     C_R   0.999973 0.639916 0.499926 0.548221
C190  C     C_R   0.499950 0.999877 0.634096 -0.018699
C191  C     C_R   0.500090 0.000008 0.865842 -0.027702
C192  C     C_R   0.999633 0.501628 0.865461 -0.027782
C193  C     C_R   0.499892 0.000079 0.134158 -0.027663
C194  C     C_R   0.999968 0.499920 0.134160 -0.027727
C195  C     C_R   0.957871 0.552152 0.296388 -0.005806
C196  C     C_R   0.447790 0.957875 0.296450 -0.005728
C197  C     C_R   0.042341 0.447923 0.296395 -0.005759
C198  C     C_R   0.551963 0.042341 0.296326 -0.005715
C199  C     C_R   0.939805 0.467219 0.703733 0.004653
C200  C     C_R   0.360085 0.000010 0.499988 0.544361
C201  C     C_R   0.447806 0.042042 0.703628 -0.005741
C202  C     C_R   0.035866 0.561333 0.703093 -0.005828
C203  C     C_R   0.552047 0.957582 0.703594 -0.005798
C204  C     C_R   0.455937 0.050887 0.796355 0.004788
C205  C     C_R   0.937470 0.473398 0.796411 0.005153
C206  C     C_R   0.544091 0.948943 0.796363 0.004798
C207  C     C_R   0.047589 0.549542 0.795718 0.005372
C208  C     C_R   0.455790 0.949165 0.203700 0.004814
C209  C     C_R   0.949067 0.544055 0.203660 0.004822
C210  C     C_R   0.543910 0.051067 0.203582 0.004811
C211  C     C_R   0.000002 0.360081 0.500158 0.561451
C212  C     C_R   0.050959 0.455851 0.203627 0.004823
C213  C     C_R   0.000086 0.500017 0.273305 0.000719
C214  C     C_R   0.499864 0.000116 0.273302 0.000744
C215  C     C_R   0.988468 0.514146 0.726442 -0.004582
C216  C     C_R   0.499952 0.999838 0.726697 0.000705
C217  C     C_R   0.499994 0.999887 0.773342 -0.005317
C218  C     C_R   0.990850 0.512799 0.773002 -0.005817
C219  C     C_R   0.499850 0.000119 0.226658 -0.005284
C220  C     C_R   0.000039 0.499975 0.226661 -0.005271
C221  C     C_R   0.917651 0.604000 0.271827 0.020046
C222  C     C_1   0.217483 0.499882 0.000137 -0.082959
C223  C     C_R   0.395946 0.917671 0.271954 0.020067
C224  C     C_R   0.082536 0.396045 0.271839 0.020058
C225  C     C_R   0.603786 0.082558 0.271704 0.020055
C226  C     C_R   0.879301 0.437081 0.727661 0.026658
C227  C     C_R   0.395941 0.082232 0.728207 0.020231
C228  C     C_R   0.080261 0.609698 0.727590 0.021140
C229  C     C_R   0.603893 0.917339 0.728138 0.020089
C230  C     C_R   0.413607 0.101072 0.771424 0.042061
C231  C     C_R   0.873926 0.451113 0.773470 0.029173
C232  C     C_R   0.586304 0.898642 0.771440 0.042211
Cu1   Cu    Cu3+1 0.000000 0.572490 0.000000 0.944368
Cu2   Cu    Cu3+1 0.500000 0.500000 0.955520 0.910987
Cu3   Cu    Cu3+1 0.000000 1.000000 0.544480 0.905104
Cu4   Cu    Cu3+1 1.000000 0.000000 0.455520 0.916557
Cu5   Cu    Cu3+1 0.427510 0.000000 0.000000 0.945292
Cu6   Cu    Cu3+1 0.000000 0.427510 0.000000 0.943105
Cu7   Cu    Cu3+1 0.572490 0.000000 0.000000 0.945520
Cu8   Cu    Cu3+1 0.500000 0.072490 0.500000 0.946334
Cu9   Cu    Cu3+1 0.927510 0.500000 0.500000 0.914719
Cu10  Cu    Cu3+1 0.500000 0.927510 0.500000 0.945395
Cu11  Cu    Cu3+1 0.072490 0.500000 0.500000 0.950693
Cu12  Cu    Cu3+1 0.500000 0.500000 0.044480 0.911626
H1    H     H_    0.978238 0.731871 0.241749 0.150305
H2    H     H_    0.306818 0.939386 0.317008 0.152720
H3    H     H_    0.475267 0.807476 0.338195 0.103589
H4    H     H_    0.025955 0.669605 0.598872 0.095643
H5    H     H_    0.124894 0.734995 0.559943 0.115076
H6    H     H_    0.253405 0.697363 0.570048 0.106114
H7    H     H_    0.283598 0.594339 0.619588 0.098811
H8    H     H_    0.185731 0.529261 0.659376 0.102695
H9    H     H_    0.660861 0.967978 0.598758 0.093802
H10   H     H_    0.727549 0.869410 0.560538 0.114843
H11   H     H_    0.693043 0.740394 0.572576 0.105596
H12   H     H_    0.591579 0.709579 0.623173 0.099437
H13   H     H_    0.021980 0.268085 0.242093 0.150293
H14   H     H_    0.524693 0.807233 0.661946 0.103591
H15   H     H_    0.023587 0.331180 0.676370 0.106317
H16   H     H_    0.002979 0.208559 0.645429 0.110750
H17   H     H_    0.906067 0.188844 0.590011 0.135843
H18   H     H_    0.830381 0.292500 0.564805 0.108576
H19   H     H_    0.849134 0.414847 0.595477 0.128973
H20   H     H_    0.339017 0.031308 0.598963 0.094181
H21   H     H_    0.271915 0.129661 0.560792 0.115066
H22   H     H_    0.305953 0.258790 0.572662 0.106955
H23   H     H_    0.407360 0.289944 0.623048 0.099797
H24   H     H_    0.117171 0.261418 0.226659 0.148512
H25   H     H_    0.474635 0.192511 0.661792 0.103731
H26   H     H_    0.529761 0.835763 0.898231 0.092232
H27   H     H_    0.626575 0.768333 0.937482 0.114207
H28   H     H_    0.755589 0.806352 0.930305 0.106116
H29   H     H_    0.788217 0.912062 0.883423 0.099881
H30   H     H_    0.692378 0.979463 0.843346 0.101576
H31   H     H_    0.165350 0.523238 0.895896 0.092528
H32   H     H_    0.239193 0.615306 0.935065 0.115628
H33   H     H_    0.206791 0.746083 0.930585 0.107312
H34   H     H_    0.100645 0.785536 0.886145 0.099690
H35   H     H_    0.081898 0.205547 0.270173 0.134882
H36   H     H_    0.027313 0.694694 0.845777 0.101863
H37   H     H_    0.470503 0.164333 0.897967 0.092250
H38   H     H_    0.373799 0.231709 0.937410 0.114408
H39   H     H_    0.244792 0.193553 0.930682 0.106897
H40   H     H_    0.212054 0.087788 0.884033 0.100392
H41   H     H_    0.307779 0.020450 0.843757 0.101621
H42   H     H_    0.844556 0.471303 0.907777 0.098846
H43   H     H_    0.775259 0.370475 0.941863 0.116913
H44   H     H_    0.796175 0.243182 0.917997 0.107853
H45   H     H_    0.886575 0.216433 0.859568 0.101802
H46   H     H_    0.154424 0.312703 0.299094 0.147314
H47   H     H_    0.956146 0.316438 0.824949 0.103403
H48   H     H_    0.529642 0.164327 0.101754 0.092274
H49   H     H_    0.626499 0.231597 0.062346 0.114402
H50   H     H_    0.755482 0.193372 0.069321 0.106751
H51   H     H_    0.788040 0.087629 0.116167 0.099801
H52   H     H_    0.692160 0.020390 0.156399 0.101687
H53   H     H_    0.164166 0.469938 0.101725 0.092228
H54   H     H_    0.231335 0.372992 0.062407 0.114374
H55   H     H_    0.193045 0.244065 0.069580 0.106415
H56   H     H_    0.087336 0.211655 0.116534 0.099788
H57   H     H_    0.060866 0.306951 0.316927 0.152784
H58   H     H_    0.020186 0.307628 0.156671 0.101698
H59   H     H_    0.470244 0.835882 0.101971 0.092287
H60   H     H_    0.373496 0.768616 0.062680 0.114403
H61   H     H_    0.244480 0.806779 0.069722 0.106537
H62   H     H_    0.211788 0.912457 0.116517 0.099729
H63   H     H_    0.307565 0.979707 0.156626 0.101696
H64   H     H_    0.835716 0.529691 0.102005 0.092472
H65   H     H_    0.768420 0.626493 0.062627 0.114552
H66   H     H_    0.806610 0.755468 0.069487 0.106304
H67   H     H_    0.912342 0.788070 0.116189 0.099701
H68   H     H_    0.731733 0.022005 0.241691 0.150312
H69   H     H_    0.979617 0.692241 0.156385 0.101705
H70   H     H_    0.738322 0.117206 0.226293 0.148515
H71   H     H_    0.794291 0.081883 0.269684 0.134834
H72   H     H_    0.687146 0.154395 0.298839 0.147221
H73   H     H_    0.883033 0.738537 0.226472 0.148496
H74   H     H_    0.692969 0.060825 0.316617 0.152748
H75   H     H_    0.737935 0.483723 0.699644 0.142220
H76   H     H_    0.801691 0.479674 0.655052 0.156579
H77   H     H_    0.729520 0.413146 0.658822 0.128994
H78   H     H_    0.837461 0.349194 0.686022 0.157188
H79   H     H_    0.782885 0.366171 0.729533 0.122777
H80   H     H_    0.268157 0.021511 0.758343 0.150443
H81   H     H_    0.261415 0.116707 0.773634 0.148606
H82   H     H_    0.205446 0.081311 0.730312 0.133513
H83   H     H_    0.312399 0.153941 0.701014 0.146759
H84   H     H_    0.918370 0.794489 0.269820 0.134891
H85   H     H_    0.306756 0.060357 0.683353 0.152614
H86   H     H_    0.027783 0.740007 0.759068 0.150569
H87   H     H_    0.123396 0.740409 0.773872 0.148295
H88   H     H_    0.090917 0.799718 0.731245 0.134680
H89   H     H_    0.156431 0.689416 0.700535 0.146537
H90   H     H_    0.063130 0.701140 0.683510 0.154171
H91   H     H_    0.731931 0.977641 0.757947 0.150318
H92   H     H_    0.738494 0.882410 0.773280 0.148404
H93   H     H_    0.794407 0.917723 0.729795 0.134767
H94   H     H_    0.687155 0.845388 0.700827 0.147338
H95   H     H_    0.845837 0.687429 0.299067 0.147291
H96   H     H_    0.693042 0.938970 0.683072 0.152500
H97   H     H_    0.500701 0.193366 0.821517 0.153797
H98   H     H_    0.503081 0.223038 0.765004 0.145791
H99   H     H_    0.456090 0.276882 0.805806 0.134782
H100  H     H_    0.370879 0.210061 0.758807 0.135647
H101  H     H_    0.360082 0.183234 0.813490 0.155190
H102  H     H_    0.826640 0.544371 0.842602 0.153330
H103  H     H_    0.791783 0.575681 0.790529 0.151556
H104  H     H_    0.731309 0.535604 0.830619 0.134417
H105  H     H_    0.753335 0.451929 0.772257 0.138233
H106  H     H_    0.939414 0.693160 0.316725 0.152683
H107  H     H_    0.789848 0.413606 0.819889 0.152915
H108  H     H_    0.499238 0.806582 0.821936 0.153785
H109  H     H_    0.496699 0.776728 0.765496 0.145829
H110  H     H_    0.543739 0.722975 0.806314 0.134337
H111  H     H_    0.628894 0.789563 0.758970 0.135673
H112  H     H_    0.639844 0.816554 0.813568 0.154989
H113  H     H_    0.188515 0.495230 0.818121 0.153892
H114  H     H_    0.216105 0.493798 0.761214 0.144852
H115  H     H_    0.273760 0.535945 0.801961 0.134521
H116  H     H_    0.210192 0.626752 0.757144 0.135483
H117  H     H_    0.267972 0.978236 0.242113 0.150318
H118  H     H_    0.185605 0.636505 0.812267 0.155572
H119  H     H_    0.500663 0.806759 0.178342 0.153756
H120  H     H_    0.503177 0.776995 0.234833 0.145776
H121  H     H_    0.456177 0.723198 0.194095 0.134803
H122  H     H_    0.370962 0.789891 0.241302 0.135901
H123  H     H_    0.360055 0.816831 0.186659 0.155194
H124  H     H_    0.806636 0.499286 0.178425 0.153741
H125  H     H_    0.776938 0.496804 0.234937 0.145754
H126  H     H_    0.723083 0.543820 0.194168 0.134786
H127  H     H_    0.789821 0.629012 0.241215 0.135892
H128  H     H_    0.261373 0.883043 0.226815 0.148473
H129  H     H_    0.816707 0.639877 0.186542 0.155178
H130  H     H_    0.499035 0.193446 0.178099 0.153754
H131  H     H_    0.496461 0.223203 0.234563 0.145795
H132  H     H_    0.543473 0.277024 0.193716 0.134820
H133  H     H_    0.628683 0.210363 0.240893 0.135864
H134  H     H_    0.639633 0.183421 0.186266 0.155188
H135  H     H_    0.193327 0.500580 0.178001 0.153777
H136  H     H_    0.223177 0.503152 0.234437 0.145793
H137  H     H_    0.276917 0.456060 0.193619 0.134847
H138  H     H_    0.210290 0.370962 0.240975 0.135902
H139  H     H_    0.205443 0.918343 0.270273 0.134915
H140  H     H_    0.183267 0.359997 0.186384 0.155190
H141  H     H_    0.031964 0.339197 0.401252 0.092576
H142  H     H_    0.130522 0.272542 0.439476 0.113323
H143  H     H_    0.259552 0.307004 0.427407 0.106658
H144  H     H_    0.290392 0.408380 0.376767 0.099562
H145  H     H_    0.192747 0.475228 0.337983 0.103565
H146  H     H_    0.660777 0.031778 0.401014 0.094286
H147  H     H_    0.727541 0.130242 0.439138 0.114621
H148  H     H_    0.693150 0.259314 0.427138 0.105605
H149  H     H_    0.591709 0.290282 0.376686 0.099405
H150  H     H_    0.312619 0.845823 0.299310 0.147281
H151  H     H_    0.524747 0.192728 0.338006 0.103616
H152  H     H_    0.968332 0.660949 0.401083 0.094183
H153  H     H_    0.869805 0.727736 0.439322 0.114976
H154  H     H_    0.740755 0.693371 0.427461 0.106326
H155  H     H_    0.709857 0.591958 0.377014 0.099362
H156  H     H_    0.807467 0.524985 0.338213 0.103504
H157  H     H_    0.339021 0.968165 0.401286 0.094220
H158  H     H_    0.272423 0.869560 0.439596 0.114774
H159  H     H_    0.307027 0.740558 0.427661 0.106405
H160  H     H_    0.408485 0.709788 0.377067 0.099556
O1    O     O_R   0.105780 0.561220 0.000020 -0.501669
O2    O     O_R   0.938780 0.605780 0.500020 -0.503959
O3    O     O_R   0.394220 0.938780 0.500020 -0.504478
O4    O     O_R   0.061220 0.394220 0.500020 -0.503234
O5    O     O_R   0.605780 0.938780 0.499980 -0.504345
O6    O     O_R   0.938780 0.394220 0.499980 -0.511221
O7    O     O_R   0.394220 0.061220 0.499980 -0.504210
O8    O     O_R   0.061220 0.605780 0.499980 -0.502032
O9    O     O_R   0.999940 0.561230 0.064880 -0.500450
O10   O     O_R   0.438770 0.999940 0.064880 -0.500559
O11   O     O_R   0.000060 0.438770 0.064880 -0.500136
O12   O     O_R   0.438780 0.105780 0.000020 -0.503569
O13   O     O_R   0.561230 0.000060 0.064880 -0.500613
O14   O     O_R   0.999940 0.438770 0.935120 -0.501150
O15   O     O_R   0.438770 0.000060 0.935120 -0.500620
O16   O     O_R   0.000060 0.561230 0.935120 -0.501035
O17   O     O_R   0.561230 0.999940 0.935120 -0.500624
O18   O     O_R   0.499940 0.061230 0.564880 -0.500162
O19   O     O_R   0.938770 0.499940 0.564880 -0.526932
O20   O     O_R   0.500060 0.938770 0.564880 -0.500375
O21   O     O_R   0.061230 0.500060 0.564880 -0.493659
O22   O     O_R   0.499940 0.938770 0.435120 -0.500368
O23   O     O_R   0.894220 0.438780 0.000020 -0.507221
O24   O     O_R   0.938770 0.500060 0.435120 -0.500054
O25   O     O_R   0.500060 0.061230 0.435120 -0.500288
O26   O     O_R   0.061230 0.499940 0.435120 -0.500502
O27   O     O_R   0.499980 0.394200 0.037580 -0.506848
O28   O     O_R   0.605800 0.499980 0.037580 -0.506864
O29   O     O_R   0.500020 0.605800 0.037580 -0.506723
O30   O     O_R   0.394200 0.500020 0.037580 -0.506477
O31   O     O_R   0.499980 0.605800 0.962420 -0.507142
O32   O     O_R   0.605800 0.500020 0.962420 -0.506609
O33   O     O_R   0.500020 0.394200 0.962420 -0.506514
O34   O     O_R   0.561220 0.894220 0.000020 -0.503533
O35   O     O_R   0.394200 0.499980 0.962420 -0.507406
O36   O     O_R   0.999980 0.894200 0.537580 -0.506057
O37   O     O_R   0.105800 0.999980 0.537580 -0.505971
O38   O     O_R   0.000020 0.105800 0.537580 -0.513639
O39   O     O_R   0.894200 0.000020 0.537580 -0.509477
O40   O     O_R   0.999980 0.105800 0.462420 -0.506358
O41   O     O_R   0.105800 0.000020 0.462420 -0.505781
O42   O     O_R   0.000020 0.894200 0.462420 -0.505700
O43   O     O_R   0.894200 0.999980 0.462420 -0.505416
O44   O     O_R   0.105780 0.438780 0.999980 -0.503457
O45   O     O_R   0.438780 0.894220 0.999980 -0.503742
O46   O     O_R   0.894220 0.561220 0.999980 -0.503307
O47   O     O_R   0.561220 0.105780 0.999980 -0.503580
O48   O     O_R   0.605780 0.061220 0.500020 -0.504239

loop_
_geom_bond_atom_site_label_1
_geom_bond_atom_site_label_2
_ccdc_geom_bond_type
Cu11  O4    S    
C173  C188  A    
C126  C127  A    
C177  C191  A    
C96   C102  A    
C113  O15   A    
Cu10  O5    S    
C19   C20   S    
C57   C158  T    
C197  C224  A    
C114  C115  A    
C197  C213  A    
C110  H37   S    
C26   C230  S    
C11   H128  S    
Cu4   O42   S    
C79   C194  S    
C5    C37   S    
C160  O27   A    
C97   H26   S    
C106  C107  A    
C22   H86   S    
C38   H124  S    
C143  C144  A    
C99   H28   S    
C73   C74   A    
C138  H59   S    
C110  C111  A    
C175  C188  A    
C33   H115  S    
C101  O16   A    
C207  C218  A    
C170  C187  A    
C10   H2    S    
C91   C92   A    
C35   C178  S    
C135  O21   A    
C83   C88   A    
C59   C60   A    
C21   C22   S    
C143  C185  S    
C104  C105  A    
C24   C154  T    
C4    C208  A    
C45   C47   A    
C2    C152  T    
C179  C207  A    
C51   C52   A    
C189  O8    A    
C146  C187  S    
C140  C141  A    
C26   H100  S    
C67   H160  S    
C200  O7    A    
C135  O19   A    
C144  C145  A    
C93   H22   S    
C212  C220  A    
Cu12  O27   S    
C65   H158  S    
C153  C161  S    
C40   H130  S    
C43   C44   A    
C37   C38   S    
Cu1   O1    S    
Cu3   O36   S    
C26   C27   S    
C42   H136  S    
C134  H56   S    
C76   C77   A    
C26   H101  S    
C87   H18   S    
C28   H107  S    
C56   C171  S    
C79   O11   A    
Cu11  O8    S    
C111  H38   S    
C185  C209  A    
C18   H75   S    
C172  C196  A    
C54   H149  S    
C75   H8    S    
C198  C214  A    
C39   C40   S    
C203  C229  A    
Cu2   O32   S    
C201  C227  A    
C42   H137  S    
C105  H32   S    
C72   C73   A    
C14   H13   S    
C21   H90   S    
C139  C140  A    
Cu8   O25   S    
C98   H27   S    
C151  C222  T    
C3    C207  A    
C130  C131  A    
C64   C65   A    
C36   H119  S    
C34   H123  S    
Cu3   O38   S    
C63   C172  S    
C30   C31   S    
C90   C193  S    
C147  H66   S    
C29   H102  S    
Cu4   O40   S    
C143  C149  A    
Cu2   O31   S    
C98   C99   A    
C211  O6    A    
C38   H125  S    
C89   C176  S    
C67   C69   A    
C3    C228  A    
C165  O37   A    
C184  C193  A    
C158  C165  S    
Cu2   Cu12  S    
Cu8   O7    S    
C137  C142  A    
C164  O36   A    
C82   H14   S    
C189  O2    A    
C160  O33   A    
C147  C148  A    
C128  C129  A    
C97   C98   A    
C13   C156  S    
Cu12  O29   S    
C94   H23   S    
C53   H148  S    
C66   H159  S    
C132  H54   S    
C15   C225  S    
C199  C215  A    
Cu5   O10   S    
C40   H132  S    
C35   C155  T    
C229  C232  A    
C130  C183  S    
C85   C86   A    
C181  C192  A    
C78   C80   A    
C11   H139  S    
C12   H46   S    
C141  H62   S    
C6    C225  A    
C182  C210  A    
C183  C194  A    
C177  C206  A    
C17   C226  S    
C19   C227  S    
C25   H91   S    
C41   H138  S    
C69   H3    S    
C63   C69   A    
C79   O9    A    
C107  C108  A    
C37   H127  S    
C72   H5    S    
C89   C91   A    
C156  O23   A    
C39   H133  S    
C200  O3    A    
C208  C219  A    
C66   C67   A    
Cu1   O16   S    
C3    C32   S    
Cu8   Cu10  S    
C15   H74   S    
C31   H109  S    
C206  C217  A    
C195  C213  A    
C15   C16   S    
C24   C167  S    
C77   H9    S    
C138  C139  A    
C215  C218  A    
C76   C82   A    
C36   H121  S    
C52   H147  S    
C48   H144  S    
C202  C228  A    
C183  C212  A    
C29   H104  S    
C210  C219  A    
C117  C122  A    
C201  C216  A    
C64   H157  S    
C196  C214  A    
C83   C84   A    
C28   C231  S    
C17   C18   S    
C17   H78   S    
C116  H41   S    
C18   H77   S    
C157  C164  S    
C175  C199  A    
C23   C229  S    
C168  O43   A    
C166  O40   A    
Cu6   O44   S    
C96   C177  S    
Cu2   O35   S    
C205  C231  A    
C46   C189  S    
C146  O25   A    
C52   C53   A    
C169  C197  A    
C120  H44   S    
C54   C55   A    
Cu5   O12   S    
C154  C162  S    
Cu8   O48   S    
Cu6   O11   S    
C180  C191  A    
C150  C186  S    
C4    C223  A    
C5    C209  A    
Cu7   O13   S    
Cu11  O21   S    
C76   C174  S    
C71   C72   A    
C32   H118  S    
C117  C118  A    
C25   H93   S    
C41   H140  S    
C22   H87   S    
C56   C58   A    
C132  C133  A    
C34   C36   S    
C7    C41   S    
C61   C62   A    
C199  C226  A    
C17   H79   S    
C10   C11   S    
C90   O13   A    
C163  O35   A    
C63   C64   A    
Cu3   O39   S    
C114  H39   S    
C19   H85   S    
C70   C75   A    
C107  H34   S    
C30   H111  S    
C16   H71   S    
C14   H35   S    
C90   O10   A    
C27   H98   S    
C87   C88   A    
C41   C42   S    
C84   H15   S    
C156  O46   A    
C185  C194  A    
Cu6   O23   S    
C163  O30   A    
C124  C190  S    
C43   C169  S    
Cu4   O43   S    
C16   H70   S    
C77   C78   A    
C120  C121  A    
C161  O32   A    
C2    C112  S    
C162  O31   A    
C124  O18   A    
C119  H43   S    
C28   C29   S    
C150  O26   A    
C169  C186  A    
Cu9   O24   S    
C146  O22   A    
Cu1   O46   S    
C136  H58   S    
C20   H81   S    
C123  C125  A    
Cu12  O28   S    
C172  C187  A    
Cu5   O15   S    
C58   H152  S    
C12   C224  S    
C109  C116  A    
C166  O38   A    
Cu7   O34   S    
C12   H57   S    
Cu3   Cu4   S    
Cu2   O33   S    
C70   C71   A    
C202  C215  A    
C9    H1    S    
C18   H76   S    
C71   H4    S    
C145  C147  A    
C213  C220  A    
C74   H7    S    
C7    C212  A    
Cu4   O41   S    
C206  C232  A    
C1    O44   A    
C203  C216  A    
C84   C85   A    
C21   H89   S    
C86   C87   A    
C10   H150  S    
C58   C59   A    
C53   C54   A    
Cu9   O2    S    
C173  C202  A    
C89   C95   A    
Cu1   Cu6   S    
C11   H117  S    
C36   H120  S    
C8    H95   S    
Cu3   O37   S    
C176  C190  A    
C9    H84   S    
C155  C168  S    
C50   C51   A    
C50   C170  S    
C106  H33   S    
C13   C153  T    
C121  C122  A    
C10   C223  S    
C174  C190  A    
C148  H67   S    
C9    H73   S    
C92   H21   S    
C171  C195  A    
C48   C49   A    
C131  H53   S    
C125  C126  A    
C38   H126  S    
C131  C132  A    
C55   H151  S    
C44   C45   A    
Cu10  O22   S    
C21   C228  S    
C162  O29   A    
C171  C186  A    
C124  O20   A    
C150  O24   A    
C122  H47   S    
C180  C204  A    
C119  C120  A    
C32   H116  S    
C149  H69   S    
Cu12  O30   S    
C152  C160  S    
C105  C106  A    
C204  C217  A    
C142  H63   S    
C184  C208  A    
Cu9   O6    S    
C32   C33   S    
Cu6   O14   S    
C195  C221  A    
C168  O39   A    
C109  C110  A    
C7    C224  A    
C115  C116  A    
C164  O42   A    
C92   C93   A    
C42   H135  S    
C111  C114  A    
C103  C179  S    
C94   C95   A    
C118  H42   S    
C196  C223  A    
C23   H96   S    
C145  H65   S    
C45   H142  S    
C103  C104  A    
C6    C39   S    
C60   C61   A    
Cu1   O9    S    
C91   H20   S    
C144  H64   S    
C47   H143  S    
C128  H51   S    
C5    C221  A    
C16   H68   S    
C112  O47   A    
Cu5   O45   S    
C93   C94   A    
Cu7   O17   S    
C80   H11   S    
C83   C175  S    
C109  C180  S    
C101  C192  S    
C81   C82   A    
C27   H99   S    
Cu10  O3    S    
C123  C182  S    
C214  C219  A    
C34   H122  S    
C117  C181  S    
C226  C231  A    
C29   H103  S    
C30   C232  S    
C137  C184  S    
C49   H145  S    
C118  C119  A    
C112  O12   A    
C19   H83   S    
C20   H80   S    
C179  C192  A    
C62   H156  S    
C8    C9    S    
C216  C217  A    
C103  C108  A    
C68   C159  T    
C86   H17   S    
C198  C225  A    
C126  H49   S    
Cu8   O18   S    
C140  H61   S    
C85   H16   S    
C123  C129  A    
C14   H24   S    
C95   H25   S    
C113  C191  S    
C4    C34   S    
C205  C218  A    
C74   C75   A    
C78   H10   S    
C47   C48   A    
C40   H131  S    
C37   H129  S    
C148  C149  A    
C59   H153  S    
C211  O4    A    
C182  C193  A    
C43   C49   A    
C134  C136  A    
C129  H52   S    
C46   C157  T    
C1    C222  S    
C102  H30   S    
C33   H114  S    
Cu9   Cu11  S    
Cu9   O19   S    
C181  C205  A    
Cu10  O20   S    
C23   H94   S    
C25   H92   S    
C15   H72   S    
C99   C100  A    
C22   H88   S    
C96   C97   A    
C100  C102  A    
C133  H55   S    
C104  H31   S    
C139  H60   S    
C39   H134  S    
C127  H50   S    
C33   H113  S    
C101  O14   A    
C12   C14   S    
C151  C163  S    
Cu5   Cu7   S    
C57   C200  S    
C51   H146  S    
C31   H108  S    
C30   H112  S    
C135  C188  S    
C170  C198  A    
C73   H6    S    
C31   H110  S    
C27   H97   S    
C60   H154  S    
C209  C220  A    
C176  C201  A    
C61   H155  S    
C130  C136  A    
Cu7   O47   S    
C80   C81   A    
C165  O41   A    
C1    O1    A    
C6    C210  A    
C115  H40   S    
C137  C138  A    
C50   C55   A    
C159  C166  S    
C100  H29   S    
C121  H45   S    
C44   H141  S    
C141  C142  A    
C113  O17   A    
C167  O45   A    
C20   H82   S    
C133  C134  A    
C174  C203  A    
C56   C62   A    
C23   C25   S    
C81   H12   S    
C204  C230  A    
C70   C173  S    
C125  H48   S    
C178  O5    A    
C167  O34   A    
C227  C230  A    
C8    H106  S    
C65   C66   A    
C161  O28   A    
Cu11  O26   S    
C108  H36   S    
C68   C211  S    
C178  O48   A    
C8    C221  S    
C127  C128  A    
C88   H19   S    
C28   H105  S    
