data_mof_unit_19224.cif
_audit_creation_date              2012-10-26T19:52:25-0400
_audit_creation_method            fapswitch 2.2
_symmetry_space_group_name_H-M    P1
_symmetry_Int_Tables_number       1
_space_group_crystal_system       triclinic
_cell_length_a                    9.585988
_cell_length_b                    10.802819
_cell_length_c                    13.448859
_cell_angle_alpha                 90.687727
_cell_angle_beta                  73.409388
_cell_angle_gamma                 90.249186
_cell_volume                      1334.62992951

loop_
_atom_site_label
_atom_site_type_symbol
_atom_type_description
_atom_site_fract_x
_atom_site_fract_y
_atom_site_fract_z
_atom_type_partial_charge
C1    C     C_R   0.500751 0.737462 0.498250 0.571561
C2    C     C_R   0.385055 0.452049 0.809774 0.005184
C3    C     C_R   0.372701 0.936303 0.508830 -0.015826
C4    C     C_R   0.424098 0.485059 0.698540 0.562877
C5    C     C_R   0.503068 0.870519 0.489127 0.027840
C6    C     C_R   0.635267 0.935290 0.455350 -0.126086
C7    C     C_R   0.635203 0.064494 0.456085 -0.146650
C8    C     C_R   0.502764 0.129297 0.488948 0.022487
C9    C     C_R   0.372703 0.063492 0.507755 0.021617
C10   C     C_3   0.236293 0.073177 0.595596 -0.239713
C11   C     C_3   0.235678 0.932048 0.597313 -0.064301
C12   C     C_R   0.447200 0.442250 0.974118 0.030680
C13   C     C_R   0.941181 0.400664 0.461585 0.102197
C14   C     C_R   0.908859 0.591686 0.549273 0.136410
C15   C     C_R   0.057312 0.590971 0.548167 -0.027394
C16   C     C_R   0.500468 0.262512 0.498177 0.542030
C17   C     C_R   0.088109 0.400676 0.461711 0.207966
C18   C     C_3   0.136853 0.349168 0.354177 0.128639
C19   C     C_3   0.977980 0.348612 0.354107 -0.242412
C20   C     C_R   0.577554 0.501570 0.300362 0.536207
C21   C     C_R   0.807844 0.495547 0.022195 -0.129181
C22   C     C_R   0.621981 0.498017 0.186839 -0.001288
C23   C     C_R   0.492230 0.439689 0.864234 0.034997
C24   C     C_R   0.238037 0.433868 0.863853 -0.121946
C25   C     C_R   0.197321 0.411589 0.969905 -0.140799
C26   C     C_R   0.298625 0.421637 0.025476 -0.121455
C27   C     C_2   0.255852 0.878899 0.695543 0.583616
C28   C     C_2   0.822565 0.697608 0.603405 0.612811
C29   C     C_3   0.260583 0.190347 0.250722 0.003230
C30   C     C_3   0.315992 0.057949 0.250418 -0.249887
C31   C     C_3   0.382945 0.009637 0.140025 -0.475749
C32   C     C_R   0.553389 0.462370 0.027830 0.024129
C33   C     C_R   0.702742 0.467568 0.971634 0.051742
C34   C     C_R   0.745956 0.441566 0.865947 -0.115402
C35   C     C_R   0.642310 0.422606 0.813823 -0.076445
C36   C     C_R   0.515537 0.482081 0.135239 -0.141048
C37   C     C_R   0.768531 0.507740 0.129648 -0.139037
Cu1   Cu    Cu3+1 0.359330 0.500020 0.500010 0.974810
Cu2   Cu    Cu3+1 0.640670 0.499980 0.499990 0.976652
H1    H     H_    0.852341 0.525029 0.167641 0.122823
H2    H     H_    0.932264 0.254357 0.351703 0.138996
H3    H     H_    0.920023 0.508115 0.977948 0.116255
H4    H     H_    0.403529 0.486811 0.180090 0.109073
H5    H     H_    0.154643 0.434612 0.823911 0.130709
H6    H     H_    0.258201 0.408049 0.107916 0.075178
H7    H     H_    0.086150 0.388742 0.010594 0.108004
H8    H     H_    0.683448 0.390041 0.734869 0.158116
H9    H     H_    0.738221 0.886771 0.432003 0.171057
H10   H     H_    0.373280 0.875346 0.798362 0.335661
H11   H     H_    0.663054 0.760883 0.725873 0.344125
H12   H     H_    0.738246 0.113033 0.434653 0.134074
H13   H     H_    0.355165 0.250959 0.214219 0.135369
H14   H     H_    0.180869 0.192777 0.204484 0.126233
H15   H     H_    0.399957 0.055558 0.292682 0.174640
H16   H     H_    0.224426 0.996540 0.290699 0.178434
H17   H     H_    0.300320 0.008514 0.096524 0.157745
H18   H     H_    0.423127 0.913788 0.142498 0.156384
H19   H     H_    0.475987 0.068976 0.098851 0.156978
H20   H     H_    0.254301 0.119379 0.665323 0.153559
H21   H     H_    0.145056 0.112141 0.570192 0.157279
H22   H     H_    0.143165 0.891090 0.573715 0.138080
H23   H     H_    0.099998 0.664799 0.585993 0.164650
H24   H     H_    0.206659 0.415636 0.299494 0.097278
H25   H     H_    0.955670 0.414376 0.297645 0.102800
H26   H     H_    0.860352 0.434828 0.823441 0.108901
N1    N     N_R   0.852320 0.499070 0.499340 -0.273939
N2    N     N_R   0.148230 0.499110 0.499340 -0.281703
O1    O     O_R   0.381190 0.680360 0.500000 -0.509868
O2    O     O_R   0.370991 0.918994 0.732534 -0.698819
O3    O     O_2   0.856198 0.802231 0.571564 -0.564436
O4    O     O_R   0.711942 0.680425 0.695458 -0.662991
O5    O     O_3   0.194305 0.228927 0.354006 -0.559115
O6    O     O_R   0.618780 0.680320 0.499990 -0.478356
O7    O     O_R   0.323230 0.500000 0.650990 -0.493143
O8    O     O_R   0.560820 0.499960 0.650980 -0.471298
O9    O     O_R   0.381220 0.319680 0.500010 -0.474669
O10   O     O_R   0.618810 0.319640 0.500000 -0.520760
O11   O     O_R   0.439180 0.500040 0.349020 -0.511431
O12   O     O_R   0.676770 0.500000 0.349010 -0.514397
O13   O     O_2   0.171286 0.800111 0.742394 -0.520539

loop_
_geom_bond_atom_site_label_1
_geom_bond_atom_site_label_2
_ccdc_geom_bond_type
C10   H21   S    
C35   H8    S    
C7    C8    A    
Cu1   O9    S    
C30   H15   S    
C12   C23   A    
C6    H9    S    
C1    C5    S    
C32   C36   A    
C31   H19   S    
C18   C19   S    
C37   H1    S    
Cu1   Cu2   S    
C18   H24   S    
C21   C33   A    
C1    O1    A    
C34   C35   A    
C4    O8    A    
C26   H6    S    
C8    C9    A    
Cu2   O8    S    
C31   H17   S    
C9    C10   S    
C4    O7    A    
C27   O2    S    
C29   O5    S    
C8    C16   S    
H10   O2    S    
C12   C32   A    
C34   H26   S    
C33   C34   A    
C13   N1    A    
C18   O5    S    
C17   N2    A    
C13   C19   S    
C24   C25   A    
C27   O13   D    
Cu1   O11   S    
C3    C5    A    
C25   C26   A    
C22   C37   A    
C12   C26   A    
Cu2   O12   S    
C2    C4    S    
H11   O4    S    
C29   C30   S    
C3    C9    A    
C11   C27   S    
C19   H25   S    
C15   N2    A    
C17   C18   S    
C14   N1    A    
C20   C22   S    
C23   C35   A    
C2    C24   A    
C24   H5    S    
Cu2   N1    S    
C28   O4    S    
Cu2   O10   S    
Cu1   O7    S    
C20   O12   A    
C16   O9    A    
C28   O3    D    
Cu1   O1    S    
C11   H22   S    
C6    C7    A    
C13   C17   A    
C22   C36   A    
C30   H16   S    
C20   O11   A    
C1    O6    A    
C32   C33   A    
C31   H18   S    
C10   H20   S    
C7    H12   S    
C30   C31   S    
C5    C6    A    
C29   H14   S    
C15   H23   S    
Cu2   O6    S    
C3    C11   S    
C10   C11   S    
C21   H3    S    
C21   C37   A    
Cu1   N2    S    
C2    C23   A    
C14   C15   A    
C16   O10   A    
C36   H4    S    
C14   C28   S    
C25   H7    S    
C19   H2    S    
C29   H13   S    
