data_mof_unit_66372.cif
_audit_creation_date              2012-12-10T20:20:43-0500
_audit_creation_method            fapswitch 2.2
_symmetry_space_group_name_H-M    P1
_symmetry_Int_Tables_number       1
_space_group_crystal_system       triclinic
_cell_length_a                    19.193294
_cell_length_b                    18.461985
_cell_length_c                    10.764611
_cell_angle_alpha                 89.956501
_cell_angle_beta                  90.917447
_cell_angle_gamma                 89.90907
_cell_volume                      3813.90517122

loop_
_atom_site_label
_atom_site_type_symbol
_atom_type_description
_atom_site_fract_x
_atom_site_fract_y
_atom_site_fract_z
_atom_type_partial_charge
C1    C     C_R   0.365797 0.500144 0.498644 1.011731
C2    C     C_R   0.634924 0.499966 0.496503 0.990387
C3    C     C_R   0.823104 0.556185 0.474935 -0.146676
C4    C     C_R   0.188851 0.515664 0.356066 -0.130126
C5    C     C_R   0.753049 0.558608 0.501860 0.118508
C6    C     C_R   0.260406 0.516726 0.369816 0.044557
C7    C     C_R   0.709978 0.499114 0.470551 -0.233650
C8    C     C_R   0.290867 0.500683 0.485819 -0.211582
C9    C     C_R   0.964212 0.555125 0.357150 0.339828
C10   C     C_R   0.036827 0.559459 0.379631 0.340435
C11   C     C_R   0.071445 0.499969 0.434765 0.027737
C12   C     C_R   0.927537 0.495231 0.403275 0.030528
C13   C     C_R   0.034778 0.437848 0.468506 -0.252499
C14   C     C_R   0.963013 0.436390 0.456433 -0.253341
C15   C     C_R   0.556087 0.726292 0.457195 0.111110
C16   C     C_R   0.443756 0.725883 0.543926 0.075454
C17   C     C_R   0.557260 0.802228 0.457804 -0.217569
C18   C     C_R   0.442624 0.801871 0.545859 -0.239962
C19   C     C_R   0.499941 0.841442 0.502370 0.105855
C20   C     C_R   0.438382 0.962104 0.476755 -0.158732
C21   C     C_R   0.561300 0.961943 0.528308 -0.154025
C22   C     C_R   0.500218 0.500131 0.259844 0.928782
C23   C     C_R   0.499652 0.499973 0.740059 0.929361
C24   C     C_R   0.438413 0.038143 0.476232 -0.169417
C25   C     C_R   0.561330 0.037972 0.527812 -0.164728
C26   C     C_R   0.499898 0.077346 0.501680 0.116213
C27   C     C_R   0.499839 0.922753 0.502693 0.120584
C28   C     C_R   0.541509 0.198171 0.585966 -0.265791
C29   C     C_R   0.458486 0.198031 0.415407 -0.264040
C30   C     C_R   0.540765 0.274141 0.583801 0.058827
C31   C     C_R   0.459278 0.274022 0.416550 0.042515
C32   C     C_R   0.499962 0.158691 0.501000 0.115334
C33   C     C_R   0.510377 0.564454 0.062978 0.028860
C34   C     C_R   0.512521 0.563222 0.936449 -0.002199
C35   C     C_R   0.495734 0.501005 0.128012 -0.060120
C36   C     C_R   0.495549 0.500394 0.871545 -0.072800
C37   C     C_R   0.471756 0.439548 0.063790 -0.168956
C38   C     C_R   0.471109 0.439470 0.935075 -0.160574
C39   C     C_3   0.575207 0.611572 0.932090 0.219893
C40   C     C_3   0.567643 0.619383 0.074109 0.188432
C41   C     C_R   0.738039 0.439850 0.403297 0.413134
C42   C     C_R   0.249893 0.486068 0.589655 0.388353
C43   C     C_R   0.808962 0.439957 0.371176 0.346157
C44   C     C_R   0.176694 0.489218 0.577187 0.346535
C45   C     C_R   0.851627 0.497689 0.411663 -0.014998
C46   C     C_R   0.146646 0.502345 0.457848 -0.027670
H1    H     H_    0.455455 0.391245 0.112535 0.163460
H2    H     H_    0.454166 0.391260 0.885944 0.171677
H3    H     H_    0.599589 0.696811 0.419819 0.171502
H4    H     H_    0.399774 0.696030 0.578825 0.145585
H5    H     H_    0.602120 0.829864 0.420914 0.156482
H6    H     H_    0.397639 0.829275 0.583008 0.146687
H7    H     H_    0.390174 0.934139 0.455141 0.143316
H8    H     H_    0.609511 0.933849 0.550135 0.149992
H9    H     H_    0.389858 0.066224 0.457155 0.139640
H10   H     H_    0.609919 0.065902 0.546463 0.143911
H11   H     H_    0.573608 0.170706 0.654919 0.144271
H12   H     H_    0.426365 0.170431 0.346846 0.141696
H13   H     H_    0.572657 0.304147 0.649555 0.134133
H14   H     H_    0.427395 0.303930 0.350418 0.124612
H15   H     H_    0.856315 0.600203 0.506197 0.204516
H16   H     H_    0.165835 0.525263 0.264912 0.209869
H17   H     H_    0.061625 0.391829 0.509652 0.198579
H18   H     H_    0.934831 0.390202 0.492017 0.200749
N1    N     N_R   0.500000 0.689440 0.500000 -0.100521
N2    N     N_R   0.500000 0.310560 0.500000 -0.096370
O1    O     O_R   0.398180 0.560840 0.499970 -0.621887
O2    O     O_R   0.601820 0.560840 0.500030 -0.606719
O3    O     O_R   0.398180 0.439210 0.499910 -0.617490
O4    O     O_R   0.601820 0.439210 0.500090 -0.566549
O5    O     O_R   0.499990 0.560820 0.316770 -0.596508
O6    O     O_R   0.500010 0.560820 0.683230 -0.596907
O7    O     O_R   0.499990 0.439200 0.316710 -0.628996
O8    O     O_R   0.500010 0.439200 0.683290 -0.641548
Zn1   Zn    Zn3+2 0.500000 0.581210 0.500000 1.019858
Zn2   Zn    Zn3+2 0.500000 0.418790 0.500000 0.995741
I1    I     I_    0.664743 0.551127 0.868966 -0.255679
I2    I     I_    0.522478 0.718639 0.140509 -0.263772
I3    I     I_    0.559377 0.706833 0.819474 -0.221987
I4    I     I_    0.656287 0.590590 0.189622 -0.254984
O9    O     O_3   0.694117 0.384458 0.364799 -0.727238
H19   H     H_    0.720587 0.345983 0.322329 0.387633
O10   O     O_3   0.283175 0.471437 0.701951 -0.760826
H20   H     H_    0.248370 0.460307 0.766028 0.394162
O11   O     O_3   0.834470 0.383681 0.300184 -0.772973
H21   H     H_    0.878777 0.398473 0.261845 0.358227
O12   O     O_3   0.136873 0.480613 0.682100 -0.769984
H22   H     H_    0.090126 0.501885 0.667310 0.355816
I5    I     I_    0.721545 0.656185 0.589568 -0.259427
I6    I     I_    0.318361 0.542213 0.209723 -0.310885
O13   O     O_3   0.927624 0.608086 0.292858 -0.746317
H23   H     H_    0.959513 0.632250 0.234528 0.353394
O14   O     O_3   0.074521 0.621467 0.355258 -0.758936
H24   H     H_    0.042913 0.663856 0.357624 0.351342

loop_
_geom_bond_atom_site_label_1
_geom_bond_atom_site_label_2
_ccdc_geom_bond_type
C31   N2    A    
O12   H22   S    
C26   C32   S    
O14   H24   S    
C1    C8    S    
C2    C7    S    
C25   H10   S    
C17   H5    S    
O9    H19   S    
C18   H6    S    
C4    C46   A    
O11   H21   S    
C24   H9    S    
C22   C35   S    
O8    Zn2   S    
C39   I1    S    
C35   C37   A    
C8    C42   A    
C29   C32   A    
C2    O2    A    
C21   H8    S    
C15   N1    A    
C4    H16   S    
O3    Zn2   S    
C18   C19   A    
C17   C19   A    
C20   C24   A    
C40   I4    S    
C37   H1    S    
C44   O12   S    
C19   C27   S    
C9    C10   A    
C38   H2    S    
C15   H3    S    
C21   C27   A    
N2    Zn2   S    
C28   H11   S    
C13   C14   A    
C41   C43   A    
C9    O13   S    
C42   C44   A    
O6    Zn1   S    
C44   C46   A    
C3    H15   S    
C33   C40   S    
C34   C39   S    
C43   O11   S    
C28   C32   A    
C4    C6    A    
C39   C40   S    
C5    C7    A    
C12   C45   S    
C6    C8    A    
C10   O14   S    
C25   C26   A    
C6    I6    S    
C3    C45   A    
C1    O3    A    
O2    Zn1   S    
C39   I3    S    
C31   H14   S    
C37   C38   A    
O10   H20   S    
C13   H17   S    
C41   O9    S    
C30   H13   S    
C33   C34   A    
C43   C45   A    
C30   N2    A    
C14   H18   S    
C12   C14   A    
O4    Zn2   S    
O7    Zn2   S    
C40   I2    S    
O1    Zn1   S    
C23   O8    A    
C22   O5    A    
O13   H23   S    
C15   C17   A    
C21   C25   A    
C23   O6    A    
C42   O10   S    
C24   C26   A    
C20   H7    S    
C3    C5    A    
C1    O1    A    
C20   C27   A    
N1    Zn1   S    
C36   C38   A    
C29   C31   A    
O5    Zn1   S    
C11   C13   A    
C28   C30   A    
C33   C35   A    
C34   C36   A    
C7    C41   A    
C16   H4    S    
C9    C12   A    
C10   C11   A    
C29   H12   S    
C16   C18   A    
C23   C36   S    
C11   C46   S    
C16   N1    A    
C22   O7    A    
C2    O4    A    
C5    I5    S    
