data_mof_unit_50700.cif
_audit_creation_date              2012-12-10T17:51:28-0500
_audit_creation_method            fapswitch 2.2
_symmetry_space_group_name_H-M    P1
_symmetry_Int_Tables_number       1
_space_group_crystal_system       triclinic
_cell_length_a                    9.972015
_cell_length_b                    10.714943
_cell_length_c                    16.525421
_cell_angle_alpha                 91.164772
_cell_angle_beta                  84.479775
_cell_angle_gamma                 91.626261
_cell_volume                      1756.5624997

loop_
_atom_site_label
_atom_site_type_symbol
_atom_type_description
_atom_site_fract_x
_atom_site_fract_y
_atom_site_fract_z
_atom_type_partial_charge
C1    C     C_R   0.502078 0.739227 0.493644 0.832352
C2    C     C_R   0.535214 0.545203 0.262814 -0.034080
C3    C     C_R   0.282631 0.875286 0.427721 -0.174157
C4    C     C_R   0.480868 0.501513 0.653096 0.859187
C5    C     C_R   0.156913 0.929117 0.428211 -0.191186
C6    C     C_R   0.131526 0.040830 0.471324 0.033021
C7    C     C_R   0.237869 0.103299 0.505744 -0.131497
C8    C     C_R   0.369729 0.056606 0.496688 0.069122
C9    C     C_R   0.386059 0.933675 0.469258 0.099747
C10   C     C_R   0.503067 0.872472 0.487814 -0.117966
C11   C     C_R   0.610664 0.938875 0.517697 -0.144511
C12   C     C_R   0.431892 0.448863 0.797081 -0.080575
C13   C     C_R   0.603532 0.065558 0.528920 -0.135890
C14   C     C_R   0.486488 0.126227 0.514888 -0.149763
C15   C     C_R   0.854416 0.657192 0.609738 -0.117559
C16   C     C_R   0.496076 0.260247 0.506562 0.913167
C17   C     C_R   0.924195 0.722806 0.667273 -0.232161
C18   C     C_R   0.052846 0.685818 0.681721 -0.231090
C19   C     C_R   0.106590 0.580318 0.640452 0.495409
C20   C     C_R   0.061557 0.553005 0.564022 -0.025836
C21   C     C_R   0.921616 0.568955 0.557412 0.152195
C22   C     C_R   0.933133 0.440358 0.441622 -0.170249
C23   C     C_R   0.461150 0.677303 0.160292 -0.132671
C24   C     C_R   0.075828 0.442207 0.438886 0.488819
C25   C     C_R   0.519917 0.505644 0.346761 0.879236
C26   C     C_R   0.469970 0.536411 0.737750 -0.005910
C27   C     C_R   0.495823 0.661404 0.758381 -0.268712
C28   C     C_R   0.482739 0.701550 0.839651 0.007529
C29   C     C_R   0.443217 0.612110 0.899582 0.077669
C30   C     C_R   0.416988 0.487146 0.877992 -0.108914
C31   C     C_2   0.996042 0.095082 0.479828 0.924816
C32   C     C_2   0.508778 0.835817 0.859556 0.908879
C33   C     C_R   0.445707 0.632314 0.238531 -0.133392
C34   C     C_R   0.645843 0.509293 0.209554 -0.181976
C35   C     C_R   0.660254 0.553053 0.130250 -0.141193
C36   C     C_R   0.564871 0.633490 0.104749 0.160625
C37   C     C_2   0.443299 0.640105 0.985780 -0.133377
C38   C     C_2   0.561033 0.653742 0.017959 -0.187252
H1    H     H_    0.524358 0.727576 0.710516 0.157404
H2    H     H_    0.874474 0.794593 0.705172 0.195391
H3    H     H_    0.363676 0.665926 0.280082 0.157891
H4    H     H_    0.095283 0.721375 0.735798 0.184935
H5    H     H_    0.718405 0.445312 0.228627 0.171374
H6    H     H_    0.654988 0.655219 0.978583 0.162420
H7    H     H_    0.388694 0.418485 0.924262 0.151061
H8    H     H_    0.388724 0.742140 0.142060 0.158772
H9    H     H_    0.412407 0.352066 0.780711 0.140829
H10   H     H_    0.350154 0.621771 0.023955 0.168604
H11   H     H_    0.876727 0.229483 0.532392 0.349057
H12   H     H_    0.741114 0.519004 0.087755 0.153324
H13   H     H_    0.181364 0.265624 0.706058 0.370429
H14   H     H_    0.321105 0.249125 0.311480 0.372073
H15   H     H_    0.481790 0.979617 0.939796 0.352195
H16   H     H_    0.699801 0.893040 0.533533 0.175110
H17   H     H_    0.297427 0.787613 0.395202 0.157190
H18   H     H_    0.078343 0.880639 0.398080 0.181166
H19   H     H_    0.214832 0.186058 0.541640 0.236170
H20   H     H_    0.689098 0.115999 0.549641 0.180361
H21   H     H_    0.881230 0.392863 0.394950 0.205507
H22   H     H_    0.751577 0.680109 0.605638 0.192413
N1    N     N_R   0.857140 0.501200 0.500750 -0.145605
N2    N     N_R   0.142740 0.501280 0.500770 -0.175647
O1    O     O_R   0.385310 0.683220 0.500000 -0.643569
O2    O     O_R   0.969440 0.194710 0.534492 -0.798096
O3    O     O_2   0.150949 0.489988 0.785555 -0.327709
O4    O     O_2   0.956397 0.406574 0.721513 -0.268781
O5    O     O_3   0.190485 0.331131 0.664311 -0.562125
O6    O     O_2   0.053260 0.281201 0.313349 -0.312024
O7    O     O_2   0.197728 0.465271 0.288681 -0.328445
O8    O     O_3   0.285686 0.280151 0.366030 -0.536246
O9    O     O_2   0.573676 0.902302 0.809814 -0.638208
O10   O     O_R   0.457297 0.887580 0.934114 -0.788769
O11   O     O_R   0.614640 0.683250 0.500010 -0.641966
O12   O     O_R   0.371780 0.500010 0.615800 -0.567520
O13   O     O_R   0.601110 0.500030 0.615800 -0.619880
O14   O     O_R   0.385360 0.316750 0.499990 -0.554040
O15   O     O_R   0.614690 0.316780 0.500000 -0.619834
O16   O     O_R   0.398890 0.499970 0.384200 -0.539149
O17   O     O_R   0.628220 0.499990 0.384200 -0.621367
O18   O     O_2   0.908117 0.054043 0.439090 -0.624561
S1    S     S_3+6 0.100891 0.450657 0.705839 0.037602
S2    S     S_3+6 0.154086 0.366996 0.349903 0.030149
Zn1   Zn    Zn3+2 0.346870 0.499980 0.499990 1.037850
Zn2   Zn    Zn3+2 0.653130 0.500020 0.500010 0.962409

loop_
_geom_bond_atom_site_label_1
_geom_bond_atom_site_label_2
_ccdc_geom_bond_type
N2    Zn1   S    
C15   H22   S    
C5    H18   S    
C35   C36   A    
O12   Zn1   S    
C7    C8    A    
C32   O10   S    
C26   C27   A    
C29   C30   A    
C28   C29   A    
C34   C35   A    
C18   H4    S    
O17   Zn2   S    
O13   Zn2   S    
C16   O15   A    
C24   S2    S    
C4    O13   A    
O7    S2    D    
C30   H7    S    
C3    H17   S    
O16   Zn1   S    
C19   C20   A    
C27   H1    S    
C8    C9    A    
C23   C33   A    
C8    C14   A    
C9    C10   A    
O11   Zn2   S    
C4    O12   A    
C2    C34   A    
C6    C31   S    
H11   O2    S    
C25   O17   A    
C13   C14   A    
C12   H9    S    
C1    O1    A    
O14   Zn1   S    
C32   O9    D    
C12   C26   A    
C34   H5    S    
C25   O16   A    
C28   C32   S    
C31   O18   D    
C22   H21   S    
C18   C19   A    
C13   H20   S    
O15   Zn2   S    
O1    Zn1   S    
C17   H2    S    
C38   H6    S    
C37   C38   D    
C3    C9    A    
O6    S2    D    
O3    S1    D    
C35   H12   S    
C17   C18   A    
H13   O5    S    
C37   H10   S    
C11   H16   S    
C2    C33   A    
O5    S1    S    
C22   C24   A    
C15   C17   A    
C24   N2    A    
C12   C30   A    
C16   O14   A    
C21   N1    A    
C31   O2    S    
C1    C10   S    
C3    C5    A    
N1    Zn2   S    
C4    C26   S    
C6    C7    A    
C33   H3    S    
C36   C38   S    
C1    O11   A    
C22   N1    A    
C11   C13   A    
C5    C6    A    
C2    C25   S    
C14   C16   S    
C20   N2    A    
O8    S2    S    
H14   O8    S    
C10   C11   A    
C15   C21   A    
C20   C21   A    
C23   C36   A    
C29   C37   S    
C27   C28   A    
C23   H8    S    
C19   S1    S    
H15   O10   S    
C7    H19   S    
O4    S1    D    
