data_mof_unit_54289.cif
_audit_creation_date              2012-12-10T18:50:02-0500
_audit_creation_method            fapswitch 2.2
_symmetry_space_group_name_H-M    P1
_symmetry_Int_Tables_number       1
_space_group_crystal_system       triclinic
_cell_length_a                    10.750453
_cell_length_b                    9.83125
_cell_length_c                    10.648239
_cell_angle_alpha                 90.331667
_cell_angle_beta                  90.360857
_cell_angle_gamma                 90.463383
_cell_volume                      1125.33822834

loop_
_atom_site_label
_atom_site_type_symbol
_atom_type_description
_atom_site_fract_x
_atom_site_fract_y
_atom_site_fract_z
_atom_type_partial_charge
C1    C     C_R   0.260474 0.499483 0.500006 0.907952
C2    C     C_3   0.614518 0.573489 0.929995 -0.350966
C3    C     C_R   0.065723 0.394322 0.439362 -0.270326
C4    C     C_R   0.068702 0.605589 0.557752 -0.236257
C5    C     C_R   0.937936 0.395745 0.433480 0.377075
C6    C     C_R   0.941188 0.609047 0.558651 0.439082
C7    C     C_R   0.874011 0.502239 0.496671 -0.344639
C8    C     C_R   0.129232 0.498866 0.499995 -0.176892
C9    C     C_R   0.546689 0.073008 0.600017 -0.024221
C10   C     C_R   0.546046 0.929177 0.600291 0.017574
C11   C     C_R   0.453037 0.927029 0.399991 -0.051581
C12   C     C_R   0.452916 0.070935 0.400048 -0.017768
C13   C     C_R   0.498116 0.499418 0.257584 0.853631
C14   C     C_R   0.740549 0.500677 0.498990 0.983540
C15   C     C_R   0.498684 0.499959 0.742559 0.847934
C16   C     C_3   0.380085 0.572880 0.072018 -0.405400
C17   C     C_3   0.494379 0.349715 0.070567 -0.373055
C18   C     C_3   0.379433 0.571822 0.927559 -0.391773
C19   C     C_3   0.496534 0.350185 0.927932 -0.401202
C20   C     C_3   0.615499 0.571314 0.073724 -0.397967
C21   C     C_3   0.496976 0.498184 0.121370 0.159897
C22   C     C_3   0.497200 0.498981 0.879073 0.139709
H1    H     H_    0.379583 0.680017 0.106462 0.182764
H2    H     H_    0.575984 0.292066 0.105724 0.232328
H3    H     H_    0.415234 0.871833 0.320125 0.127520
H4    H     H_    0.415039 0.124530 0.320253 0.120755
H5    H     H_    0.294172 0.522245 0.107127 0.163471
H6    H     H_    0.408920 0.295865 0.102919 0.166117
H7    H     H_    0.294260 0.518639 0.892149 0.171632
H8    H     H_    0.413451 0.293796 0.891434 0.184247
H9    H     H_    0.376579 0.678353 0.892821 0.184341
H10   H     H_    0.580879 0.295679 0.895053 0.183889
H11   H     H_    0.620114 0.677669 0.110123 0.191469
H12   H     H_    0.700245 0.518417 0.107591 0.209897
H13   H     H_    0.614952 0.681191 0.898487 0.215119
H14   H     H_    0.699949 0.523585 0.894149 0.199119
H15   H     H_    0.116751 0.313813 0.393280 0.202171
H16   H     H_    0.122079 0.685642 0.603776 0.219444
H17   H     H_    0.584492 0.128184 0.679883 0.124414
H18   H     H_    0.582707 0.875804 0.680685 0.164567
N1    N     N_R   0.499970 0.857200 0.499970 -0.086833
N2    N     N_R   0.499970 0.142800 0.499970 -0.078790
O1    O     O_R   0.316750 0.614620 0.499990 -0.628779
O2    O     O_R   0.316750 0.385380 0.499990 -0.627891
O3    O     O_R   0.499970 0.614670 0.314790 -0.643641
O4    O     O_R   0.499970 0.385330 0.314790 -0.608786
O5    O     O_R   0.683220 0.614710 0.500010 -0.541356
O6    O     O_R   0.683220 0.385290 0.500010 -0.551997
O7    O     O_R   0.500010 0.614660 0.685200 -0.619014
O8    O     O_R   0.500010 0.385340 0.685200 -0.649626
Zn1   Zn    Zn3+2 0.499980 0.653120 0.500000 1.008435
Zn2   Zn    Zn3+2 0.499980 0.346880 0.500000 1.006723
S1    S     S_3+6 0.866155 0.265835 0.340401 0.042031
O9    O     O_2   0.813255 0.158330 0.424942 -0.202050
O10   O     O_2   0.763362 0.323873 0.261759 -0.361091
O11   O     O_3   0.970281 0.192409 0.244708 -0.536141
H19   H     H_    0.991663 0.263310 0.182540 0.342302
S2    S     S_3+6 0.874626 0.749575 0.638988 0.014011
O12   O     O_2   0.823056 0.847061 0.544110 -0.248517
O13   O     O_2   0.772467 0.701135 0.723215 -0.373901
O14   O     O_3   0.982253 0.831600 0.727110 -0.569641
H20   H     H_    0.937878 0.909768 0.764476 0.386939

loop_
_geom_bond_atom_site_label_1
_geom_bond_atom_site_label_2
_ccdc_geom_bond_type
C2    H13   S    
C2    C22   S    
O8    Zn2   S    
C11   C12   A    
C14   O5    A    
N1    Zn1   S    
C1    C8    S    
C9    C10   A    
C6    S2    S    
C1    O2    A    
O6    Zn2   S    
C4    C8    A    
C20   H12   S    
O2    Zn2   S    
S2    O14   S    
S1    O10   D    
C13   C21   S    
C15   C22   S    
C18   H7    S    
S2    O13   D    
S1    O9    D    
C20   C21   S    
C10   N1    A    
C13   O3    A    
C17   H6    S    
O1    Zn1   S    
C9    N2    A    
C16   C21   S    
C16   H5    S    
C20   H11   S    
C5    S1    S    
C17   C19   S    
C4    H16   S    
C11   N1    A    
C16   H1    S    
C15   O7    A    
O14   H20   S    
S1    O11   S    
C4    C6    A    
O3    Zn1   S    
C12   N2    A    
C17   H2    S    
O4    Zn2   S    
C9    H17   S    
C19   C22   S    
O11   H19   S    
C3    H15   S    
C16   C18   S    
C3    C8    A    
C15   O8    A    
C2    H14   S    
C5    C7    A    
C14   O6    A    
C11   H3    S    
C13   O4    A    
C10   H18   S    
O5    Zn1   S    
C18   H9    S    
C3    C5    A    
S2    O12   D    
C18   C22   S    
C19   H8    S    
C2    C20   S    
C19   H10   S    
C1    O1    A    
C7    C14   S    
C17   C21   S    
C6    C7    A    
C12   H4    S    
O7    Zn1   S    
N2    Zn2   S    
