data_mof_unit_43411.cif
_audit_creation_date              2012-12-11T15:41:08-0500
_audit_creation_method            fapswitch 2.2
_symmetry_space_group_name_H-M    P1
_symmetry_Int_Tables_number       1
_space_group_crystal_system       triclinic
_cell_length_a                    19.167425
_cell_length_b                    10.958785
_cell_length_c                    18.878214
_cell_angle_alpha                 89.858555
_cell_angle_beta                  90.354516
_cell_angle_gamma                 90.109525
_cell_volume                      3965.30562694

loop_
_atom_site_label
_atom_site_type_symbol
_atom_type_description
_atom_site_fract_x
_atom_site_fract_y
_atom_site_fract_z
_atom_type_partial_charge
C1    C     C_R   0.723972 0.963205 0.856436 0.550943
C2    C     C_R   0.272657 0.956066 0.146929 0.568624
C3    C     C_R   0.223964 0.463225 0.856442 0.550936
C4    C     C_R   0.772656 0.456063 0.146930 0.568598
C5    C     C_R   0.713721 0.499740 0.034154 -0.037920
C6    C     C_R   0.292974 0.492190 0.966577 -0.085561
C7    C     C_R   0.213742 0.999769 0.034146 -0.037850
C8    C     C_R   0.792949 0.992264 0.966586 -0.085558
C9    C     C_R   0.709199 0.484433 0.961349 0.043998
C10   C     C_R   0.300723 0.479054 0.039387 0.033308
C11   C     C_R   0.209223 0.984462 0.961342 0.043868
C12   C     C_R   0.800690 0.979136 0.039397 0.033303
C13   C     C_R   0.787824 0.313253 0.970952 -0.150047
C14   C     C_R   0.183201 0.402308 0.046757 -0.161467
C15   C     C_R   0.287813 0.813235 0.970954 -0.150041
C16   C     C_R   0.683211 0.902170 0.046734 -0.161425
C17   C     C_R   0.789644 0.325025 0.043896 -0.152441
C18   C     C_R   0.177470 0.408062 0.973509 -0.113362
C19   C     C_R   0.289639 0.825019 0.043896 -0.152435
C20   C     C_R   0.677496 0.907895 0.973486 -0.113331
C21   C     C_3   0.638388 0.533200 0.040056 -0.125411
C22   C     C_3   0.367617 0.466425 0.951600 -0.128301
C23   C     C_3   0.138416 0.033284 0.040042 -0.125421
C24   C     C_3   0.867623 0.966688 0.951631 -0.128222
C25   C     C_3   0.633251 0.515347 0.960589 0.570483
C26   C     C_3   0.376046 0.446974 0.030605 0.575295
C27   C     C_3   0.133282 0.015439 0.960573 0.570478
C28   C     C_3   0.876047 0.947252 0.030639 0.575301
C29   C     C_R   0.745620 0.390276 0.928662 0.023230
C30   C     C_R   0.247844 0.424743 0.079881 0.009243
C31   C     C_R   0.245623 0.890277 0.928660 0.023228
C32   C     C_R   0.747835 0.924722 0.079876 0.009235
C33   C     C_R   0.492146 0.159907 0.428154 -0.048052
C34   C     C_R   0.495403 0.175753 0.577268 -0.055652
C35   C     C_R   0.992212 0.659887 0.428122 -0.047831
C36   C     C_R   0.995476 0.675727 0.577237 -0.055559
C37   C     C_R   0.514182 0.263754 0.462868 0.038270
C38   C     C_R   0.507646 0.275685 0.533056 0.033884
C39   C     C_R   0.014328 0.763696 0.462827 0.037957
C40   C     C_R   0.007832 0.775588 0.533019 0.034184
C41   C     C_R   0.470028 0.067936 0.545647 0.236299
C42   C     C_R   0.469682 0.058269 0.471206 0.245254
C43   C     C_R   0.970097 0.567917 0.545616 0.236330
C44   C     C_R   0.969754 0.558247 0.471177 0.245307
C45   C     C_R   0.529871 0.177670 0.850529 0.584663
C46   C     C_R   0.469347 0.176818 0.148789 0.615307
C47   C     C_R   0.029869 0.677671 0.850527 0.584621
C48   C     C_R   0.969343 0.676819 0.148786 0.615247
C49   C     C_3   0.541590 0.390579 0.451760 0.177227
C50   C     C_3   0.531258 0.406228 0.531475 0.139603
C51   C     C_3   0.041596 0.890645 0.451751 0.176936
C52   C     C_3   0.031298 0.906194 0.531483 0.139185
C53   C     C_R   0.762452 0.441644 0.429432 -0.039682
C54   C     C_R   0.239984 0.421463 0.575161 0.003393
C55   C     C_R   0.262466 0.941678 0.429439 -0.039589
C56   C     C_R   0.739982 0.921500 0.575156 0.003277
C57   C     C_R   0.798856 0.348136 0.461828 0.085339
C58   C     C_R   0.183007 0.428769 0.528687 -0.007064
C59   C     C_R   0.298814 0.848095 0.461820 0.085287
C60   C     C_R   0.683015 0.928883 0.528675 -0.007186
C61   C     C_R   0.795849 0.332087 0.533423 0.039832
C62   C     C_R   0.190537 0.419213 0.456743 -0.070697
C63   C     C_R   0.295803 0.832030 0.533412 0.039828
C64   C     C_R   0.690552 0.919315 0.456731 -0.070762
C65   C     C_R   0.730736 0.517177 0.546977 0.371988
C66   C     C_R   0.314584 0.400284 0.473554 0.350736
C67   C     C_R   0.230819 0.017241 0.546999 0.371798
C68   C     C_R   0.814587 0.900169 0.473567 0.350812
C69   C     C_R   0.733364 0.533331 0.472962 -0.111747
C70   C     C_R   0.306826 0.412787 0.546874 -0.124933
C71   C     C_R   0.233453 0.033418 0.472984 -0.111777
C72   C     C_R   0.806825 0.912732 0.546882 -0.124951
C73   C     C_3   0.797828 0.215063 0.446681 -0.268154
C74   C     C_3   0.116081 0.359081 0.527760 -0.215354
C75   C     C_3   0.297715 0.715030 0.446662 -0.268174
C76   C     C_3   0.616067 0.859266 0.527739 -0.215187
C77   C     C_3   0.794205 0.197012 0.526093 -0.251384
C78   C     C_3   0.123468 0.351732 0.448058 -0.261927
C79   C     C_3   0.294096 0.696966 0.526074 -0.251406
C80   C     C_3   0.623459 0.851910 0.448039 -0.261839
C81   C     C_R   0.756263 0.408537 0.576529 0.070402
C82   C     C_R   0.255752 0.399527 0.427717 0.022775
C83   C     C_R   0.256267 0.908532 0.576531 0.070582
C84   C     C_R   0.755762 0.899515 0.427720 0.022812
C85   C     C_R   0.736823 0.357782 0.854693 0.558457
C86   C     C_R   0.261731 0.364681 0.147526 0.573060
C87   C     C_R   0.236824 0.857784 0.854691 0.558396
C88   C     C_R   0.761730 0.864679 0.147525 0.573004
C89   C     C_R   0.727434 0.954152 0.648078 0.558095
C90   C     C_R   0.274843 0.962663 0.354943 0.551639
C91   C     C_R   0.227435 0.454146 0.648079 0.558129
C92   C     C_R   0.774835 0.462642 0.354937 0.551634
C93   C     C_R   0.527533 0.177383 0.646490 0.529235
C94   C     C_R   0.469339 0.174612 0.355798 0.560160
C95   C     C_R   0.027537 0.677378 0.646488 0.529125
C96   C     C_R   0.969350 0.674612 0.355788 0.560369
C97   C     C_R   0.740419 0.363836 0.647313 0.589077
C98   C     C_R   0.262468 0.357192 0.355362 0.560026
C99   C     C_R   0.240422 0.863844 0.647318 0.589101
C100  C     C_R   0.762471 0.857184 0.355364 0.560100
C101  C     C_2   0.496370 0.170139 0.919788 -0.038629
C102  C     C_2   0.498980 0.161841 0.077614 -0.011384
C103  C     C_2   0.996363 0.670148 0.919784 -0.038700
C104  C     C_2   0.998967 0.661842 0.077606 -0.011413
C105  C     C_2   0.474800 0.072383 0.034018 0.216184
C106  C     C_2   0.495669 0.067296 0.958491 0.169863
C107  C     C_2   0.974777 0.572392 0.034011 0.216066
C108  C     C_2   0.995638 0.567301 0.958481 0.169795
C109  C     C_R   0.752333 0.418415 0.076426 0.008410
C110  C     C_R   0.234206 0.445497 0.932071 0.015818
C111  C     C_R   0.252338 0.918427 0.076422 0.008457
C112  C     C_R   0.734219 0.945450 0.932062 0.015800
Cr1   Cr    Cr6+3 0.769260 0.163750 0.750730 1.029170
Cr2   Cr    Cr6+3 0.230740 0.163750 0.249270 1.016941
Cr3   Cr    Cr6+3 0.269260 0.663750 0.750730 1.029157
Cr4   Cr    Cr6+3 0.730740 0.663750 0.249270 1.016803
Cr5   Cr    Cr6+3 0.612640 0.009910 0.748780 1.082318
Cr6   Cr    Cr6+3 0.387360 0.009910 0.251220 1.063659
Cr7   Cr    Cr6+3 0.112640 0.509910 0.748780 1.082297
Cr8   Cr    Cr6+3 0.887360 0.509910 0.251220 1.063658
Cr9   Cr    Cr6+3 0.614190 0.322400 0.747710 1.081315
Cr10  Cr    Cr6+3 0.385810 0.322400 0.252290 1.102089
Cr11  Cr    Cr6+3 0.114190 0.822400 0.747710 1.081522
Cr12  Cr    Cr6+3 0.885810 0.822400 0.252290 1.102207
H1    H     H_    0.596738 0.391667 0.433422 0.109767
H2    H     H_    0.488850 0.471035 0.546249 0.141749
H3    H     H_    0.096730 0.891963 0.433376 0.110175
H4    H     H_    0.988826 0.970825 0.546326 0.141436
H5    H     H_    0.713336 0.616498 0.449991 0.142281
H6    H     H_    0.352358 0.413305 0.581154 0.125936
H7    H     H_    0.213498 0.116644 0.450025 0.142268
H8    H     H_    0.852351 0.913171 0.581172 0.125942
H9    H     H_    0.847686 0.182930 0.423506 0.190609
H10   H     H_    0.072037 0.415522 0.545150 0.193314
H11   H     H_    0.347553 0.682824 0.423476 0.190790
H12   H     H_    0.572044 0.915756 0.545127 0.193266
H13   H     H_    0.749737 0.185525 0.418193 0.112405
H14   H     H_    0.119895 0.269105 0.554555 0.217093
H15   H     H_    0.249605 0.685574 0.418180 0.112383
H16   H     H_    0.619850 0.769285 0.554536 0.217216
H17   H     H_    0.743472 0.159378 0.543829 0.135266
H18   H     H_    0.128860 0.256835 0.428697 0.158080
H19   H     H_    0.243351 0.659389 0.543818 0.135226
H20   H     H_    0.628821 0.757006 0.428679 0.158072
H21   H     H_    0.841805 0.154473 0.549135 0.172738
H22   H     H_    0.085545 0.408033 0.418289 0.126698
H23   H     H_    0.341686 0.654386 0.549109 0.172818
H24   H     H_    0.585558 0.908256 0.418266 0.126656
H25   H     H_    0.533991 0.231946 0.057764 0.086039
H26   H     H_    0.479858 0.255425 0.943538 0.148013
H27   H     H_    0.033982 0.731940 0.057756 0.086047
H28   H     H_    0.979869 0.755441 0.943538 0.148002
H29   H     H_    0.817951 0.240013 0.948163 0.159360
H30   H     H_    0.139302 0.366199 0.076049 0.144339
H31   H     H_    0.317926 0.739970 0.948168 0.159366
H32   H     H_    0.639322 0.865986 0.076012 0.144349
H33   H     H_    0.822855 0.264391 0.074463 0.162890
H34   H     H_    0.129384 0.378361 0.949276 0.210197
H35   H     H_    0.322838 0.764373 0.074467 0.162748
H36   H     H_    0.629433 0.878087 0.949242 0.210240
H37   H     H_    0.131580 0.129519 0.057091 0.143257
H38   H     H_    0.895282 0.048636 0.931135 0.149696
H39   H     H_    0.631530 0.629430 0.057104 0.143192
H40   H     H_    0.395335 0.548300 0.931094 0.149746
H41   H     H_    0.607956 0.465225 0.071043 0.135514
H42   H     H_    0.374652 0.382254 0.919680 0.126650
H43   H     H_    0.107965 0.965329 0.071025 0.135526
H44   H     H_    0.874738 0.882535 0.919710 0.126712
O1    O     O_R   0.784290 0.290360 0.830540 -0.524717
O2    O     O_R   0.215710 0.290360 0.169460 -0.528721
O3    O     O_R   0.284290 0.790360 0.830540 -0.524724
O4    O     O_R   0.715710 0.790360 0.169460 -0.528764
O5    O     O_R   0.554690 0.080440 0.673480 -0.506093
O6    O     O_R   0.445310 0.080440 0.326520 -0.529021
O7    O     O_R   0.054690 0.580440 0.673480 -0.506123
O8    O     O_R   0.945310 0.580440 0.326520 -0.529025
O9    O     O_R   0.543980 0.282110 0.666770 -0.494544
O10   O     O_R   0.456020 0.282110 0.333230 -0.411331
O11   O     O_R   0.043980 0.782110 0.666770 -0.494283
O12   O     O_R   0.956020 0.782110 0.333230 -0.411162
O13   O     O_R   0.679070 0.374030 0.674430 -0.444409
O14   O     O_R   0.320930 0.374030 0.325570 -0.440143
O15   O     O_R   0.179070 0.874030 0.674430 -0.444260
O16   O     O_R   0.820930 0.874030 0.325570 -0.440191
O17   O     O_3   0.665360 0.165350 0.749070 -0.282041
O18   O     O_3   0.334640 0.165350 0.250930 -0.263616
O19   O     O_3   0.165360 0.665350 0.749070 -0.282085
O20   O     O_3   0.834640 0.665350 0.250930 -0.263612
O21   O     O_R   0.762610 0.041070 0.825230 -0.510152
O22   O     O_R   0.237390 0.041070 0.174770 -0.505136
O23   O     O_R   0.262610 0.541070 0.825230 -0.510157
O24   O     O_R   0.737390 0.541070 0.174770 -0.505161
O25   O     O_R   0.667390 0.924160 0.829970 -0.490771
O26   O     O_R   0.332610 0.924160 0.170030 -0.476685
O27   O     O_R   0.167390 0.424160 0.829970 -0.490771
O28   O     O_R   0.832610 0.424160 0.170030 -0.476672
O29   O     O_R   0.553980 0.081420 0.821780 -0.442605
O30   O     O_R   0.446020 0.081420 0.178220 -0.450939
O31   O     O_R   0.053980 0.581420 0.821780 -0.442625
O32   O     O_R   0.946020 0.581420 0.178220 -0.450988
O33   O     O_R   0.543210 0.283170 0.826740 -0.477167
O34   O     O_R   0.456790 0.283170 0.173260 -0.493239
O35   O     O_R   0.043210 0.783170 0.826740 -0.477140
O36   O     O_R   0.956790 0.783170 0.173260 -0.493093
O37   O     O_R   0.678350 0.375000 0.822720 -0.470786
O38   O     O_R   0.321650 0.375000 0.177280 -0.485444
O39   O     O_R   0.178350 0.875000 0.822720 -0.470771
O40   O     O_R   0.821650 0.875000 0.177280 -0.485375
O41   O     O_R   0.785060 0.289300 0.670580 -0.525938
O42   O     O_R   0.214940 0.289300 0.329420 -0.547177
O43   O     O_R   0.285060 0.789300 0.670580 -0.525945
O44   O     O_R   0.714940 0.789300 0.329420 -0.547202
O45   O     O_R   0.763330 0.040090 0.676940 -0.519247
O46   O     O_R   0.236670 0.040090 0.323060 -0.523216
O47   O     O_R   0.263330 0.540090 0.676940 -0.519259
O48   O     O_R   0.736670 0.540090 0.323060 -0.523269
O49   O     O_R   0.668160 0.923110 0.670000 -0.489544
O50   O     O_R   0.331840 0.923110 0.330000 -0.489395
O51   O     O_R   0.168160 0.423110 0.670000 -0.489541
O52   O     O_R   0.831840 0.423110 0.330000 -0.489387
O53   O     O_3   0.428217 0.986406 0.059130 -0.655597
H45   H     H_    0.410110 0.938786 0.018521 0.334918
O54   O     O_3   0.509534 0.956357 0.926820 -0.683419
H46   H     H_    0.509802 0.892055 0.963835 0.331335
O55   O     O_3   0.928192 0.486425 0.059128 -0.655614
H47   H     H_    0.910074 0.438819 0.018519 0.334937
O56   O     O_3   0.009465 0.456358 0.926797 -0.683416
H48   H     H_    0.009734 0.392049 0.963808 0.331379
O57   O     O_3   0.997192 0.966193 0.412253 -0.614435
H49   H     H_    0.019435 0.047955 0.412458 0.304487
O58   O     O_3   0.094501 0.924451 0.566365 -0.693718
H50   H     H_    0.086755 0.993246 0.599442 0.365461
O59   O     O_3   0.497281 0.466229 0.412220 -0.614352
H51   H     H_    0.519921 0.547662 0.411881 0.304376
O60   O     O_3   0.594459 0.424351 0.566380 -0.693568
H52   H     H_    0.586652 0.492842 0.599672 0.365588
F1    F     F_    0.701819 0.603748 0.588603 -0.664682
F2    F     F_    0.378773 0.377524 0.448503 -0.600446
F3    F     F_    0.201989 0.103870 0.588644 -0.664839
F4    F     F_    0.878762 0.877189 0.448539 -0.600522
F5    F     F_    0.589930 0.419453 0.941708 -0.626355
F6    F     F_    0.390416 0.327124 0.047534 -0.638894
F7    F     F_    0.089936 0.919585 0.941682 -0.626251
F8    F     F_    0.890520 0.827436 0.047565 -0.638887
O61   O     O_3   0.618701 0.623781 0.923994 -0.686344
H53   H     H_    0.620927 0.603290 0.872914 0.349651
O62   O     O_3   0.421667 0.531290 0.062016 -0.684698
H54   H     H_    0.420341 0.514840 0.113655 0.346451
O63   O     O_3   0.118763 0.123889 0.923980 -0.686148
H55   H     H_    0.121107 0.103431 0.872894 0.349548
O64   O     O_3   0.921584 0.031693 0.062070 -0.684765
H56   H     H_    0.920296 0.015154 0.113702 0.346446
O65   O     O_3   0.446964 0.969518 0.585023 -0.660241
H57   H     H_    0.437960 0.996828 0.634110 0.326230
O66   O     O_3   0.444243 0.950502 0.443664 -0.638653
H58   H     H_    0.472912 0.927573 0.402561 0.322501
O67   O     O_3   0.946989 0.469528 0.584990 -0.660319
H59   H     H_    0.937973 0.496854 0.634072 0.326220
O68   O     O_3   0.944285 0.450498 0.443639 -0.638734
H60   H     H_    0.972937 0.427554 0.402527 0.322447

loop_
_geom_bond_atom_site_label_1
_geom_bond_atom_site_label_2
_ccdc_geom_bond_type
C58   C62   A    
C39   C51   S    
C4    C109  S    
C67   C83   A    
C87   O3    A    
Cr2   O22   S    
C55   C59   A    
C51   O57   S    
C6    C110  A    
C41   C42   A    
C14   C18   A    
C89   O45   A    
Cr11  O35   S    
O54   H46   S    
Cr8   O32   S    
C34   C93   S    
Cr9   O37   S    
Cr4   O48   S    
C53   C69   A    
C33   C94   S    
C86   O38   A    
C52   H4    S    
C9    C25   S    
O64   H56   S    
C63   C79   S    
C35   C96   S    
C65   C69   A    
C15   C19   A    
Cr4   O20   S    
O63   H55   S    
Cr8   O28   S    
C81   C97   S    
C48   O32   A    
C100  O44   A    
C21   H39   S    
C33   C42   A    
C46   C102  S    
C104  H27   S    
C13   C29   A    
C24   H44   S    
C14   C30   A    
Cr12  O16   S    
C55   C90   S    
C78   H18   S    
C1    C112  S    
Cr10  O10   S    
O65   H57   S    
C75   H11   S    
Cr10  O18   S    
C3    C110  S    
C45   O29   A    
Cr2   O46   S    
C6    C22   S    
C41   O65   S    
C101  H26   S    
C70   H6    S    
C22   H40   S    
C88   O4    A    
Cr4   O4    S    
C102  C105  D    
C4    O28   A    
O67   H59   S    
C94   O10   A    
C57   C73   S    
C57   C61   A    
C92   O52   A    
C95   O7    A    
C64   C84   A    
C7    C11   A    
Cr11  O15   S    
Cr12  O40   S    
Cr7   O7    S    
C20   C112  A    
Cr1   O21   S    
Cr8   O8    S    
C79   H19   S    
C106  O54   S    
C61   C77   S    
C56   C72   A    
C16   H32   S    
C91   O47   A    
O60   H52   S    
Cr5   O49   S    
C103  C108  D    
C50   H2    S    
Cr1   O45   S    
C8    C12   A    
C30   C86   S    
C20   H36   S    
C17   H33   S    
O59   H51   S    
C15   H31   S    
C7    C23   S    
C91   O51   A    
Cr8   O52   S    
Cr3   O23   S    
C10   C26   S    
C65   F1    S    
Cr3   O19   S    
C62   C82   A    
C46   O34   A    
C11   C31   A    
C45   O33   A    
C83   C99   S    
O61   H53   S    
C12   C32   A    
Cr7   O51   S    
C25   F5    S    
C82   C98   S    
C48   C104  S    
C47   O31   A    
C34   C41   A    
C88   O40   A    
C4    O24   A    
C64   C80   S    
Cr8   O20   S    
C73   H13   S    
C34   C38   A    
C98   O42   A    
O57   H49   S    
C85   O1    A    
C72   H8    S    
C77   H17   S    
C76   H16   S    
C76   H12   S    
Cr12  O12   S    
C2    C111  S    
C31   C87   S    
Cr11  O39   S    
C51   C52   S    
C68   C84   A    
C18   C110  A    
C93   O5    A    
C36   C40   A    
C47   C103  S    
Cr11  O11   S    
C68   F4    S    
C49   O59   S    
C39   C40   A    
Cr12  O20   S    
C93   O9    A    
C99   O43   A    
Cr9   O9    S    
C102  H25   S    
C80   H20   S    
C40   C52   S    
C71   H7    S    
C60   C76   S    
C3    O27   A    
C56   C60   A    
C63   C83   A    
C68   C72   A    
C2    O26   A    
Cr9   O17   S    
C84   C100  S    
C98   O14   A    
C80   H24   S    
C1    O25   A    
C43   C44   A    
Cr6   O50   S    
C37   C38   A    
C18   H34   S    
Cr6   O6    S    
C3    O23   A    
C66   C82   A    
O53   H45   S    
C74   H14   S    
C10   C30   A    
C65   C81   A    
O56   H48   S    
C54   C70   A    
C11   C27   S    
C16   C20   A    
Cr1   O17   S    
C53   C92   S    
O55   H47   S    
Cr3   O47   S    
Cr10  O38   S    
C96   O12   A    
C15   C31   A    
C35   C44   A    
C87   O39   A    
C37   C49   S    
C97   O41   A    
C103  H28   S    
C94   O6    A    
C23   H43   S    
C95   O11   A    
C56   C89   S    
Cr12  O36   S    
C23   C27   S    
C45   C101  S    
C22   C26   S    
Cr7   O31   S    
Cr7   O27   S    
C32   C88   S    
C76   C80   S    
C13   H29   S    
C107  C108  S    
O68   H60   S    
Cr6   O30   S    
Cr5   O25   S    
C59   C75   S    
C90   O46   A    
Cr5   O29   S    
C26   O62   S    
C58   C74   S    
C24   C28   S    
Cr9   O13   S    
C54   C58   A    
Cr5   O5    S    
C101  C106  D    
Cr2   O2    S    
C21   C25   S    
Cr1   O1    S    
C53   C57   A    
C47   O35   A    
C73   H9    S    
C86   O2    A    
C29   C85   S    
C62   C78   S    
C24   H38   S    
C2    O22   A    
C5    C9    A    
C75   H15   S    
C17   C109  A    
C6    C10   A    
Cr6   O26   S    
C79   H23   S    
O62   H54   S    
C26   F6    S    
C52   O58   S    
C97   O13   A    
C107  O55   S    
C38   C50   S    
C108  O56   S    
C19   C111  A    
C16   C32   A    
C49   H1    S    
C105  C106  S    
C48   O36   A    
C59   C63   A    
Cr2   O18   S    
Cr3   O43   S    
C33   C37   A    
C60   C64   A    
C19   H35   S    
Cr2   O42   S    
C8    C112  A    
C27   O63   S    
C28   O64   S    
Cr1   O41   S    
C54   C91   S    
Cr4   O44   S    
C61   C81   A    
C14   H30   S    
C44   O68   S    
C9    C29   A    
Cr9   O33   S    
C36   C95   S    
Cr10  O34   S    
C66   C70   A    
C77   H21   S    
C5    C109  A    
C42   O66   S    
C105  O53   S    
C35   C39   A    
C74   H10   S    
C67   F3    S    
C8    C24   S    
C7    C111  A    
C27   F7    S    
C92   O48   A    
C67   C71   A    
Cr11  O19   S    
C50   O60   S    
C100  O16   A    
Cr7   O19   S    
C90   O50   A    
C46   O30   A    
C78   H22   S    
C21   H41   S    
C89   O49   A    
C13   C17   A    
C22   H42   S    
Cr10  O14   S    
C5    C21   S    
C51   H3    S    
Cr3   O3    S    
C69   H5    S    
C49   C50   S    
C74   C78   S    
O58   H50   S    
Cr6   O18   S    
C73   C77   S    
Cr4   O24   S    
C36   C43   A    
Cr5   O17   S    
C99   O15   A    
C28   F8    S    
C43   O67   S    
C12   C28   S    
C85   O37   A    
C96   O8    A    
C75   C79   S    
C104  C107  D    
C55   C71   A    
O66   H58   S    
C66   F2    S    
C25   O61   S    
C23   H37   S    
C1    O21   A    
