data_mof_unit_39030.cif
_audit_creation_date              2012-12-10T17:58:16-0500
_audit_creation_method            fapswitch 2.2
_symmetry_space_group_name_H-M    P1
_symmetry_Int_Tables_number       1
_space_group_crystal_system       triclinic
_cell_length_a                    9.517365
_cell_length_b                    10.821603
_cell_length_c                    15.447147
_cell_angle_alpha                 89.920558
_cell_angle_beta                  74.646678
_cell_angle_gamma                 89.814927
_cell_volume                      1534.16328256

loop_
_atom_site_label
_atom_site_type_symbol
_atom_type_description
_atom_site_fract_x
_atom_site_fract_y
_atom_site_fract_z
_atom_type_partial_charge
C1    C     C_R   0.999974 0.262083 0.500361 0.790087
C2    C     C_R   0.999845 0.737927 0.500172 0.785886
C3    C     C_R   0.586675 0.490377 0.096201 -0.227214
C4    C     C_R   0.425011 0.581823 0.910561 -0.230301
C5    C     C_R   0.732404 0.475251 0.051221 -0.242120
C6    C     C_R   0.279759 0.599433 0.956021 -0.242824
C7    C     C_R   0.868020 0.064293 0.514923 -0.187842
C8    C     C_R   0.131581 0.935738 0.487207 -0.194219
C9    C     C_R   0.867865 0.936491 0.515028 -0.198774
C10   C     C_R   0.131663 0.063554 0.487431 -0.185602
C11   C     C_R   0.999692 0.871773 0.500724 -0.009901
C12   C     C_R   0.999931 0.128250 0.500955 -0.012354
C13   C     C_R   0.550821 0.425070 0.556972 -0.265213
C14   C     C_R   0.449778 0.573497 0.442236 -0.246975
C15   C     C_R   0.399076 0.424628 0.558298 0.572263
C16   C     C_R   0.599743 0.575912 0.442691 0.567185
C17   C     C_R   0.918374 0.499800 0.672289 0.799835
C18   C     C_R   0.081642 0.502353 0.327805 0.799833
C19   C     C_R   0.873567 0.498951 0.770813 -0.050061
C20   C     C_R   0.127289 0.517342 0.230007 -0.048418
C21   C     C_R   0.925719 0.466270 0.913913 -0.222915
C22   C     C_R   0.082674 0.589141 0.091518 -0.232078
C23   C     C_R   0.973387 0.474097 0.820784 -0.195710
C24   C     C_R   0.031305 0.562070 0.182589 -0.197254
C25   C     C_R   0.726902 0.519895 0.814958 -0.259354
C26   C     C_R   0.273887 0.497971 0.185389 -0.256606
C27   C     C_R   0.676693 0.516614 0.909072 0.093524
C28   C     C_R   0.329795 0.529306 0.094514 0.093725
C29   C     C_R   0.778468 0.486269 0.958294 0.170179
C30   C     C_R   0.230548 0.572481 0.047089 0.172306
C31   C     C_R   0.527826 0.538470 0.955233 0.067026
C32   C     C_R   0.480802 0.518223 0.049598 0.067575
Cu1   Cu    Cu3+1 0.140660 0.500020 0.500000 0.978521
Cu2   Cu    Cu3+1 0.859340 0.499980 0.500000 0.973770
H1    H     H_    0.809349 0.453008 0.089610 0.152191
H2    H     H_    0.205085 0.633713 0.919288 0.150168
H3    H     H_    0.341989 0.457307 0.223414 0.148713
H4    H     H_    0.653044 0.535007 0.773984 0.148618
H5    H     H_    0.917728 0.578715 0.216186 0.179812
H6    H     H_    0.087282 0.457595 0.787898 0.161979
H7    H     H_    0.003801 0.442848 0.951194 0.145069
H8    H     H_    0.007161 0.625032 0.056040 0.142908
H9    H     H_    0.561563 0.482691 0.168179 0.142940
H10   H     H_    0.453715 0.607083 0.840650 0.142342
H11   H     H_    0.765037 0.112778 0.526180 0.151662
H12   H     H_    0.234672 0.887288 0.475893 0.143274
H13   H     H_    0.764722 0.888642 0.526714 0.141917
H14   H     H_    0.234716 0.111449 0.476302 0.154786
H15   H     H_    0.594096 0.365306 0.599592 0.167120
H16   H     H_    0.410765 0.629472 0.395530 0.162134
N1    N     N_R   0.352080 0.500030 0.499980 -0.203569
N2    N     N_R   0.647920 0.499970 0.500020 -0.202354
O1    O     O_R   0.118740 0.319660 0.500000 -0.540385
O2    O     O_R   0.881260 0.680340 0.500000 -0.558427
O3    O     O_R   0.881170 0.319630 0.500010 -0.595034
O4    O     O_R   0.118830 0.680370 0.499990 -0.593337
O5    O     O_R   0.055570 0.500030 0.629830 -0.540826
O6    O     O_R   0.944430 0.499970 0.370170 -0.534096
O7    O     O_R   0.818000 0.500000 0.629840 -0.596720
O8    O     O_R   0.182000 0.500000 0.370160 -0.594976
O9    O     O_3   0.294174 0.348345 0.613403 -0.581214
C33   C     C_3   0.339943 0.280601 0.679436 0.012907
H17   H     H_    0.240880 0.258248 0.733787 0.167934
H18   H     H_    0.408259 0.336020 0.713209 0.121522
C34   C     C_3   0.410189 0.157551 0.640937 -0.371672
H19   H     H_    0.325258 0.096668 0.626564 0.224018
H20   H     H_    0.494295 0.172659 0.576707 0.204379
C35   C     C_3   0.480412 0.092281 0.706537 -0.905243
H21   H     H_    0.568898 0.150121 0.719529 0.257744
H22   H     H_    0.528040 0.002939 0.677357 0.251440
H23   H     H_    0.397753 0.073797 0.770914 0.260293
O10   O     O_3   0.702869 0.644359 0.380702 -0.589397
C36   C     C_3   0.654349 0.764871 0.366930 0.011570
H24   H     H_    0.742134 0.830325 0.370757 0.175279
H25   H     H_    0.555910 0.795893 0.419456 0.110753
C37   C     C_3   0.631240 0.774908 0.272676 -0.357653
H26   H     H_    0.737272 0.761474 0.221857 0.221848
H27   H     H_    0.556047 0.701660 0.262197 0.212948
C38   C     C_3   0.568642 0.900789 0.258005 -0.896292
H28   H     H_    0.460437 0.914599 0.306511 0.250955
H29   H     H_    0.555093 0.905845 0.188864 0.261536
H30   H     H_    0.643349 0.975700 0.266591 0.254458

loop_
_geom_bond_atom_site_label_1
_geom_bond_atom_site_label_2
_ccdc_geom_bond_type
C27   C29   A    
C36   H24   S    
C16   O10   S    
C37   C38   S    
C14   H16   S    
C3    H9    S    
C7    H11   S    
C37   H27   S    
C8    C11   A    
C2    O2    A    
C23   H6    S    
C24   H5    S    
C1    O1    A    
C33   H18   S    
C18   O6    A    
C31   C32   A    
C35   H21   S    
C34   H20   S    
C15   N1    A    
C18   C20   S    
Cu1   O4    S    
Cu2   O3    S    
C36   H25   S    
C3    C32   A    
C1    C12   S    
C2    C11   S    
C5    C29   A    
Cu1   O1    S    
C7    C12   A    
C27   C31   A    
C20   C24   A    
C28   C32   A    
C37   H26   S    
C4    C6    A    
C21   H7    S    
C38   H29   S    
C4    H10   S    
C21   C29   A    
C19   C23   A    
C33   H17   S    
C25   H4    S    
C13   N2    A    
C14   N1    A    
C34   C35   S    
Cu1   Cu2   S    
C15   O9    S    
C9    C11   A    
C10   C12   A    
C17   O7    A    
C13   H15   S    
C18   O8    A    
C6    C30   A    
Cu2   O2    S    
Cu1   O8    S    
C13   C15   A    
C10   H14   S    
Cu2   O7    S    
C36   C37   S    
C14   C16   A    
C25   C27   A    
C7    C9    A    
Cu1   O5    S    
C22   C30   A    
C33   C34   S    
Cu2   N2    S    
C16   N2    A    
O10   C36   S    
C3    C5    A    
C38   H30   S    
C26   H3    S    
C9    H13   S    
Cu1   N1    S    
C26   C28   A    
C21   C23   A    
C1    O3    A    
C2    O4    A    
C22   H8    S    
C20   C26   A    
C35   H23   S    
C5    H1    S    
C28   C30   A    
C17   C19   S    
C6    H2    S    
C22   C24   A    
O9    C33   S    
C19   C25   A    
C8    H12   S    
C4    C31   A    
C38   H28   S    
C8    C10   A    
C34   H19   S    
Cu2   O6    S    
C35   H22   S    
C17   O5    A    
