data_mof_unit_21271.cif
_audit_creation_date              2012-10-26T17:10:23-0400
_audit_creation_method            fapswitch 2.2
_symmetry_space_group_name_H-M    P1
_symmetry_Int_Tables_number       1
_space_group_crystal_system       triclinic
_cell_length_a                    16.887347
_cell_length_b                    16.890494
_cell_length_c                    16.893509
_cell_angle_alpha                 68.139831
_cell_angle_beta                  68.156292
_cell_angle_gamma                 68.16458
_cell_volume                      3995.79606269

loop_
_atom_site_label
_atom_site_type_symbol
_atom_type_description
_atom_site_fract_x
_atom_site_fract_y
_atom_site_fract_z
_atom_type_partial_charge
C1    C     C_R   0.594259 0.029008 0.592271 -0.093849
C2    C     C_R   0.409489 0.961965 0.408305 -0.104589
C3    C     C_R   0.043307 0.589372 0.590587 -0.105044
C4    C     C_R   0.981271 0.402952 0.404682 -0.096282
C5    C     C_R   0.595530 0.593415 0.024792 -0.089383
C6    C     C_R   0.409692 0.408577 0.960752 -0.105247
C7    C     C_R   0.021428 0.829804 0.566963 0.841662
C8    C     C_R   0.978469 0.170115 0.432887 0.854299
C9    C     C_R   0.829874 0.567002 0.021698 0.841322
C10   C     C_R   0.170108 0.432927 0.978978 0.853926
C11   C     C_R   0.568236 0.017066 0.830783 0.837264
C12   C     C_R   0.433058 0.978454 0.170114 0.844653
C13   C     C_R   0.433069 0.170121 0.978407 0.838148
C14   C     C_R   0.568643 0.831165 0.015749 0.839211
C15   C     C_R   0.985801 0.430862 0.168324 0.843427
C16   C     C_R   0.021968 0.566822 0.829821 0.852652
C17   C     C_R   0.170108 0.979013 0.432920 0.840277
C18   C     C_R   0.829847 0.021803 0.566931 0.854428
C19   C     C_R   0.548518 0.012441 0.542743 0.121714
C20   C     C_R   0.458121 0.977817 0.455305 0.140287
C21   C     C_R   0.029061 0.540173 0.543048 0.141540
C22   C     C_R   0.997007 0.448397 0.455095 0.135515
C23   C     C_R   0.550121 0.543155 0.008884 0.133467
C24   C     C_R   0.458739 0.455689 0.975773 0.139545
C25   C     C_R   0.500696 0.082694 0.487388 -0.087104
C26   C     C_R   0.506000 0.907514 0.510552 -0.137889
C27   C     C_R   0.941855 0.544049 0.551565 -0.041705
C28   C     C_R   0.084325 0.444109 0.446931 -0.106190
C29   C     C_R   0.554802 0.551651 0.921410 -0.095206
C30   C     C_R   0.454366 0.446898 0.063183 -0.044602
C31   C     C_R   0.455761 0.065358 0.443742 -0.042743
C32   C     C_R   0.551011 0.924853 0.554170 -0.098123
C33   C     C_R   0.509297 0.507975 0.904826 -0.140237
C34   C     C_R   0.499873 0.490496 0.079755 -0.088228
C35   C     C_R   0.925817 0.498501 0.507637 -0.077582
C36   C     C_R   0.100375 0.489871 0.490788 -0.132949
C37   C     C_R   0.555555 0.022866 0.683073 -0.087834
C38   C     C_R   0.449479 0.956883 0.320398 -0.095541
C39   C     C_R   0.044427 0.678512 0.550628 -0.085416
C40   C     C_R   0.962786 0.319925 0.446355 -0.090521
C41   C     C_R   0.679735 0.552405 0.040186 -0.086918
C42   C     C_R   0.320694 0.448730 0.959178 -0.079595
C43   C     C_R   0.320742 0.959566 0.448601 -0.083001
C44   C     C_R   0.679605 0.041742 0.551577 -0.088009
C45   C     C_R   0.449581 0.320665 0.955837 -0.088281
C46   C     C_R   0.557553 0.684733 0.016144 -0.092040
C47   C     C_R   0.991684 0.440063 0.312892 -0.091132
C48   C     C_R   0.047109 0.549753 0.678934 -0.095513
C49   C     C_R   0.607282 0.017016 0.736067 -0.197452
C50   C     C_R   0.395172 0.972525 0.266019 -0.199931
C51   C     C_R   0.027939 0.733560 0.604690 -0.200511
C52   C     C_R   0.975911 0.265227 0.393226 -0.198359
C53   C     C_R   0.734509 0.606099 0.025465 -0.208251
C54   C     C_R   0.266088 0.394983 0.973543 -0.194201
C55   C     C_R   0.266093 0.973697 0.394948 -0.201811
C56   C     C_R   0.734263 0.026350 0.605606 -0.198895
C57   C     C_R   0.395206 0.266074 0.972211 -0.203709
C58   C     C_R   0.608277 0.736974 0.013848 -0.199957
C59   C     C_R   0.989860 0.390490 0.261845 -0.195057
C60   C     C_R   0.029106 0.604453 0.733677 -0.196108
C61   C     C_R   0.698952 0.005989 0.698564 0.334957
C62   C     C_R   0.302501 0.991164 0.302385 0.333232
C63   C     C_R   0.009620 0.697144 0.697291 0.332825
C64   C     C_R   0.996321 0.299728 0.300149 0.336219
C65   C     C_R   0.699561 0.699138 0.004989 0.335137
C66   C     C_R   0.302514 0.302410 0.991071 0.329513
Cu1   Cu    Cu3+1 0.995180 0.995180 0.424630 1.141926
Cu2   Cu    Cu3+1 0.004820 0.004820 0.575370 1.140549
Cu3   Cu    Cu3+1 0.995180 0.424630 0.995180 1.136299
Cu4   Cu    Cu3+1 0.004820 0.575370 0.004820 1.130844
Cu5   Cu    Cu3+1 0.424630 0.995180 0.995180 1.138365
Cu6   Cu    Cu3+1 0.575370 0.004820 0.004820 1.136128
H1    H     H_    0.587487 0.870162 0.597318 0.153936
H2    H     H_    0.418759 0.120097 0.401093 0.138840
H3    H     H_    0.167848 0.486407 0.483952 0.149840
H4    H     H_    0.858265 0.502745 0.513881 0.140782
H5    H     H_    0.495402 0.484004 0.147414 0.148162
H6    H     H_    0.513091 0.515029 0.837219 0.149934
H7    H     H_    0.508159 0.839814 0.519885 0.149768
H8    H     H_    0.497892 0.150464 0.478591 0.145848
H9    H     H_    0.415381 0.406433 0.118389 0.142617
H10   H     H_    0.593208 0.592696 0.866245 0.149632
H11   H     H_    0.139764 0.405878 0.405969 0.149554
H12   H     H_    0.886351 0.582792 0.591999 0.137613
O1    O     O_R   0.124540 0.978640 0.385460 -0.509212
O2    O     O_R   0.875460 0.021360 0.614540 -0.514760
O3    O     O_R   0.978640 0.385460 0.124540 -0.511364
O4    O     O_R   0.021360 0.614540 0.875460 -0.513548
O5    O     O_R   0.385460 0.124540 0.978640 -0.518696
O6    O     O_R   0.614540 0.875460 0.021360 -0.515846
O7    O     O_R   0.614540 0.021360 0.875460 -0.511922
O8    O     O_R   0.385460 0.978640 0.124540 -0.518114
O9    O     O_R   0.875460 0.614540 0.021360 -0.519090
O10   O     O_R   0.124540 0.385460 0.978640 -0.518222
O11   O     O_R   0.021360 0.875460 0.614540 -0.510076
O12   O     O_R   0.978640 0.124540 0.385460 -0.514672
O13   O     O_R   0.013780 0.867370 0.487190 -0.588090
O14   O     O_R   0.986220 0.132630 0.512810 -0.589652
O15   O     O_R   0.867370 0.487190 0.013780 -0.584943
O16   O     O_R   0.132630 0.512810 0.986220 -0.581067
O17   O     O_R   0.487190 0.013780 0.867370 -0.582731
O18   O     O_R   0.512810 0.986220 0.132630 -0.588282
O19   O     O_R   0.512810 0.132630 0.986220 -0.586848
O20   O     O_R   0.487190 0.867370 0.013780 -0.582152
O21   O     O_R   0.986220 0.512810 0.132630 -0.588751
O22   O     O_R   0.013780 0.487190 0.867370 -0.591185
O23   O     O_R   0.132630 0.986220 0.512810 -0.588309
O24   O     O_R   0.867370 0.013780 0.487190 -0.589921
C67   C     C_2   0.462189 0.018552 0.720674 0.906105
O25   O     O_2   0.402603 0.083850 0.700508 -0.570017
O26   O     O_R   0.443212 0.938854 0.776331 -0.706176
H13   H     H_    0.377427 0.943757 0.796710 0.346751
C68   C     C_2   0.547802 0.932427 0.288109 0.908451
O27   O     O_2   0.589392 0.979139 0.286333 -0.554100
O28   O     O_R   0.592477 0.855453 0.259729 -0.739937
H14   H     H_    0.659118 0.845651 0.238898 0.351303
C69   C     C_2   0.064416 0.711319 0.452609 0.898950
O29   O     O_2   0.131802 0.735373 0.409852 -0.564207
O30   O     O_R   0.007022 0.713447 0.409407 -0.732993
H15   H     H_    0.028434 0.736117 0.342633 0.351915
C70   C     C_2   0.930976 0.290977 0.544646 0.896094
O31   O     O_2   0.973182 0.289457 0.590634 -0.549622
O32   O     O_R   0.852507 0.264788 0.584256 -0.736606
H16   H     H_    0.837612 0.245952 0.651345 0.353129
C71   C     C_2   0.709347 0.454079 0.070149 0.898080
O33   O     O_2   0.731334 0.417868 0.139226 -0.571932
O34   O     O_R   0.711919 0.403169 0.019775 -0.737827
H17   H     H_    0.732683 0.337183 0.047561 0.347346
C72   C     C_2   0.287409 0.546670 0.940613 0.905881
O35   O     O_2   0.283843 0.583621 0.992335 -0.577143
O36   O     O_R   0.260543 0.596335 0.863378 -0.733463
H18   H     H_    0.239036 0.662276 0.857813 0.348957
C73   C     C_2   0.287879 0.941218 0.546502 0.899061
O37   O     O_2   0.265709 0.873052 0.590666 -0.566787
O38   O     O_R   0.283695 0.001048 0.587974 -0.738367
H19   H     H_    0.261309 0.980582 0.654862 0.345973
C74   C     C_2   0.710293 0.070946 0.453257 0.898228
O39   O     O_2   0.711362 0.027637 0.408593 -0.550150
O40   O     O_R   0.738430 0.148284 0.412109 -0.735302
H20   H     H_    0.758262 0.161425 0.345135 0.352614
C75   C     C_2   0.547854 0.288514 0.932073 0.906711
O41   O     O_2   0.587950 0.265468 0.863857 -0.569932
O42   O     O_R   0.594267 0.285338 0.987074 -0.740472
H21   H     H_    0.660784 0.262970 0.963273 0.348367
C76   C     C_2   0.466474 0.723595 0.005039 0.909062
O43   O     O_2   0.454338 0.775418 0.934645 -0.548651
O44   O     O_R   0.395560 0.697657 0.073876 -0.736855
H22   H     H_    0.337122 0.727128 0.057867 0.353656
C77   C     C_2   0.010759 0.527885 0.271310 0.901162
O45   O     O_2   0.957303 0.592967 0.294443 -0.565705
O46   O     O_R   0.091092 0.535125 0.207435 -0.737447
H23   H     H_    0.096939 0.597905 0.184459 0.346584
C78   C     C_2   0.072607 0.451448 0.711458 0.906854
O47   O     O_2   0.027789 0.408828 0.711505 -0.553429
O48   O     O_R   0.148379 0.407976 0.742075 -0.736602
H24   H     H_    0.159046 0.341234 0.762862 0.352495
Cl1   Cl    Cl    0.770512 0.951081 0.769368 -0.440213
Cl2   Cl    Cl    0.231477 0.050892 0.231395 -0.442761
Cl3   Cl    Cl    0.948113 0.768023 0.768151 -0.445858
Cl4   Cl    Cl    0.046390 0.227890 0.229610 -0.437099
Cl5   Cl    Cl    0.771274 0.769878 0.952229 -0.440911
Cl6   Cl    Cl    0.231490 0.231429 0.051207 -0.446580

loop_
_geom_bond_atom_site_label_1
_geom_bond_atom_site_label_2
_ccdc_geom_bond_type
C25   C31   A    
C39   C51   A    
C48   C78   S    
C26   C32   A    
C44   C74   S    
C6    C45   A    
C25   H8    S    
Cu2   O2    S    
O44   H22   S    
C8    O12   A    
C63   Cl3   S    
C57   C66   A    
Cu5   O20   S    
Cu4   O4    S    
C76   O43   D    
C77   O45   D    
O32   H16   S    
C21   C36   A    
C22   C35   A    
C74   O40   S    
C45   C57   A    
C59   C64   A    
C18   O2    A    
C71   O33   D    
C20   C26   A    
C60   C63   A    
C17   O1    A    
C23   C29   A    
C15   O3    A    
C27   H12   S    
C72   O35   D    
C77   O46   S    
C34   H5    S    
C33   H6    S    
C46   C76   S    
C13   C57   S    
C10   O10   A    
O42   H21   S    
C55   C62   A    
C29   C33   A    
C3    C48   A    
C37   C49   A    
C66   Cl6   S    
Cu2   O14   S    
C16   C60   S    
C43   C73   S    
C8    O14   A    
C14   O6    A    
C1    C44   A    
C67   O26   S    
Cu5   O8    S    
O26   H13   S    
Cu5   O5    S    
O46   H23   S    
C62   Cl2   S    
Cu2   O23   S    
C13   O19   A    
C53   C65   A    
C8    C52   S    
C37   C67   S    
Cu3   O3    S    
C16   O22   A    
C17   O23   A    
C4    C22   S    
Cu5   O17   S    
C3    C39   A    
C9    O15   A    
C22   C28   A    
C46   C58   A    
C28   H11   S    
C45   C75   S    
C10   C54   S    
C19   C32   A    
C76   O44   S    
Cu4   O16   S    
C48   C60   A    
C18   O24   A    
C14   C58   S    
C16   O4    A    
C35   H4    S    
Cu1   O1    S    
Cu2   O11   S    
C49   C61   A    
C30   C34   A    
C2    C20   S    
Cu1   Cu2   S    
C41   C71   S    
O38   H19   S    
Cu4   O9    S    
C51   C63   A    
C11   C49   S    
Cu3   O10   S    
C52   C64   A    
C32   H1    S    
C38   C68   S    
C47   C77   S    
C31   H2    S    
C27   C35   A    
C40   C52   A    
C1    C19   S    
C75   O42   S    
C12   O18   A    
C40   C70   S    
C36   H3    S    
C61   Cl1   S    
Cu6   O6    S    
C44   C56   A    
C58   C65   A    
C14   O20   A    
C5    C23   S    
C2    C43   A    
O30   H15   S    
C23   C34   A    
C6    C24   S    
C64   Cl4   S    
C11   O17   A    
C10   O16   A    
C41   C53   A    
C70   O31   D    
C54   C66   A    
Cu3   O15   S    
C43   C55   A    
Cu1   O12   S    
C50   C62   A    
C3    C21   S    
C78   O48   S    
Cu1   O24   S    
C65   Cl5   S    
O36   H18   S    
C9    O9    A    
C71   O34   S    
C68   O27   D    
C5    C46   A    
Cu6   O7    S    
C5    C41   A    
Cu3   O22   S    
C7    O13   A    
C13   O5    A    
C15   C59   S    
C12   O8    A    
C26   H7    S    
Cu4   O21   S    
C12   C50   S    
O40   H20   S    
C38   C50   A    
Cu6   O19   S    
C18   C56   S    
C7    O11   A    
C74   O39   D    
C24   C33   A    
C4    C40   A    
C2    C38   A    
C15   O21   A    
C30   H9    S    
C69   O30   S    
C7    C51   S    
Cu5   Cu6   S    
C39   C69   S    
C75   O41   D    
C42   C54   A    
O28   H14   S    
C73   O37   D    
Cu6   O18   S    
C17   C55   S    
C42   C72   S    
C21   C27   A    
Cu3   Cu4   S    
C19   C25   A    
C24   C30   A    
C70   O32   S    
Cu1   O13   S    
C47   C59   A    
C11   O7    A    
C29   H10   S    
C9    C53   S    
C28   C36   A    
C6    C42   A    
C67   O25   D    
O48   H24   S    
C73   O38   S    
C56   C61   A    
C68   O28   S    
C78   O47   D    
C69   O29   D    
C20   C31   A    
O34   H17   S    
C1    C37   A    
C72   O36   S    
C4    C47   A    
