data_mof_unit_22912.cif
_audit_creation_date              2012-12-11T16:30:36-0500
_audit_creation_method            fapswitch 2.2
_symmetry_space_group_name_H-M    P1
_symmetry_Int_Tables_number       1
_space_group_crystal_system       monoclinic
_cell_length_a                    6.96752
_cell_length_b                    14.382588
_cell_length_c                    16.05428
_cell_angle_alpha                 90.0
_cell_angle_beta                  89.986433
_cell_angle_gamma                 90.0
_cell_volume                      1608.81491899

loop_
_atom_site_label
_atom_site_type_symbol
_atom_type_description
_atom_site_fract_x
_atom_site_fract_y
_atom_site_fract_z
_atom_type_partial_charge
O1    O     O_R   0.611670 0.415650 0.164070 -0.550707
O2    O     O_R   0.388330 0.915650 0.835930 -0.550708
O3    O     O_R   0.940950 0.405490 0.337780 -0.519608
O4    O     O_R   0.059050 0.905490 0.662220 -0.519608
O5    O     O_R   0.111350 0.584350 0.338470 -0.529717
O6    O     O_R   0.888650 0.084350 0.661530 -0.529717
C1    C     C_R   0.772066 0.380088 0.364215 0.715871
C2    C     C_R   0.227934 0.880089 0.635785 0.715871
O7    O     O_R   0.941380 0.404630 0.164680 -0.517545
O8    O     O_R   0.058620 0.904630 0.835320 -0.517545
O9    O     O_R   0.111780 0.583470 0.164130 -0.540750
O10   O     O_R   0.888220 0.083470 0.835870 -0.540750
C3    C     C_R   0.772592 0.382757 0.136055 0.712640
C4    C     C_R   0.227408 0.882757 0.863944 0.712641
O11   O     O_R   0.611240 0.416530 0.338400 -0.548197
O12   O     O_R   0.388760 0.916530 0.661600 -0.548198
O13   O     O_3   0.778020 0.558680 0.251290 -0.353884
O14   O     O_3   0.221980 0.058680 0.748710 -0.353884
V1    V     V_3+5 0.052840 0.489110 0.251260 1.527105
V2    V     V_3+5 0.947160 0.989110 0.748740 1.527104
O15   O     O_R   0.441500 0.594510 0.164760 -0.537724
O16   O     O_R   0.558500 0.094510 0.835240 -0.537724
C5    C     C_R   0.272726 0.616397 0.136156 0.683397
C6    C     C_R   0.727274 0.116397 0.863844 0.683397
O17   O     O_R   0.441080 0.595370 0.337860 -0.532645
O18   O     O_R   0.558920 0.095370 0.662140 -0.532645
C7    C     C_R   0.271490 0.618635 0.366428 0.684073
C8    C     C_R   0.728510 0.118635 0.633572 0.684072
V3    V     V_3+5 0.552850 0.510890 0.251270 1.463816
V4    V     V_3+5 0.447150 0.010890 0.748730 1.463816
O19   O     O_3   0.277800 0.441320 0.251250 -0.356312
O20   O     O_3   0.722200 0.941320 0.748750 -0.356312
C9    C     C_3   0.049556 0.691836 0.475699 -0.071793
C10   C     C_3   0.950444 0.191836 0.524301 -0.071793
H1    H     H_    0.001190 0.619667 0.489061 0.143309
H2    H     H_    0.998810 0.119667 0.510939 0.143303
C11   C     C_3   0.043391 0.751882 0.556636 0.320202
C12   C     C_3   0.956608 0.251882 0.443364 0.320193
H3    H     H_    0.924582 0.802958 0.550677 0.088125
H4    H     H_    0.075417 0.302957 0.449323 0.088127
H5    H     H_    0.224240 0.810639 0.354568 0.159409
H6    H     H_    0.775760 0.310639 0.645432 0.159407
H7    H     H_    0.152514 0.905347 0.466920 0.159586
H8    H     H_    0.847486 0.405347 0.533080 0.159584
C13   C     C_3   0.308403 0.789128 0.409887 -0.294639
C14   C     C_3   0.691597 0.289128 0.590113 -0.294639
C15   C     C_3   0.398170 0.661669 0.509428 -0.327649
C16   C     C_3   0.601830 0.161669 0.490572 -0.327650
C17   C     C_3   0.257291 0.688746 0.438128 0.006834
C18   C     C_3   0.742709 0.188746 0.561872 0.006836
H9    H     H_    0.545443 0.651675 0.484949 0.199204
H10   H     H_    0.454557 0.151675 0.515051 0.199206
H11   H     H_    0.355385 0.593627 0.536226 0.165419
H12   H     H_    0.644615 0.093628 0.463774 0.165410
C19   C     C_3   0.236332 0.807996 0.566087 -0.078422
C20   C     C_3   0.763668 0.307996 0.433912 -0.078419
C21   C     C_3   0.275954 0.859302 0.482229 -0.392351
C22   C     C_3   0.724047 0.359302 0.517771 -0.392352
C23   C     C_3   0.402721 0.737562 0.578463 -0.214762
C24   C     C_3   0.597279 0.237562 0.421537 -0.214765
H13   H     H_    0.395989 0.704942 0.640909 0.201461
H14   H     H_    0.604011 0.204942 0.359091 0.201461
H15   H     H_    0.542268 0.775060 0.575325 0.184078
H16   H     H_    0.457732 0.275060 0.424675 0.184078
H17   H     H_    0.458897 0.792535 0.389578 0.193309
H18   H     H_    0.541103 0.292536 0.610421 0.193310
H19   H     H_    0.404646 0.904737 0.488003 0.168342
H20   H     H_    0.595355 0.404737 0.511997 0.168342
H21   H     H_    0.498280 0.588245 0.763589 0.173779
H22   H     H_    0.501720 0.088245 0.236411 0.173780
C25   C     C_R   0.100356 0.929783 0.030364 -0.172855
C26   C     C_R   0.899644 0.429783 0.969635 -0.172854
C27   C     C_R   0.040778 0.955031 0.110093 -0.099858
C28   C     C_R   0.959222 0.455031 0.889907 -0.099858
C29   C     C_R   0.052906 0.891694 0.175219 -0.097882
C30   C     C_R   0.947094 0.391694 0.824780 -0.097884
C31   C     C_R   0.124906 0.802655 0.161127 -0.145628
C32   C     C_R   0.875093 0.302655 0.838873 -0.145626
C33   C     C_R   0.186243 0.774846 0.080843 0.068925
C34   C     C_R   0.813757 0.274846 0.919157 0.068925
C35   C     C_R   0.173628 0.839714 0.014047 0.057653
C36   C     C_R   0.826372 0.339714 0.985953 0.057653
C37   C     C_R   0.262612 0.684711 0.066863 -0.173036
C38   C     C_R   0.737388 0.184711 0.933137 -0.173036
C39   C     C_R   0.326763 0.659490 0.986101 0.052748
C40   C     C_R   0.673237 0.159491 0.013899 0.052748
C41   C     C_R   0.314990 0.724493 0.919390 0.050426
C42   C     C_R   0.685010 0.224493 0.080610 0.050426
C43   C     C_R   0.237659 0.814462 0.933255 -0.168766
C44   C     C_R   0.762340 0.314462 0.066745 -0.168766
C45   C     C_R   0.399939 0.569413 0.969797 -0.164319
C46   C     C_R   0.600061 0.069413 0.030203 -0.164320
C47   C     C_R   0.461133 0.544437 0.890248 -0.146543
C48   C     C_R   0.538867 0.044437 0.109752 -0.146543
C49   C     C_R   0.450957 0.608083 0.825311 -0.038542
C50   C     C_R   0.549044 0.108083 0.174689 -0.038539
C51   C     C_R   0.378527 0.697031 0.839342 -0.041924
C52   C     C_R   0.621474 0.197031 0.160658 -0.041924
H23   H     H_    0.090138 0.982056 0.982128 0.115442
H24   H     H_    0.909862 0.482056 0.017871 0.115442
H25   H     H_    0.986297 0.024373 0.121517 0.166854
H26   H     H_    0.013703 0.524373 0.878483 0.166853
H27   H     H_    0.007330 0.911814 0.237127 0.161249
H28   H     H_    0.992669 0.411814 0.762872 0.161243
H29   H     H_    0.133322 0.756257 0.213966 0.122144
H30   H     H_    0.866678 0.256257 0.786034 0.122144
H31   H     H_    0.409146 0.516977 0.017931 0.120277
H32   H     H_    0.590854 0.016977 0.982069 0.120277
H33   H     H_    0.515692 0.475115 0.878858 0.144642
H34   H     H_    0.484308 0.975115 0.121142 0.144642
H35   H     H_    0.371654 0.743657 0.786657 0.120286
H36   H     H_    0.628347 0.243657 0.213343 0.120285
I1    I     I_    0.844974 0.746671 0.386615 -0.532775
I2    I     I_    0.155026 0.246671 0.613385 -0.532775
S1    S     S_3+6 0.980352 0.679960 0.645921 -0.073904
O21   O     O_2   0.983522 0.735518 0.725061 -0.329277
O22   O     O_2   0.780450 0.643281 0.633776 -0.382294
O23   O     O_3   0.129580 0.588823 0.657089 -0.529398
H37   H     H_    0.069596 0.537230 0.625580 0.333111
S2    S     S_3+6 0.019647 0.179960 0.354079 -0.073899
O24   O     O_2   0.016481 0.235518 0.274939 -0.329276
O25   O     O_2   0.219549 0.143279 0.366224 -0.382289
O26   O     O_3   0.870418 0.088824 0.342910 -0.529393
H38   H     H_    0.930383 0.037234 0.374430 0.333103

loop_
_geom_bond_atom_site_label_1
_geom_bond_atom_site_label_2
_ccdc_geom_bond_type
C30   H28   S    
C12   H4    S    
C19   C23   S    
C3    C44   S    
O13   V3    S    
H22   C50   S    
O4    C2    A    
V1    O19   S    
C39   C45   A    
O26   H38   S    
C15   C17   S    
C16   H12   S    
C13   C21   S    
C5    C37   S    
C38   C40   A    
C14   H18   S    
O3    C1    A    
C26   H24   S    
C51   H35   S    
C32   C34   A    
C9    C17   S    
S1    O21   D    
C40   C42   A    
C24   H14   S    
O7    V1    S    
H6    C14   S    
O7    C3    A    
O23   H37   S    
O13   V1    S    
O5    C7    A    
C8    C18   S    
C46   H32   S    
O6    C8    A    
O8    V2    S    
S1    O22   D    
C50   C52   A    
C16   C24   S    
O14   V4    S    
V4    O20   S    
C10   H2    S    
S2    O26   S    
C34   C38   A    
C28   H26   S    
C12   S2    S    
C16   C18   S    
C2    O12   A    
C14   C22   S    
C29   H27   S    
C27   C29   A    
C1    C20   S    
C21   H19   S    
C2    C19   S    
O1    V3    S    
S2    O25   D    
O11   V3    S    
C31   C33   A    
O17   V3    S    
C10   I2    S    
C23   H13   S    
C52   H36   S    
C39   C41   A    
C45   H31   S    
C34   C36   A    
O8    C4    A    
H8    C22   S    
C33   C35   A    
C15   H9    S    
C1    O11   A    
C25   H23   S    
C48   H34   S    
C9    C11   S    
C20   C24   S    
C11   C19   S    
C48   C50   A    
C4    C43   S    
C45   C47   A    
C13   C17   S    
S1    O23   S    
O9    V1    S    
O10   V2    S    
C46   C48   A    
O3    V1    S    
C29   C31   A    
C28   C30   A    
C11   S1    S    
C26   C28   A    
C37   C39   A    
C42   C44   A    
O18   V4    S    
C19   C21   S    
C13   H17   S    
O16   C6    A    
C23   H15   S    
O1    C3    A    
S2    O24   D    
C25   C27   A    
V2    O20   S    
C22   H20   S    
C14   C18   S    
C27   H25   S    
O16   V4    S    
C10   C12   S    
C9    I1    S    
C30   C32   A    
H21   C49   S    
C10   C18   S    
C49   C51   A    
O5    V1    S    
O17   C7    A    
O6    V2    S    
O10   C6    A    
O18   C8    A    
C31   H29   S    
C36   C44   A    
O2    V4    S    
C24   H16   S    
O15   C5    A    
C6    C38   S    
C35   C43   A    
C11   H3    S    
C40   C46   A    
C33   C37   A    
C47   C49   A    
O15   V3    S    
C15   H11   S    
O9    C5    A    
C9    H1    S    
C20   C22   S    
C32   H30   S    
O14   V2    S    
O2    C4    A    
C42   C52   A    
H7    C21   S    
C15   C23   S    
O4    V2    S    
C16   H10   S    
C12   C20   S    
V3    O19   S    
C41   C43   A    
H5    C13   S    
C25   C35   A    
O12   V4    S    
C26   C36   A    
C7    C17   S    
C47   H33   S    
C41   C51   A    
