data_mof_unit_17520.cif
_audit_creation_date              2012-12-10T19:47:25-0500
_audit_creation_method            fapswitch 2.2
_symmetry_space_group_name_H-M    P1
_symmetry_Int_Tables_number       1
_space_group_crystal_system       triclinic
_cell_length_a                    10.811877
_cell_length_b                    10.820106
_cell_length_c                    12.713361
_cell_angle_alpha                 92.614583
_cell_angle_beta                  93.340199
_cell_angle_gamma                 89.812008
_cell_volume                      1483.2083181

loop_
_atom_site_label
_atom_site_type_symbol
_atom_type_description
_atom_site_fract_x
_atom_site_fract_y
_atom_site_fract_z
_atom_type_partial_charge
C1    C     C_R   0.261882 0.503592 0.500561 0.792765
C2    C     C_R   0.738023 0.494554 0.499528 0.802541
C3    C     C_R   0.504201 0.871853 0.495448 -0.149438
C4    C     C_R   0.495955 0.128645 0.504288 -0.166667
C5    C     C_R   0.408581 0.932838 0.436732 -0.077215
C6    C     C_R   0.590638 0.067770 0.563734 -0.074868
C7    C     C_R   0.168115 0.629265 0.877024 -0.193896
C8    C     C_R   0.841861 0.353555 0.123930 -0.191987
C9    C     C_R   0.111206 0.569646 0.787141 -0.162310
C10   C     C_R   0.894229 0.417594 0.213505 -0.175174
C11   C     C_R   0.129986 0.611974 0.686451 0.104232
C12   C     C_R   0.870272 0.380712 0.314928 0.102757
C13   C     C_R   0.205523 0.716010 0.677754 -0.129224
C14   C     C_R   0.793094 0.278077 0.324619 -0.122359
C15   C     C_R   0.262719 0.776530 0.767771 0.225127
C16   C     C_R   0.741741 0.212163 0.234866 0.218260
C17   C     C_R   0.244073 0.731787 0.867503 -0.128427
C18   C     C_R   0.766255 0.251033 0.134418 -0.135944
C19   C     C_R   0.938630 0.540694 0.588088 -0.251513
C20   C     C_R   0.061523 0.452869 0.413170 -0.248361
C21   C     C_R   0.871686 0.490476 0.498701 -0.078866
C22   C     C_R   0.128221 0.504898 0.501903 -0.079013
C23   C     C_R   0.499493 0.262171 0.501231 0.811882
C24   C     C_R   0.501497 0.738006 0.498740 0.823977
C25   C     C_R   0.933409 0.444022 0.410000 0.004838
C26   C     C_R   0.066507 0.550185 0.590944 0.000696
C27   C     C_2   0.478644 0.453833 0.031360 0.066781
C28   C     C_2   0.519164 0.543881 0.968623 0.047980
C29   C     C_1   0.519647 0.528370 0.852560 0.152236
C30   C     C_1   0.479554 0.470574 0.147456 0.168706
C31   C     C_R   0.882420 0.232785 0.676242 -0.129870
C32   C     C_R   0.109285 0.773384 0.335351 -0.124024
C33   C     C_R   0.800267 0.164614 0.607280 -0.183184
C34   C     C_R   0.195623 0.841026 0.400677 -0.206296
C35   C     C_R   0.679732 0.139837 0.636280 0.124486
C36   C     C_R   0.315597 0.860788 0.367998 0.149576
C37   C     C_R   0.644272 0.180507 0.736680 -0.096515
C38   C     C_R   0.347137 0.813367 0.268294 -0.090440
C39   C     C_R   0.726406 0.249079 0.805228 -0.139320
C40   C     C_R   0.260723 0.745510 0.203315 -0.142003
C41   C     C_R   0.845274 0.275415 0.774965 -0.100457
C42   C     C_R   0.141902 0.725698 0.236752 -0.094979
C43   C     C_R   0.598623 0.938265 0.555496 0.112498
C44   C     C_R   0.402823 0.062687 0.442482 0.096331
Cu1   Cu    Cu3+1 0.492140 0.492110 0.395880 0.962785
Cu2   Cu    Cu3+1 0.507860 0.507890 0.604120 0.964946
H1    H     H_    0.908836 0.327740 0.828538 0.106727
H2    H     H_    0.074882 0.674492 0.185696 0.109231
H3    H     H_    0.220879 0.748647 0.600810 0.096637
H4    H     H_    0.773537 0.249289 0.401905 0.094535
H5    H     H_    0.890568 0.577937 0.655094 0.168251
H6    H     H_    0.109999 0.414793 0.346695 0.163429
H7    H     H_    0.975080 0.251981 0.653381 0.134607
H8    H     H_    0.016869 0.758680 0.360833 0.139502
H9    H     H_    0.831487 0.128836 0.532681 0.123317
H10   H     H_    0.168083 0.880714 0.475368 0.113799
H11   H     H_    0.552533 0.160364 0.761074 0.113559
H12   H     H_    0.438743 0.828963 0.241326 0.117174
H13   H     H_    0.697917 0.281843 0.881776 0.110555
H14   H     H_    0.285679 0.708547 0.126929 0.107748
H15   H     H_    0.288260 0.776455 0.937769 0.119838
H16   H     H_    0.727055 0.201589 0.064409 0.120078
H17   H     H_    0.153288 0.596018 0.954317 0.132887
H18   H     H_    0.860563 0.383050 0.046192 0.136494
H19   H     H_    0.053081 0.490046 0.795937 0.121459
H20   H     H_    0.953572 0.495961 0.203785 0.126659
N1    N     N_1   0.480320 0.480250 0.239400 -0.167757
N2    N     N_1   0.519680 0.519750 0.760600 -0.163885
O1    O     O_R   0.313000 0.493330 0.412070 -0.572584
O2    O     O_R   0.687000 0.506670 0.587930 -0.572275
O3    O     O_R   0.326280 0.506660 0.587930 -0.572350
O4    O     O_R   0.673720 0.493340 0.412070 -0.577760
O5    O     O_R   0.493370 0.312980 0.412070 -0.581200
O6    O     O_R   0.506630 0.687020 0.587930 -0.595437
O7    O     O_R   0.506650 0.326310 0.587930 -0.571747
O8    O     O_R   0.493350 0.673690 0.412070 -0.570974
C45   C     C_3   0.343595 0.888093 0.757486 -0.416389
C46   C     C_3   0.283607 0.005286 0.802570 -0.865610
H21   H     H_    0.191332 0.019948 0.761853 0.257615
H22   H     H_    0.272701 0.998632 0.888435 0.248229
H23   H     H_    0.342887 0.086404 0.790610 0.243951
H24   H     H_    0.435350 0.873556 0.799202 0.197339
H25   H     H_    0.359787 0.901851 0.673393 0.207052
C47   C     C_3   0.662480 0.099782 0.246043 -0.421280
C48   C     C_3   0.733230 0.981065 0.220488 -0.855554
H26   H     H_    0.759177 0.977973 0.137162 0.249911
H27   H     H_    0.818407 0.975372 0.273332 0.253678
H28   H     H_    0.673851 0.899909 0.232427 0.248830
H29   H     H_    0.632508 0.096297 0.327776 0.220562
H30   H     H_    0.577822 0.104454 0.192505 0.195104
C49   C     C_3   0.568344 0.666139 0.016218 -0.418405
C50   C     C_3   0.704815 0.655348 0.052431 -0.835330
H31   H     H_    0.715788 0.592626 0.118993 0.264707
H32   H     H_    0.759765 0.619299 0.986478 0.246387
H33   H     H_    0.741319 0.747735 0.079664 0.241271
H34   H     H_    0.558286 0.738521 0.956909 0.196814
H35   H     H_    0.514193 0.698475 0.083779 0.193362
C51   C     C_3   0.433961 0.328866 0.985650 -0.420467
C52   C     C_3   0.293993 0.316373 0.991214 -0.844553
H36   H     H_    0.266480 0.331187 0.073670 0.249220
H37   H     H_    0.245743 0.384611 0.940798 0.255416
H38   H     H_    0.264518 0.222165 0.962237 0.245461
H39   H     H_    0.457690 0.312217 0.902456 0.202171
H40   H     H_    0.480586 0.254851 0.031177 0.192592
C53   C     C_3   0.712836 0.871956 0.603026 -0.389464
C54   C     C_3   0.799864 0.832193 0.517191 -0.850699
H41   H     H_    0.755529 0.761062 0.461866 0.250401
H42   H     H_    0.825086 0.912779 0.471913 0.246664
H43   H     H_    0.886184 0.793100 0.553783 0.241958
H44   H     H_    0.766504 0.930422 0.662986 0.207997
H45   H     H_    0.687895 0.791099 0.647425 0.220222
C55   C     C_3   0.292474 0.130409 0.389863 -0.356641
C56   C     C_3   0.305037 0.144914 0.271866 -0.788612
H46   H     H_    0.390239 0.196485 0.257393 0.262702
H47   H     H_    0.307219 0.053848 0.228711 0.243347
H48   H     H_    0.224210 0.197364 0.239304 0.229399
H49   H     H_    0.204548 0.082161 0.401596 0.191183
H50   H     H_    0.278680 0.223264 0.428051 0.187891

loop_
_geom_bond_atom_site_label_1
_geom_bond_atom_site_label_2
_ccdc_geom_bond_type
C33   H9    S    
C55   H50   S    
C53   H44   S    
C27   C51   S    
C34   H10   S    
C40   H14   S    
C39   C41   A    
C14   H4    S    
C45   C46   S    
C3    C43   A    
C1    O3    A    
Cu1   O8    S    
C28   C29   S    
C35   C37   A    
C55   H49   S    
C46   H22   S    
C20   C25   A    
C45   H25   S    
C51   H39   S    
C5    C36   S    
C16   C47   S    
C6    C35   S    
Cu1   O5    S    
C43   C53   S    
C19   C26   A    
Cu2   O7    S    
C17   H15   S    
C49   H34   S    
C38   H12   S    
C7    C17   A    
Cu1   N1    S    
C31   C33   A    
C30   N1    T    
C56   H48   S    
C40   C42   A    
C53   H45   S    
C1    C22   S    
Cu1   O4    S    
C3    C24   S    
C47   H30   S    
C23   O5    A    
C2    O4    A    
C32   H8    S    
C55   C56   S    
C49   H35   S    
C9    H19   S    
C10   H20   S    
C48   H27   S    
Cu1   O1    S    
C47   C48   S    
C4    C6    A    
C23   O7    A    
C49   C50   S    
C4    C23   S    
C46   H21   S    
C24   O8    A    
C4    C44   A    
C11   C26   S    
C48   H26   S    
C50   H33   S    
C8    C18   A    
C32   C34   A    
Cu2   N2    S    
C29   N2    T    
C52   H36   S    
C39   H13   S    
C2    C21   S    
C50   H32   S    
C41   H1    S    
C42   H2    S    
C54   H41   S    
C31   H7    S    
C9    C11   A    
C7    H17   S    
Cu2   O3    S    
C10   C12   A    
C8    H18   S    
C13   H3    S    
C44   C55   S    
C16   C18   A    
C52   H37   S    
C5    C44   A    
C12   C14   A    
C6    C43   A    
C13   C15   A    
C14   C16   A    
Cu1   Cu2   S    
C47   H29   S    
Cu2   O6    S    
C56   H46   S    
C48   H28   S    
C7    C9    A    
C21   C25   A    
C31   C41   A    
C19   C21   A    
C18   H16   S    
C20   C22   A    
C3    C5    A    
C15   C17   A    
C53   C54   S    
C12   C25   S    
C20   H6    S    
C36   C38   A    
C37   C39   A    
C38   C40   A    
C11   C13   A    
C46   H23   S    
C24   O6    A    
C15   C45   S    
C54   H42   S    
C45   H24   S    
C51   H40   S    
C50   H31   S    
C33   C35   A    
C28   C49   S    
C34   C36   A    
C1    O1    A    
Cu2   O2    S    
C19   H5    S    
C52   H38   S    
C8    C10   A    
C51   C52   S    
C22   C26   A    
C27   C28   D    
C32   C42   A    
C56   H47   S    
C2    O2    A    
C37   H11   S    
C27   C30   S    
C54   H43   S    
