data_mof_unit_19578.cif
_audit_creation_date              2012-12-10T20:28:43-0500
_audit_creation_method            fapswitch 2.2
_symmetry_space_group_name_H-M    P1
_symmetry_Int_Tables_number       1
_space_group_crystal_system       triclinic
_cell_length_a                    10.693494
_cell_length_b                    10.549722
_cell_length_c                    9.939462
_cell_angle_alpha                 90.269276
_cell_angle_beta                  88.98852
_cell_angle_gamma                 90.645636
_cell_volume                      1121.04712972

loop_
_atom_site_label
_atom_site_type_symbol
_atom_type_description
_atom_site_fract_x
_atom_site_fract_y
_atom_site_fract_z
_atom_type_partial_charge
C1    C     C_R   0.499791 0.260831 0.499565 0.892624
C2    C     C_R   0.382137 0.933412 0.495460 0.075784
C3    C     C_R   0.497209 0.871131 0.498548 -0.117645
C4    C     C_R   0.259582 0.505848 0.502485 0.885023
C5    C     C_R   0.609584 0.936288 0.480521 0.063014
C6    C     C_3   0.725381 0.931732 0.562714 -0.092849
C7    C     C_3   0.725975 0.076084 0.561241 -0.556850
C8    C     C_R   0.411082 0.434036 0.071550 0.060893
C9    C     C_R   0.579932 0.576052 0.072339 0.249948
C10   C     C_R   0.582938 0.573357 0.928654 0.059901
C11   C     C_R   0.409541 0.435818 0.930512 0.037269
C12   C     C_R   0.056451 0.480889 0.630301 0.082487
C13   C     C_3   0.370889 0.298716 0.922852 0.039462
C14   C     C_3   0.375061 0.295826 0.077077 -0.155768
C15   C     C_R   0.500385 0.739191 0.500116 0.942495
C16   C     C_R   0.738668 0.486317 0.499012 0.883834
C17   C     C_R   0.102921 0.496970 0.762368 -0.269359
C18   C     C_R   0.036614 0.450006 0.875259 0.108605
C19   C     C_R   0.924635 0.382400 0.856559 0.260422
C20   C     C_R   0.873098 0.378027 0.728305 -0.313325
C21   C     C_R   0.932932 0.439365 0.618156 0.065331
C22   C     C_3   0.638792 0.788183 0.140592 -0.730232
C23   C     C_R   0.125059 0.507617 0.509072 -0.103786
C24   C     C_3   0.427937 0.087133 0.840690 -0.740715
C25   C     C_3   0.909528 0.214979 0.021001 -0.790353
C26   C     C_R   0.064326 0.517428 0.386310 -0.223701
C27   C     C_R   0.937610 0.501516 0.381508 -0.197655
C28   C     C_R   0.871117 0.467266 0.497773 -0.101910
C29   C     C_R   0.609993 0.065903 0.479868 0.055950
C30   C     C_R   0.497858 0.129084 0.496449 -0.071334
C31   C     C_R   0.383017 0.065011 0.493774 -0.294664
H1    H     H_    0.114382 0.540402 0.293742 0.173545
H2    H     H_    0.710072 0.889563 0.664056 0.157122
H3    H     H_    0.843680 0.920806 0.395469 0.193919
H4    H     H_    0.911138 0.891236 0.543603 0.192118
H5    H     H_    0.757652 0.635599 0.119193 0.209202
H6    H     H_    0.660394 0.828077 0.039576 0.222294
H7    H     H_    0.697596 0.838504 0.215034 0.230972
H8    H     H_    0.538909 0.805730 0.166207 0.249353
H9    H     H_    0.639772 0.704392 0.789986 0.227306
H10   H     H_    0.745154 0.586557 0.820486 0.223699
H11   H     H_    0.555322 0.233843 0.883209 0.232498
H12   H     H_    0.708184 0.118221 0.662389 0.192594
H13   H     H_    0.500669 0.037091 0.780482 0.233348
H14   H     H_    0.337782 0.078929 0.787368 0.235912
H15   H     H_    0.418647 0.040432 0.940250 0.241861
H16   H     H_    0.554784 0.260795 0.149056 0.222020
H17   H     H_    0.438845 0.163153 0.210443 0.214380
H18   H     H_    0.163822 0.525548 0.006311 0.164481
H19   H     H_    0.014661 0.529107 0.058669 0.182209
H20   H     H_    0.762118 0.322663 0.955176 0.205136
H21   H     H_    0.854731 0.184624 0.111429 0.233900
H22   H     H_    0.008127 0.230575 0.050873 0.259198
H23   H     H_    0.805070 0.120152 0.503572 0.199701
H24   H     H_    0.905230 0.138295 0.944073 0.230155
H25   H     H_    0.215334 0.887872 0.415256 0.182063
H26   H     H_    0.215567 0.893111 0.585183 0.180128
H27   H     H_    0.275327 0.286520 0.881829 0.140544
H28   H     H_    0.281701 0.278848 0.125407 0.149508
H29   H     H_    0.185221 0.553597 0.781599 0.182328
H30   H     H_    0.784572 0.329066 0.716175 0.162701
H31   H     H_    0.891643 0.519726 0.287428 0.169704
H32   H     H_    0.295772 0.116462 0.496570 0.143820
N1    N     N_R   0.499160 0.499140 0.142800 -0.138849
N2    N     N_3   0.266338 0.863690 0.499982 -0.471460
N3    N     N_R   0.499160 0.499180 0.857150 -0.129920
N4    N     N_3   0.830284 0.875328 0.488065 -0.444333
N5    N     N_2   0.665509 0.653915 0.143854 -0.245850
N6    N     N_3   0.678443 0.646685 0.862186 -0.480487
N7    N     N_2   0.463533 0.219071 0.856242 -0.232694
N8    N     N_3   0.472672 0.211419 0.125629 -0.443677
N9    N     N_3   0.080724 0.472538 0.009061 -0.468457
N10   N     N_2   0.857380 0.330161 0.968516 -0.308368
O1    O     O_R   0.500020 0.316790 0.614690 -0.593418
O2    O     O_R   0.500000 0.316760 0.385350 -0.642183
O3    O     O_R   0.316770 0.500020 0.614690 -0.626566
O4    O     O_R   0.316760 0.499980 0.385350 -0.616501
O5    O     O_R   0.500000 0.683240 0.614650 -0.639579
O6    O     O_R   0.499980 0.683210 0.385310 -0.591281
O7    O     O_R   0.683240 0.500020 0.614650 -0.642278
O8    O     O_R   0.683230 0.499980 0.385310 -0.606301
Zn1   Zn    Zn3+2 0.500010 0.500020 0.653130 0.929163
Zn2   Zn    Zn3+2 0.499990 0.499980 0.346870 0.952420

loop_
_geom_bond_atom_site_label_1
_geom_bond_atom_site_label_2
_ccdc_geom_bond_type
C16   C28   S    
C26   H1    S    
C7    C29   S    
C9    N1    A    
C14   N8    S    
C19   C20   A    
C2    N2    S    
C24   N7    S    
C14   H28   S    
C12   C23   A    
C26   C27   A    
C1    O1    A    
C25   H22   S    
C30   C31   A    
C15   O5    A    
C13   N7    S    
O4    Zn2   S    
H25   N2    S    
C22   H7    S    
H11   N7    S    
C18   C19   A    
C23   C26   A    
C20   H30   S    
H19   N9    S    
C16   O8    A    
H20   N10   S    
C15   O6    A    
H18   N9    S    
C12   C17   A    
C7    H12   S    
C9    C10   A    
C11   N3    A    
C13   C14   S    
O1    Zn1   S    
O8    Zn2   S    
C5    C29   A    
C10   N3    A    
C18   N9    S    
C4    O3    A    
H9    N6    S    
C1    O2    A    
C31   H32   S    
C19   N10   S    
O7    Zn1   S    
O3    Zn1   S    
C4    C23   S    
C13   H27   S    
C22   H6    S    
C12   C21   A    
C2    C31   A    
C16   O7    A    
N1    Zn2   S    
C29   C30   A    
C27   H31   S    
N3    Zn1   S    
O5    Zn1   S    
H4    N4    S    
H16   N8    S    
C17   C18   A    
C22   N5    S    
C8    N1    A    
C6    N4    S    
C21   C28   A    
C24   H13   S    
C24   H14   S    
H17   N8    S    
C3    C15   S    
H10   N6    S    
C8    C14   S    
C25   H24   S    
H26   N2    S    
C3    C5    A    
H3    N4    S    
H5    N5    S    
C6    C7    S    
C6    H2    S    
C24   H15   S    
C2    C3    A    
C9    N5    S    
C4    O4    A    
O6    Zn2   S    
C11   C13   S    
O2    Zn2   S    
C5    C6    S    
C8    C11   A    
C22   H8    S    
C1    C30   S    
C25   N10   S    
C25   H21   S    
C17   H29   S    
C10   N6    S    
C20   C21   A    
C27   C28   A    
C7    H23   S    
