data_mof_unit_35974.cif
_audit_creation_date              2012-12-11T17:00:25-0500
_audit_creation_method            fapswitch 2.2
_symmetry_space_group_name_H-M    P1
_symmetry_Int_Tables_number       1
_space_group_crystal_system       triclinic
_cell_length_a                    6.968418
_cell_length_b                    13.53797
_cell_length_c                    20.279131
_cell_angle_alpha                 103.079469
_cell_angle_beta                  90.152375
_cell_angle_gamma                 90.409715
_cell_volume                      1863.4005345

loop_
_atom_site_label
_atom_site_type_symbol
_atom_type_description
_atom_site_fract_x
_atom_site_fract_y
_atom_site_fract_z
_atom_type_partial_charge
O1    O     O_R   0.506770 0.599700 0.449550 -0.536377
O2    O     O_R   0.179980 0.595740 0.587960 -0.545172
O3    O     O_R   0.004580 0.400300 0.550450 -0.540636
C1    C     C_R   0.348453 0.617882 0.614976 0.711822
O4    O     O_R   0.177380 0.611700 0.452380 -0.540245
O5    O     O_R   0.001970 0.416370 0.413900 -0.543169
C2    C     C_R   0.346158 0.638326 0.435681 0.698693
O6    O     O_R   0.509390 0.583630 0.586100 -0.521983
O7    O     O_3   0.337530 0.435890 0.487530 -0.378837
V1    V     V_3+5 0.064660 0.511890 0.502310 1.442964
O8    O     O_R   0.671950 0.404260 0.412040 -0.544178
C3    C     C_R   0.840294 0.382663 0.384836 0.689275
O9    O     O_R   0.674540 0.388300 0.547620 -0.543851
C4    C     C_R   0.843142 0.361738 0.564346 0.688524
V2    V     V_3+5 0.564030 0.488110 0.497690 1.440458
O10   O     O_3   0.841030 0.564110 0.512470 -0.355439
C5    C     C_R   0.878404 0.109398 0.610691 -0.161586
H1    H     H_    0.872023 0.159148 0.517495 0.103677
H2    H     H_    0.898538 0.984045 0.693650 0.133550
H3    H     H_    0.890826 0.030337 0.584883 0.120545
C6    C     C_R   0.851692 0.284580 0.604253 -0.032827
C7    C     C_R   0.844905 0.317921 0.931011 0.626192
C8    C     C_R   0.833633 0.394127 0.895411 -0.193087
C9    C     C_R   0.837654 0.370633 0.824896 -0.271838
C10   C     C_R   0.853502 0.268942 0.787694 0.088651
C11   C     C_R   0.865526 0.191039 0.824516 -0.009099
C12   C     C_R   0.857617 0.241940 0.715332 0.098669
C13   C     C_R   0.873819 0.138028 0.681690 0.137168
C14   C     C_R   0.885726 0.063323 0.718966 -0.209958
C15   C     C_R   0.881667 0.089226 0.789154 -0.166181
C16   C     C_R   0.846552 0.314322 0.674910 -0.215526
C17   C     C_R   0.867586 0.182337 0.572225 -0.178457
C18   C     C_R   0.860854 0.216552 0.896253 -0.215285
H4    H     H_    0.834532 0.394432 0.696430 0.089445
H5    H     H_    0.827880 0.434071 0.801269 0.134414
H6    H     H_    0.821231 0.472405 0.922693 0.149408
H7    H     H_    0.891570 0.028385 0.815568 0.099337
C19   C     C_R   0.714364 0.254084 0.202756 0.162580
C20   C     C_R   0.867646 0.187764 0.182841 -0.107814
C21   C     C_R   0.021013 0.192944 0.228996 -0.171110
H8    H     H_    0.142411 0.143272 0.215947 0.127090
C22   C     C_R   0.012827 0.256872 0.294332 -0.179109
H9    H     H_    0.128886 0.255213 0.329531 0.126930
C23   C     C_R   0.850479 0.317032 0.315609 -0.112514
C24   C     C_R   0.705869 0.316942 0.267469 0.109578
C25   C     C_3   0.495499 0.299951 0.272368 -0.426792
C26   C     C_3   0.504726 0.231847 0.201758 -0.396256
H10   H     H_    0.412219 0.370355 0.274558 0.179481
H11   H     H_    0.460610 0.258166 0.312138 0.167717
H12   H     H_    0.427267 0.263002 0.163066 0.205690
H13   H     H_    0.474666 0.150759 0.200542 0.154592
C27   C     C_R   0.506171 0.683683 0.728261 0.024178
C28   C     C_R   0.352433 0.684177 0.684046 -0.099839
C29   C     C_R   0.196659 0.747460 0.708407 -0.193649
H14   H     H_    0.079139 0.752761 0.674938 0.192932
C30   C     C_R   0.197499 0.809809 0.774155 -0.180528
H15   H     H_    0.079530 0.861062 0.789629 0.132990
C31   C     C_R   0.355965 0.811688 0.817443 -0.084583
C32   C     C_R   0.508158 0.745944 0.793588 0.040658
C33   C     C_3   0.715229 0.772351 0.789166 -0.457335
C34   C     C_3   0.711930 0.706819 0.717540 0.200759
H16   H     H_    0.804948 0.740233 0.824488 0.153172
H17   H     H_    0.738430 0.854581 0.792204 0.167470
H18   H     H_    0.805019 0.638888 0.710108 0.107914
C35   C     C_R   0.351229 0.891334 0.389381 -0.165099
H19   H     H_    0.346976 0.841561 0.482570 0.108859
H20   H     H_    0.349904 0.017113 0.306473 0.115677
H21   H     H_    0.348673 0.970713 0.415205 0.113417
C36   C     C_R   0.354271 0.715562 0.395807 -0.033739
C37   C     C_R   0.360892 0.682055 0.069032 -0.271923
C38   C     C_R   0.359871 0.604338 0.104346 0.446735
C39   C     C_R   0.357851 0.628859 0.175026 -0.154204
C40   C     C_R   0.356400 0.731005 0.212277 -0.006272
C41   C     C_R   0.355661 0.809184 0.175557 0.065535
C42   C     C_R   0.356012 0.758173 0.284688 0.097047
C43   C     C_R   0.353367 0.862513 0.318373 0.147963
C44   C     C_R   0.352064 0.937484 0.281131 -0.208181
C45   C     C_R   0.353370 0.911424 0.210941 -0.176511
C46   C     C_R   0.357504 0.685602 0.325140 -0.212208
C47   C     C_R   0.350760 0.818201 0.427839 -0.170189
C48   C     C_R   0.358521 0.783580 0.103910 -0.111102
H22   H     H_    0.359144 0.605183 0.303679 0.093243
H23   H     H_    0.364186 0.663529 0.014159 0.100688
H24   H     H_    0.357680 0.565601 0.199028 0.134333
H25   H     H_    0.352190 0.972503 0.184549 0.101392
O11   O     O_R   0.203450 0.916320 0.913910 -0.547766
O12   O     O_R   0.535520 0.888300 0.047620 -0.542136
O13   O     O_R   0.710860 0.083650 0.086100 -0.539821
C49   C     C_R   0.366755 0.861633 0.064292 0.705264
O14   O     O_R   0.532860 0.904250 0.912040 -0.544066
O15   O     O_R   0.708190 0.099710 0.949550 -0.536005
C50   C     C_R   0.364321 0.882712 0.884803 0.689782
O16   O     O_R   0.206120 0.900260 0.050460 -0.542446
O17   O     O_3   0.375280 0.064080 0.012470 -0.364799
V3    V     V_3+5 0.648180 0.988110 0.997690 1.443257
O18   O     O_R   0.038220 0.111740 0.952370 -0.536979
C51   C     C_R   0.869590 0.138360 0.935744 0.787193
O19   O     O_R   0.040880 0.095790 0.087940 -0.541389
C52   C     C_R   0.872856 0.117082 0.115267 0.731053
V4    V     V_3+5 0.148800 0.011950 0.002300 1.452791
O20   O     O_3   0.871820 0.935920 0.987530 -0.380504
O21   O     O_3   0.736023 0.762092 0.666882 -0.645492
H26   H     H_    0.652411 0.822764 0.677212 0.295840
O22   O     O_3   0.361861 0.503339 0.071279 -0.615213
H27   H     H_    0.363518 0.498383 0.021729 0.301509
F1    F     F_    0.839793 0.343005 0.999728 -0.678802

loop_
_geom_bond_atom_site_label_1
_geom_bond_atom_site_label_2
_ccdc_geom_bond_type
C38   O22   S    
C1    C28   S    
C40   C41   A    
H20   C44   S    
C1    O6    A    
O14   V3    S    
C28   C29   A    
C23   C24   A    
C6    C16   A    
C25   H11   S    
C35   C43   A    
C33   H17   S    
C4    C6    S    
C13   C14   A    
C27   C34   S    
O5    C3    A    
C19   C20   A    
V2    O10   S    
O19   C52   A    
C5    H3    S    
C30   H15   S    
C33   H16   S    
C37   C48   A    
C19   C24   A    
C29   H14   S    
O14   C50   A    
O12   V3    S    
C8    C9    A    
C37   C38   A    
O1    V2    S    
O11   V4    S    
O7    V1    S    
C48   C49   S    
O8    V2    S    
C21   C22   A    
O13   V3    S    
C32   C33   S    
C35   C47   A    
O9    C4    A    
C40   C42   A    
O21   H26   S    
C22   C23   A    
O22   H27   S    
C26   H12   S    
C25   H10   S    
C6    C17   A    
C29   C30   A    
C9    H5    S    
C12   C16   A    
C9    C10   A    
C20   C21   A    
O4    C2    A    
C26   H13   S    
C10   C11   A    
C44   C45   A    
O15   C51   A    
C15   H7    S    
C33   C34   S    
C34   H18   S    
O2    C1    A    
C42   C43   A    
O5    V1    S    
C14   C15   A    
C27   C32   A    
C11   C18   A    
C20   C52   S    
O17   V4    S    
C35   H21   S    
O18   C51   A    
C16   H4    S    
C43   C44   A    
C37   H23   S    
O16   V4    S    
C19   C26   S    
C39   H24   S    
O3    C4    A    
C45   H25   S    
C21   H8    S    
C11   C15   A    
O6    V2    S    
O19   V4    S    
O12   C49   A    
C36   C46   A    
H1    C17   S    
C22   H9    S    
C41   C48   A    
O2    V1    S    
C27   C28   A    
C7    C18   A    
C25   C26   S    
O1    C2    A    
C5    C13   A    
C39   C40   A    
C2    C36   S    
C46   H22   S    
O8    C3    A    
C10   C12   A    
H19   C47   S    
O9    V2    S    
C34   O21   S    
O7    V2    S    
O4    V1    S    
C3    C23   S    
O3    V1    S    
C7    F1    S    
V1    O10   S    
C31   C50   S    
O18   V4    S    
V4    O20   S    
C30   C31   A    
C18   C51   S    
C49   O16   A    
O17   V3    S    
C31   C32   A    
O13   C52   A    
O15   V3    S    
C24   C25   S    
C38   C39   A    
C8    H6    S    
C41   C45   A    
C12   C13   A    
C5    C17   A    
C7    C8    A    
C36   C47   A    
O11   C50   A    
C42   C46   A    
V3    O20   S    
H2    C14   S    
