data_mof_unit_30404.cif
_audit_creation_date              2012-12-10T17:43:41-0500
_audit_creation_method            fapswitch 2.2
_symmetry_space_group_name_H-M    P1
_symmetry_Int_Tables_number       1
_space_group_crystal_system       triclinic
_cell_length_a                    14.889439
_cell_length_b                    10.636854
_cell_length_c                    9.936749
_cell_angle_alpha                 89.933446
_cell_angle_beta                  90.063746
_cell_angle_gamma                 91.723046
_cell_volume                      1573.03684559

loop_
_atom_site_label
_atom_site_type_symbol
_atom_type_description
_atom_site_fract_x
_atom_site_fract_y
_atom_site_fract_z
_atom_type_partial_charge
C1    C     C_R   0.502691 0.260786 0.500182 0.839641
C2    C     C_R   0.184005 0.379237 0.495098 0.020719
C3    C     C_R   0.231802 0.494966 0.500373 -0.076673
C4    C     C_R   0.327271 0.498465 0.500023 0.873605
C5    C     C_R   0.189039 0.609078 0.507937 -0.275149
C6    C     C_R   0.647509 0.136807 0.640059 -0.189353
C7    C     C_R   0.715616 0.073980 0.706082 -0.139551
C8    C     C_R   0.715981 0.943268 0.705150 -0.150172
C9    C     C_R   0.648198 0.875002 0.638274 -0.199635
C10   C     C_R   0.578284 0.937227 0.571211 0.102087
C11   C     C_R   0.578011 0.069041 0.571847 0.101949
C12   C     C_R   0.909332 0.612882 0.509437 0.135337
C13   C     C_R   0.509178 0.128680 0.500325 -0.088189
C14   C     C_R   0.444725 0.061856 0.425751 -0.214810
C15   C     C_R   0.444756 0.933483 0.425683 -0.202966
C16   C     C_R   0.502981 0.739392 0.499950 0.863134
C17   C     C_R   0.509483 0.872001 0.499734 -0.101397
C18   C     C_R   0.382680 0.334787 0.139637 -0.148404
C19   C     C_R   0.324821 0.253117 0.069750 -0.193192
C20   C     C_R   0.324773 0.253032 0.930406 -0.182545
C21   C     C_R   0.382612 0.334571 0.860264 -0.141473
C22   C     C_R   0.442208 0.418483 0.927755 0.167237
C23   C     C_R   0.946012 0.267827 0.486108 -0.243269
C24   C     C_R   0.442227 0.418563 0.072134 0.170922
C25   C     C_R   0.555321 0.578020 0.071412 -0.104801
C26   C     C_R   0.555302 0.577992 0.928443 -0.105665
C27   C     C_R   0.672742 0.500712 0.499996 0.859554
C28   C     C_R   0.816304 0.613218 0.508903 -0.276521
C29   C     C_R   0.767921 0.499639 0.499988 -0.033485
C30   C     C_R   0.809809 0.384860 0.490884 -0.264182
C31   C     C_R   0.902734 0.382402 0.492857 0.133113
C32   C     C_R   0.952936 0.496860 0.501654 0.065920
C33   C     C_R   0.039255 0.266055 0.487526 -0.196183
C34   C     C_R   0.090267 0.379206 0.494981 0.129385
C35   C     C_R   0.046531 0.495428 0.502027 0.009277
C36   C     C_R   0.096244 0.610453 0.509147 0.124673
C37   C     C_R   0.052535 0.724958 0.516942 -0.205438
C38   C     C_R   0.959248 0.726163 0.517355 -0.221406
H1    H     H_    0.781504 0.701134 0.514295 0.127552
H2    H     H_    0.279618 0.189482 0.876130 0.150648
H3    H     H_    0.378671 0.329243 0.753569 0.197468
H4    H     H_    0.770028 0.298181 0.482284 0.132791
H5    H     H_    0.600526 0.641838 0.874862 0.146119
H6    H     H_    0.907739 0.179696 0.479861 0.152325
H7    H     H_    0.070986 0.175918 0.482124 0.171365
H8    H     H_    0.228413 0.696573 0.512790 0.138684
H9    H     H_    0.090500 0.813357 0.522608 0.145232
H10   H     H_    0.926164 0.815376 0.523468 0.146119
H11   H     H_    0.393069 0.109255 0.369920 0.140520
H12   H     H_    0.651076 0.238310 0.641379 0.159139
H13   H     H_    0.271802 0.256878 0.574380 0.173186
H14   H     H_    0.269727 0.262121 0.403851 0.166012
H15   H     H_    0.768697 0.126976 0.757061 0.143588
H16   H     H_    0.769329 0.894569 0.755413 0.137964
H17   H     H_    0.652217 0.773794 0.638038 0.142814
H18   H     H_    0.392939 0.881675 0.370211 0.155004
H19   H     H_    0.600569 0.641866 0.124911 0.149837
H20   H     H_    0.378943 0.329839 0.246209 0.192778
H21   H     H_    0.279735 0.189613 0.124223 0.147305
N1    N     N_R   0.499150 0.498800 0.142780 -0.123295
N2    N     N_R   0.499120 0.498720 0.857170 -0.123031
N3    N     N_3   0.229939 0.262460 0.490235 -0.484037
O1    O     O_R   0.500000 0.316780 0.614690 -0.643889
O2    O     O_R   0.499990 0.316750 0.385360 -0.631140
O3    O     O_R   0.367850 0.499980 0.614680 -0.629615
O4    O     O_R   0.367840 0.499960 0.385350 -0.633706
O5    O     O_R   0.500010 0.683250 0.614640 -0.615877
O6    O     O_R   0.500000 0.683220 0.385310 -0.613046
O7    O     O_R   0.632160 0.500040 0.614650 -0.629364
O8    O     O_R   0.632150 0.500020 0.385320 -0.607256
Zn1   Zn    Zn3+2 0.500010 0.500020 0.653130 0.933430
Zn2   Zn    Zn3+2 0.499990 0.499980 0.346870 0.942284

loop_
_geom_bond_atom_site_label_1
_geom_bond_atom_site_label_2
_ccdc_geom_bond_type
C5    C36   A    
C32   C35   A    
C6    C7    A    
C9    H17   S    
C25   N1    A    
C37   H9    S    
C33   H7    S    
C9    C10   A    
C26   N2    A    
C38   H10   S    
C31   C32   A    
C27   O7    A    
O6    Zn2   S    
C30   C31   A    
C24   N1    A    
C15   H18   S    
C2    C34   A    
C2    C3    A    
C3    C5    A    
C7    C8    A    
C16   O5    A    
H14   N3    S    
C13   C14   A    
C6    H12   S    
C22   N2    A    
C4    O4    A    
O4    Zn2   S    
C11   C13   A    
N2    Zn1   S    
C29   C30   A    
C27   O8    A    
C25   H19   S    
C12   C28   A    
C34   C35   A    
C16   O6    A    
C1    O1    A    
C22   C24   A    
C36   C37   A    
C37   C38   A    
O1    Zn1   S    
C26   H5    S    
C33   C34   A    
O5    Zn1   S    
O2    Zn2   S    
C12   C38   A    
C4    O3    A    
C20   H2    S    
C21   H3    S    
C14   H11   S    
C27   C29   S    
C10   C11   A    
N1    Zn2   S    
C10   C17   A    
C3    C4    S    
C1    O2    A    
C2    N3    S    
C1    C13   S    
C20   C21   A    
C18   C24   A    
O7    Zn1   S    
C18   C19   A    
C5    H8    S    
C8    H16   S    
C6    C11   A    
C15   C17   A    
C7    H15   S    
C14   C15   A    
C28   C29   A    
O8    Zn2   S    
C28   H1    S    
C19   H21   S    
C25   C26   A    
C21   C22   A    
C30   H4    S    
C18   H20   S    
H13   N3    S    
C12   C32   A    
C23   H6    S    
C19   C20   A    
C16   C17   S    
O3    Zn1   S    
C8    C9    A    
C23   C33   A    
C35   C36   A    
C23   C31   A    
