data_mof_unit_23493.cif
_audit_creation_date              2012-12-10T16:49:27-0500
_audit_creation_method            fapswitch 2.2
_symmetry_space_group_name_H-M    P1
_symmetry_Int_Tables_number       1
_space_group_crystal_system       triclinic
_cell_length_a                    7.742316
_cell_length_b                    8.610214
_cell_length_c                    12.823156
_cell_angle_alpha                 90.227794
_cell_angle_beta                  86.501144
_cell_angle_gamma                 92.465278
_cell_volume                      852.446153107

loop_
_atom_site_label
_atom_site_type_symbol
_atom_type_description
_atom_site_fract_x
_atom_site_fract_y
_atom_site_fract_z
_atom_type_partial_charge
C1    C     C_R   0.457360 0.205901 0.494902 0.936631
C2    C     C_R   0.698895 0.417786 0.137854 0.344450
C3    C     C_R   0.549721 0.418353 0.869082 0.351894
C4    C     C_R   0.450283 0.581657 0.130919 0.351900
C5    C     C_R   0.565284 0.455849 0.974195 -0.204866
C6    C     C_R   0.434722 0.544165 0.025805 -0.204857
C7    C     C_2   0.450293 0.045664 0.471751 -0.080278
C8    C     C_2   0.549699 0.954335 0.528257 -0.080273
C9    C     C_3   0.362643 0.994676 0.371542 -0.375163
C10   C     C_3   0.391743 0.110500 0.281204 -0.844491
C11   C     C_3   0.637360 0.005304 0.628466 -0.375219
C12   C     C_R   0.542639 0.794099 0.505101 0.936591
C13   C     C_3   0.608073 0.889542 0.718827 -0.844523
C14   C     C_R   0.462661 0.499755 0.700079 0.968134
C15   C     C_R   0.537339 0.500244 0.299921 0.968143
C16   C     C_R   0.565301 0.500757 0.187829 -0.221288
C17   C     C_R   0.434700 0.499248 0.812172 -0.221275
C18   C     C_R   0.291795 0.591324 0.971169 0.364741
C19   C     C_R   0.708212 0.408692 0.028830 0.364743
C20   C     C_R   0.301109 0.582223 0.862146 0.344464
H1    H     H_    0.998589 0.615047 0.421710 0.208273
H2    H     H_    0.531339 0.145169 0.269309 0.268513
H3    H     H_    0.348554 0.055978 0.208068 0.256622
H4    H     H_    0.413939 0.885112 0.339422 0.255939
H5    H     H_    0.221256 0.975695 0.390024 0.232574
H6    H     H_    0.468439 0.855002 0.730699 0.268582
H7    H     H_    0.685165 0.785431 0.703897 0.276593
H8    H     H_    0.651281 0.944054 0.791961 0.256627
H9    H     H_    0.778770 0.024132 0.610002 0.232552
H10   H     H_    0.586202 0.114939 0.660553 0.256008
H11   H     H_    0.001411 0.384953 0.578290 0.208278
H12   H     H_    0.344500 0.781285 0.128380 0.360178
H13   H     H_    0.655509 0.218728 0.871625 0.360177
H14   H     H_    0.896758 0.286649 0.151743 0.379751
H15   H     H_    0.103248 0.713362 0.848255 0.379749
H16   H     H_    0.121063 0.583069 0.087804 0.390851
H17   H     H_    0.878941 0.416949 0.912193 0.390850
H18   H     H_    0.314534 0.214531 0.296173 0.276656
N1    N     N_2   0.054030 0.541640 0.471970 -0.154781
N2    N     N_2   0.945970 0.458360 0.528030 -0.154771
O1    O     O_R   0.609680 0.261530 0.506880 -0.627652
O2    O     O_3   0.641326 0.301700 0.819863 -0.766253
O3    O     O_3   0.819733 0.350876 0.196893 -0.745329
O4    O     O_3   0.180269 0.649130 0.803106 -0.745332
O5    O     O_3   0.141137 0.641237 0.021313 -0.764858
O6    O     O_3   0.858874 0.358785 0.978686 -0.764859
O7    O     O_R   0.390320 0.738470 0.493120 -0.627637
O8    O     O_R   0.323330 0.288220 0.488910 -0.634688
O9    O     O_R   0.676670 0.711780 0.511090 -0.634686
O10   O     O_R   0.619510 0.488830 0.661140 -0.587837
O11   O     O_R   0.380490 0.511170 0.338860 -0.587826
O12   O     O_R   0.333160 0.515520 0.643180 -0.577739
O13   O     O_R   0.666840 0.484480 0.356820 -0.577747
O14   O     O_3   0.358676 0.698307 0.180139 -0.766247
Zn1   Zn    Zn3+2 0.691200 0.482180 0.511990 0.990010
Zn2   Zn    Zn3+2 0.308800 0.517820 0.488010 0.990001

loop_
_geom_bond_atom_site_label_1
_geom_bond_atom_site_label_2
_ccdc_geom_bond_type
C4    C16   A    
C9    H4    S    
C5    C19   A    
C15   O11   A    
C10   H3    S    
C2    C16   A    
C9    C10   S    
C13   H7    S    
O10   Zn1   S    
H1    N1    S    
C10   H18   S    
C2    O3    S    
C8    C12   S    
N2    Zn1   S    
C13   H8    S    
C12   O9    A    
C2    C19   A    
C19   O6    S    
C9    H5    S    
H16   O5    S    
C3    O2    S    
C1    C7    S    
C10   H2    S    
H15   O4    S    
C11   C13   S    
C14   C17   S    
C14   O10   A    
O12   Zn2   S    
C12   O7    A    
H13   O2    S    
C15   O13   A    
C1    O1    A    
C20   O4    S    
C3    C17   A    
C18   C20   A    
O13   Zn1   S    
C1    O8    A    
C5    C6    A    
C6    C18   A    
C13   H6    S    
C8    C11   S    
C15   C16   S    
C18   O5    S    
C7    C9    S    
C7    C8    D    
C17   C20   A    
H11   N2    S    
C11   H9    S    
C4    C6    A    
O11   Zn2   S    
H12   O14   S    
N1    N2    D    
O8    Zn2   S    
O1    Zn1   S    
C4    O14   S    
H17   O6    S    
O9    Zn1   S    
C14   O12   A    
H14   O3    S    
N1    Zn2   S    
C11   H10   S    
O7    Zn2   S    
C3    C5    A    
