data_mof_unit_23246.cif
_audit_creation_date              2013-03-05T15:52:55-0500
_audit_creation_method            fapswitch 2.2
_symmetry_space_group_name_H-M    P1
_symmetry_Int_Tables_number       1
_space_group_crystal_system       triclinic
_cell_length_a                    10.921885
_cell_length_b                    10.84034
_cell_length_c                    17.108775
_cell_angle_alpha                 99.900038
_cell_angle_beta                  99.910331
_cell_angle_gamma                 60.665325
_cell_volume                      1730.45989367

loop_
_atom_site_label
_atom_site_type_symbol
_atom_site_description
_atom_site_fract_x
_atom_site_fract_y
_atom_site_fract_z
_atom_type_partial_charge
O1    O     O_R   0.749810 0.499790 0.438040 -0.469360
O2    O     O_R   0.477660 0.726260 0.439290 -0.537315
C1    C     C_R   0.360855 0.759871 0.395148 0.525969
O3    O     O_R   0.260150 0.743000 0.412270 -0.467213
O4    O     O_R   0.297740 0.466550 0.394720 -0.481304
C2    C     C_R   0.370856 0.346784 0.357505 0.544647
O5    O     O_R   0.488080 0.253500 0.386430 -0.504585
O6    O     O_R   0.722670 0.303800 0.421940 -0.510240
C3    C     C_R   0.722447 0.405578 0.391364 0.540849
O7    O     O_R   0.751130 0.502220 0.613520 -0.464074
O8    O     O_R   0.478890 0.728510 0.601960 -0.498717
C4    C     C_R   0.359098 0.766955 0.627588 0.550238
O9    O     O_R   0.261470 0.745430 0.587750 -0.472429
O10   O     O_R   0.298970 0.468800 0.557390 -0.458551
C5    C     C_R   0.368244 0.339485 0.579273 0.556746
O11   O     O_R   0.489400 0.255930 0.561910 -0.519874
O12   O     O_R   0.723890 0.306050 0.584610 -0.493640
C6    C     C_R   0.771901 0.381487 0.629859 0.568895
Cr1   Cr    Cr6+3 0.608100 0.610860 0.522250 1.065494
Cr2   Cr    Cr6+3 0.288890 0.599990 0.488420 1.113714
Cr3   Cr    Cr6+3 0.603040 0.289190 0.489390 1.065328
O13   O     O_3   0.500010 0.500010 0.500020 -0.304570
C7    C     C_1   0.344005 0.335954 0.274137 -0.023290
C8    C     C_1   0.331614 0.326051 0.203335 -0.027764
H1    H     H_    0.688555 0.597490 0.303890 0.163646
C9    C     C_R   0.791137 0.350971 0.146006 0.011760
C10   C     C_R   0.779928 0.243746 0.175311 0.005367
C11   C     C_R   0.789827 0.246070 0.259104 -0.019698
C12   C     C_R   0.725324 0.495516 0.270446 -0.138593
C13   C     C_R   0.752038 0.481124 0.192258 -0.135802
C14   C     C_R   0.779831 0.125351 0.125353 0.086150
C15   C     C_R   0.836752 0.995791 0.157182 0.014319
C16   C     C_R   0.881282 0.990371 0.238807 0.042253
C17   C     C_R   0.848995 0.114619 0.290137 -0.075021
C18   C     C_R   0.754047 0.377681 0.307357 0.000513
H2    H     H_    0.751082 0.568476 0.169443 0.150500
H3    H     H_    0.885149 0.103847 0.352620 0.182012
H4    H     H_    0.294213 0.625477 0.264868 0.157570
C19   C     C_R   0.355381 0.812957 0.154222 0.004457
C20   C     C_R   0.446608 0.844857 0.211943 0.015511
C21   C     C_R   0.435395 0.847689 0.293115 -0.027047
C22   C     C_R   0.318487 0.704651 0.251725 -0.122905
C23   C     C_R   0.301095 0.730846 0.173151 -0.130548
C24   C     C_R   0.562731 0.849677 0.190850 -0.119206
C25   C     C_R   0.671474 0.839331 0.248833 -0.120193
C26   C     C_R   0.656282 0.850014 0.329338 0.116775
C27   C     C_R   0.525313 0.882166 0.350043 -0.073524
C28   C     C_R   0.358907 0.785496 0.313260 0.014533
H5    H     H_    0.586504 0.828671 0.129667 0.156107
H6    H     H_    0.244533 0.688990 0.127959 0.161730
H7    H     H_    0.771470 0.799560 0.228068 0.162329
H8    H     H_    0.508793 0.901352 0.411481 0.173583
C29   C     C_R   0.290876 0.261125 0.793643 -0.023854
C30   C     C_R   0.399095 0.143681 0.750880 -0.046759
C31   C     C_R   0.429902 0.158738 0.677496 -0.020949
C32   C     C_R   0.206116 0.384728 0.675567 0.065505
C33   C     C_R   0.202798 0.385902 0.756459 0.082677
C34   C     C_R   0.487633 0.013406 0.783260 -0.102947
C35   C     C_R   0.623040 0.924601 0.765523 0.076475
C36   C     C_R   0.667856 0.952762 0.704177 -0.009431
C37   C     C_R   0.565202 0.046335 0.651334 -0.010841
C38   C     C_R   0.329261 0.287640 0.640109 -0.016924
H9    H     H_    0.463077 0.982662 0.828909 0.198745
C39   C     C_1   0.817379 0.342395 0.708993 -0.010395
C40   C     C_1   0.845588 0.313516 0.776566 -0.012196
C41   C     C_1   0.339515 0.807814 0.709709 -0.016993
C42   C     C_1   0.312368 0.836718 0.777570 -0.015527
O14   O     O_R   0.171100 0.914680 0.053100 -0.491306
O15   O     O_R   0.941680 0.184840 0.050710 -0.481437
C43   C     C_R   0.883678 0.313839 0.082978 0.557707
O16   O     O_R   0.922080 0.403420 0.072610 -0.503776
O17   O     O_R   0.196880 0.369150 0.083850 -0.479785
C44   C     C_R   0.318480 0.299210 0.120020 0.565067
O18   O     O_R   0.411730 0.181020 0.091530 -0.492138
O19   O     O_R   0.365010 0.944360 0.063320 -0.510932
C45   C     C_R   0.297511 0.887019 0.082823 0.548333
O20   O     O_R   0.159380 0.906670 0.876210 -0.462030
O21   O     O_R   0.930820 0.177420 0.886730 -0.486920
C46   C     C_R   0.887899 0.296737 0.858871 0.548033
O22   O     O_R   0.910360 0.395420 0.895720 -0.485427
O23   O     O_R   0.186010 0.361730 0.919870 -0.455464
C47   C     C_R   0.279532 0.252176 0.877624 0.550204
O24   O     O_R   0.400000 0.173010 0.914630 -0.495336
O25   O     O_R   0.354140 0.936940 0.899340 -0.550141
C48   C     C_R   0.277889 0.885760 0.857309 0.546082
Cr4   Cr    Cr6+3 0.053960 0.052250 0.967380 1.091668
Cr5   Cr    Cr6+3 0.059890 0.373160 0.992710 1.104450
Cr6   Cr    Cr6+3 0.373370 0.061690 0.991710 1.042935
O26   O     O_3   0.162410 0.162370 0.983930 -0.306136
I1    I     I_    0.836714 0.734935 0.409278 -0.236777
I2    I     I_    0.024416 0.530657 0.608284 -0.184569
I3    I     I_    0.125367 0.590273 0.822680 -0.190050
I4    I     I_    0.746457 0.749837 0.833243 -0.245994
C49   C     C_1   0.816880 0.894352 0.697557 0.268083
N1    N     N_1   0.935495 0.852342 0.692762 -0.210077
C50   C     C_1   0.603233 0.006358 0.571691 0.253274
N2    N     N_1   0.637164 0.982622 0.508647 -0.268395
I5    I     I_    0.687012 0.143434 0.004084 -0.229030
C51   C     C_1   0.858779 0.867783 0.105583 0.225132
N3    N     N_1   0.876551 0.765121 0.064328 -0.255381
I6    I     I_    0.012332 0.798164 0.285712 -0.371991

loop_
_geom_bond_atom_site_label_1
_geom_bond_atom_site_label_2
_geom_bond_distance
_ccdc_geom_bond_type
C24   H5    1.081026 S    
O11   Cr3   2.081407 S    
C40   C46   1.418167 S    
C33   I3    2.130252 S    
C17   H3    1.079246 S    
O14   Cr4   2.061162 S    
C44   O18   1.262529 A    
O23   C47   1.321560 A    
C37   C50   1.425621 S    
O4    Cr2   1.946962 S    
C29   C30   1.433910 A    
O8    Cr1   1.943906 S    
C9    C10   1.406556 A    
C16   I6    2.071591 S    
H4    C22   1.080420 S    
O22   Cr5   2.073084 S    
O4    C2    1.266331 A    
C8    C44   1.401769 S    
C25   H7    1.060378 S    
C5    O11   1.236149 A    
C31   C38   1.459562 A    
C1    C28   1.469079 S    
C32   C33   1.388362 A    
C14   I5    2.142875 S    
C26   C27   1.391600 A    
C5    C38   1.472627 S    
C32   I2    2.128308 S    
C14   C15   1.395175 A    
C11   C18   1.424604 A    
O6    C3    1.298591 A    
C7    C8    1.187549 T    
C43   O16   1.278402 A    
O21   Cr4   1.941856 S    
C41   C42   1.198495 T    
C11   C17   1.403515 A    
C35   C36   1.366658 A    
Cr3   O13   1.982411 S    
C49   N1    1.156766 T    
O12   C6    1.267177 A    
H1    C12   1.066440 S    
C42   C48   1.420172 S    
O1    Cr1   2.065439 S    
C10   C14   1.414768 A    
O10   Cr2   1.950874 S    
Cr1   O13   2.015089 S    
O1    C3    1.306344 A    
O25   C48   1.275879 A    
C19   C20   1.403229 A    
C29   C33   1.403577 A    
O21   C46   1.288753 A    
C19   C23   1.389613 A    
C34   C35   1.365657 A    
O5    Cr3   2.075919 S    
C4    C41   1.418652 S    
O12   Cr3   1.955342 S    
C29   C47   1.486658 S    
C27   H8    1.064903 S    
O19   C45   1.283046 A    
C12   C13   1.384506 A    
C51   N3    1.157490 T    
O7    Cr1   2.062941 S    
C50   N2    1.147022 T    
C16   C17   1.394342 A    
C21   C27   1.399281 A    
C22   C28   1.404688 A    
C19   C45   1.452767 S    
Cr6   O26   1.999530 S    
O23   Cr5   1.958659 S    
O16   Cr5   2.076535 S    
C20   C21   1.408820 A    
Cr2   O13   1.999668 S    
O20   Cr4   2.059266 S    
C9    C13   1.393288 A    
Cr5   O26   1.982579 S    
C9    C43   1.474328 S    
C32   C38   1.399637 A    
C22   C23   1.383614 A    
C1    O3    1.286638 A    
O17   Cr5   1.956630 S    
C24   C25   1.381836 A    
C30   C34   1.408163 A    
C34   H9    1.020853 S    
C30   C31   1.409201 A    
O9    Cr2   2.062683 S    
O2    Cr1   1.943549 S    
O25   Cr6   1.949245 S    
O17   C44   1.270212 A    
Cr4   O26   2.015421 S    
O6    Cr3   1.961768 S    
O8    C4    1.295414 A    
C23   H6    1.083938 S    
C2    O5    1.261786 A    
C26   I1    2.135534 S    
O14   C45   1.288335 A    
C12   C18   1.394793 A    
C15   C51   1.444838 S    
C13   H2    1.079418 S    
C15   C16   1.398801 A    
O2    C1    1.279899 A    
C39   C40   1.198670 T    
C6    C39   1.420876 S    
O7    C6    1.286699 A    
C2    C7    1.402268 S    
C31   C37   1.464457 A    
C21   C28   1.414948 A    
O24   Cr6   2.074381 S    
O15   C43   1.283951 A    
O20   C48   1.289448 A    
C46   O22   1.254600 A    
O3    Cr2   2.067896 S    
C25   C26   1.393907 A    
O19   Cr6   1.953254 S    
C20   C24   1.403727 A    
C4    O9    1.262891 A    
C47   O24   1.289281 A    
C10   C11   1.415767 A    
C3    C18   1.481651 S    
O10   C5    1.312041 A    
C36   C37   1.398374 A    
C35   I4    2.112696 S    
O18   Cr6   2.071362 S    
O15   Cr4   1.942270 S    
C36   C49   1.446348 S    
