data_mof_unit_20932.cif
_audit_creation_date              2012-12-11T14:52:27-0500
_audit_creation_method            fapswitch 2.2
_symmetry_space_group_name_H-M    P1
_symmetry_Int_Tables_number       1
_space_group_crystal_system       triclinic
_cell_length_a                    19.227852
_cell_length_b                    11.143094
_cell_length_c                    18.711029
_cell_angle_alpha                 90.110973
_cell_angle_beta                  89.718829
_cell_angle_gamma                 89.623561
_cell_volume                      4008.84063335

loop_
_atom_site_label
_atom_site_type_symbol
_atom_type_description
_atom_site_fract_x
_atom_site_fract_y
_atom_site_fract_z
_atom_type_partial_charge
C1    C     C_R   0.272589 0.041110 0.854162 0.549476
C2    C     C_R   0.729004 0.044545 0.146897 0.531313
C3    C     C_R   0.772589 0.541111 0.854162 0.549508
C4    C     C_R   0.229004 0.544544 0.146897 0.531793
C5    C     C_3   0.514712 0.716981 0.971532 0.175548
C6    C     C_3   0.463869 0.745288 0.032515 0.134937
C7    C     C_3   0.014707 0.216982 0.971536 0.175347
C8    C     C_3   0.963865 0.245290 0.032518 0.134862
C9    C     C_R   0.288857 0.507055 0.956560 0.188034
C10   C     C_R   0.701939 0.517965 0.041230 0.255077
C11   C     C_R   0.788856 0.007054 0.956560 0.187768
C12   C     C_R   0.201938 0.017965 0.041230 0.255090
C13   C     C_R   0.293348 0.509550 0.031520 -0.119084
C14   C     C_R   0.704011 0.514350 0.966566 -0.120278
C15   C     C_R   0.793347 0.009549 0.031519 -0.119030
C16   C     C_R   0.204010 0.014349 0.966567 -0.120325
C17   C     C_R   0.247118 0.580680 0.072802 -0.028798
C18   C     C_R   0.758327 0.570152 0.929179 -0.006067
C19   C     C_R   0.747118 0.080680 0.072802 -0.028841
C20   C     C_R   0.258327 0.070151 0.929180 -0.006069
C21   C     C_R   0.198143 0.651652 0.036691 -0.148285
C22   C     C_R   0.811176 0.627109 0.967772 -0.068416
C23   C     C_R   0.698144 0.151654 0.036692 -0.148318
C24   C     C_R   0.311175 0.127108 0.967772 -0.068456
C25   C     C_R   0.193144 0.647783 0.962959 -0.202270
C26   C     C_R   0.810148 0.629090 0.041127 -0.187733
C27   C     C_R   0.693144 0.147785 0.962960 -0.202161
C28   C     C_R   0.310148 0.129090 0.041127 -0.187772
C29   C     C_R   0.242715 0.584462 0.921675 0.036292
C30   C     C_R   0.753397 0.582271 0.078875 0.035647
C31   C     C_R   0.742715 0.084463 0.921675 0.036225
C32   C     C_R   0.253396 0.082271 0.078875 0.035689
C33   C     C_R   0.550889 0.749648 0.554618 0.187475
C34   C     C_R   0.560913 0.737112 0.481217 0.150727
C35   C     C_R   0.046481 0.241389 0.554043 0.195331
C36   C     C_R   0.056704 0.230227 0.480271 0.136121
C37   C     C_R   0.534895 0.824651 0.434386 0.013123
C38   C     C_R   0.502991 0.835571 0.578790 0.076061
C39   C     C_R   0.034419 0.322746 0.434391 0.016580
C40   C     C_R   0.003029 0.333693 0.578770 0.083082
C41   C     C_R   0.492781 0.917590 0.459849 -0.186054
C42   C     C_R   0.475130 0.920338 0.531431 -0.159350
C43   C     C_R   0.995054 0.418431 0.460605 -0.190517
C44   C     C_R   0.977893 0.421612 0.532152 -0.167484
C45   C     C_R   0.469134 0.821183 0.855000 0.530085
C46   C     C_R   0.532913 0.820815 0.143957 0.543748
C47   C     C_R   0.969132 0.321183 0.855001 0.529570
C48   C     C_R   0.032910 0.320816 0.143958 0.543752
C49   C     C_R   0.185082 0.535329 0.558537 0.085139
C50   C     C_R   0.824943 0.615375 0.455285 0.096954
C51   C     C_R   0.684150 0.039834 0.556975 0.079995
C52   C     C_R   0.322912 0.123809 0.457279 0.095594
C53   C     C_R   0.172390 0.519680 0.485998 -0.156684
C54   C     C_R   0.826463 0.597562 0.527991 -0.166839
C55   C     C_R   0.672156 0.022786 0.484614 -0.155486
C56   C     C_R   0.323937 0.105396 0.529781 -0.171009
C57   C     C_R   0.226181 0.532168 0.435744 -0.007639
C58   C     C_R   0.782783 0.514654 0.560565 -0.016772
C59   C     C_R   0.726320 0.033747 0.435071 -0.005917
C60   C     C_R   0.282323 0.018165 0.561135 -0.023069
C61   C     C_R   0.294595 0.556428 0.457953 0.151255
C62   C     C_R   0.740129 0.441206 0.517070 0.112119
C63   C     C_R   0.794481 0.058625 0.457474 0.156916
C64   C     C_R   0.242142 0.942936 0.516707 0.101346
C65   C     C_R   0.307936 0.566246 0.529999 0.205605
C66   C     C_R   0.734503 0.465741 0.443526 0.157988
C67   C     C_R   0.807501 0.068195 0.529547 0.213061
C68   C     C_R   0.235522 0.969252 0.443668 0.153337
C69   C     C_R   0.252057 0.567938 0.579507 0.007055
C70   C     C_R   0.768707 0.565384 0.415881 0.023209
C71   C     C_R   0.751428 0.070402 0.578747 0.005970
C72   C     C_R   0.268063 0.070605 0.417093 0.027262
C73   C     C_R   0.258119 0.631406 0.849333 0.549450
C74   C     C_R   0.740925 0.632093 0.150467 0.557172
C75   C     C_R   0.758119 0.131407 0.849333 0.549223
C76   C     C_R   0.240925 0.132092 0.150467 0.558263
C77   C     C_R   0.290652 0.999212 0.638101 0.586263
C78   C     C_R   0.711482 0.004359 0.362010 0.553938
C79   C     C_R   0.790687 0.498711 0.638094 0.586028
C80   C     C_R   0.211303 0.503861 0.362166 0.554543
C81   C     C_R   0.470710 0.823791 0.648196 0.559868
C82   C     C_R   0.556167 0.819553 0.360219 0.547116
C83   C     C_R   0.970452 0.323552 0.648070 0.569553
C84   C     C_R   0.056184 0.319262 0.360272 0.548070
C85   C     C_R   0.260514 0.632921 0.645748 0.581130
C86   C     C_R   0.743345 0.630903 0.352561 0.580786
C87   C     C_R   0.760440 0.133465 0.645498 0.577436
C88   C     C_R   0.243099 0.132341 0.352987 0.584148
C89   C     C_3   0.492077 0.937112 0.027023 -0.150367
C90   C     C_3   0.544531 0.907183 0.964862 -0.183390
C91   C     C_3   0.992073 0.437113 0.027025 -0.150416
C92   C     C_3   0.044527 0.407184 0.964865 -0.183156
C93   C     C_3   0.438517 0.855722 0.991299 0.114458
C94   C     C_3   0.567923 0.795503 0.007265 0.125369
C95   C     C_3   0.938513 0.355723 0.991302 0.114376
C96   C     C_3   0.067919 0.295504 0.007268 0.125472
C97   C     C_3   0.489912 0.827111 0.929363 0.031332
C98   C     C_3   0.516659 0.825367 0.068579 0.038197
C99   C     C_3   0.989908 0.327112 0.929366 0.031409
C100  C     C_3   0.016656 0.325368 0.068582 0.038245
Cr1   Cr    Cr6+3 0.229630 0.835900 0.747350 0.985063
Cr2   Cr    Cr6+3 0.770370 0.835900 0.252650 0.989445
Cr3   Cr    Cr6+3 0.729630 0.335900 0.747350 0.977926
Cr4   Cr    Cr6+3 0.270370 0.335900 0.252650 0.990529
Cr5   Cr    Cr6+3 0.387410 0.989850 0.750850 1.012613
Cr6   Cr    Cr6+3 0.612590 0.989850 0.249150 1.035521
Cr7   Cr    Cr6+3 0.887410 0.489850 0.750850 1.010242
Cr8   Cr    Cr6+3 0.112590 0.489850 0.249150 1.033779
Cr9   Cr    Cr6+3 0.385800 0.677120 0.749340 1.062668
Cr10  Cr    Cr6+3 0.614200 0.677120 0.250660 1.081507
Cr11  Cr    Cr6+3 0.885800 0.177120 0.749340 1.077660
Cr12  Cr    Cr6+3 0.114200 0.177120 0.250660 1.079224
H1    H     H_    0.121089 0.496669 0.468654 0.136887
H2    H     H_    0.864036 0.646306 0.559099 0.156167
H3    H     H_    0.620704 0.000941 0.466793 0.139395
H4    H     H_    0.360549 0.155382 0.561379 0.158950
H5    H     H_    0.480421 0.027072 0.049894 0.135322
H6    H     H_    0.579719 0.970555 0.937052 0.128333
H7    H     H_    0.980417 0.527073 0.049896 0.135219
H8    H     H_    0.079714 0.470555 0.937054 0.128364
H9    H     H_    0.324871 0.442284 0.057411 0.149689
H10   H     H_    0.665530 0.462354 0.938224 0.151944
H11   H     H_    0.824869 0.942280 0.057409 0.149695
H12   H     H_    0.165529 0.962354 0.938224 0.152095
H13   H     H_    0.158854 0.701795 0.065614 0.217042
H14   H     H_    0.856992 0.662837 0.941962 0.212235
H15   H     H_    0.658856 0.201798 0.065615 0.217048
H16   H     H_    0.356991 0.162837 0.941962 0.212153
H17   H     H_    0.154352 0.705181 0.938486 0.159867
H18   H     H_    0.852232 0.675083 0.067748 0.147404
H19   H     H_    0.654353 0.205185 0.938487 0.159808
H20   H     H_    0.352232 0.175083 0.067748 0.147481
H21   H     H_    0.471936 0.985014 0.424277 0.142585
H22   H     H_    0.438992 0.987729 0.549942 0.130922
H23   H     H_    0.976831 0.489011 0.425758 0.146105
H24   H     H_    0.944622 0.492531 0.551446 0.130001
O1    O     O_R   0.214270 0.709000 0.827470 -0.550842
O2    O     O_R   0.785730 0.709000 0.172530 -0.553621
O3    O     O_R   0.714270 0.209000 0.827470 -0.551391
O4    O     O_R   0.285730 0.209000 0.172530 -0.553225
O5    O     O_R   0.445950 0.919440 0.676520 -0.550663
O6    O     O_R   0.554050 0.919440 0.323480 -0.530375
O7    O     O_R   0.945950 0.419440 0.676520 -0.560289
O8    O     O_R   0.054050 0.419440 0.323480 -0.531203
O9    O     O_R   0.456730 0.717630 0.669840 -0.464522
O10   O     O_R   0.543270 0.717630 0.330160 -0.497940
O11   O     O_R   0.956730 0.217630 0.669840 -0.422911
O12   O     O_R   0.043270 0.217630 0.330160 -0.498636
O13   O     O_R   0.320620 0.625640 0.672920 -0.438718
O14   O     O_R   0.679380 0.625640 0.327080 -0.447865
O15   O     O_R   0.820620 0.125640 0.672920 -0.440014
O16   O     O_R   0.179380 0.125640 0.327080 -0.447557
O17   O     O_3   0.334280 0.834290 0.749180 -0.300440
O18   O     O_3   0.665720 0.834290 0.250820 -0.326384
O19   O     O_3   0.834280 0.334290 0.749180 -0.304298
O20   O     O_3   0.165720 0.334290 0.250820 -0.326819
O21   O     O_R   0.236160 0.958490 0.823130 -0.529467
O22   O     O_R   0.763840 0.958490 0.176870 -0.518800
O23   O     O_R   0.736160 0.458490 0.823130 -0.529627
O24   O     O_R   0.263840 0.458490 0.176870 -0.518670
O25   O     O_R   0.332080 0.075470 0.831280 -0.481376
O26   O     O_R   0.667920 0.075470 0.168720 -0.494670
O27   O     O_R   0.832080 0.575470 0.831280 -0.480951
O28   O     O_R   0.167920 0.575470 0.168720 -0.494695
O29   O     O_R   0.446300 0.918110 0.826620 -0.502620
O30   O     O_R   0.553700 0.918110 0.173380 -0.517126
O31   O     O_R   0.946300 0.418110 0.826620 -0.504135
O32   O     O_R   0.053700 0.418110 0.173380 -0.517171
O33   O     O_R   0.457110 0.716200 0.831760 -0.535002
O34   O     O_R   0.542890 0.716200 0.168240 -0.503862
O35   O     O_R   0.957110 0.216200 0.831760 -0.533408
O36   O     O_R   0.042890 0.216200 0.168240 -0.504133
O37   O     O_R   0.320980 0.624310 0.823030 -0.468685
O38   O     O_R   0.679020 0.624310 0.176970 -0.430024
O39   O     O_R   0.820980 0.124310 0.823030 -0.468944
O40   O     O_R   0.179020 0.124310 0.176970 -0.429708
O41   O     O_R   0.213890 0.710430 0.665540 -0.517087
O42   O     O_R   0.786110 0.710430 0.334460 -0.511129
O43   O     O_R   0.713890 0.210430 0.665540 -0.520174
O44   O     O_R   0.286110 0.210430 0.334460 -0.512977
O45   O     O_R   0.235810 0.959820 0.673020 -0.492254
O46   O     O_R   0.764190 0.959820 0.326980 -0.505680
O47   O     O_R   0.735810 0.459820 0.673020 -0.493227
O48   O     O_R   0.264190 0.459820 0.326980 -0.504004
O49   O     O_R   0.331700 0.076900 0.669350 -0.532552
O50   O     O_R   0.668300 0.076900 0.330650 -0.463239
O51   O     O_R   0.831700 0.576900 0.669350 -0.530096
O52   O     O_R   0.168300 0.576900 0.330650 -0.463657
N1    N     N_2   0.366894 0.888641 0.988734 -0.530092
H25   H     H_    0.346001 0.894922 0.039447 0.254626
C101  C     C_3   0.328033 0.811264 0.943833 -0.242687
H26   H     H_    0.272609 0.822440 0.955798 0.148057
H27   H     H_    0.336624 0.834591 0.887400 0.201185
H28   H     H_    0.344390 0.717667 0.953034 0.168092
N2    N     N_2   0.638441 0.756641 0.012186 -0.499766
H29   H     H_    0.660331 0.746731 0.962117 0.257972
C102  C     C_3   0.677462 0.835014 0.055777 -0.244441
H30   H     H_    0.732899 0.815780 0.048190 0.158486
H31   H     H_    0.664452 0.927115 0.040071 0.149283
H32   H     H_    0.664284 0.822635 0.112509 0.199494
N3    N     N_2   0.866890 0.388642 0.988736 -0.530029
H33   H     H_    0.845996 0.394920 0.039449 0.254496
C103  C     C_3   0.828030 0.311266 0.943833 -0.242754
H34   H     H_    0.772606 0.322442 0.955796 0.148189
H35   H     H_    0.836624 0.334594 0.887401 0.201177
H36   H     H_    0.844387 0.217669 0.953034 0.167847
N4    N     N_2   0.138437 0.256640 0.012188 -0.499766
H37   H     H_    0.160326 0.246724 0.962120 0.258081
C104  C     C_3   0.177460 0.335015 0.055776 -0.244514
H38   H     H_    0.232897 0.315780 0.048187 0.158411
H39   H     H_    0.164451 0.427115 0.040068 0.149291
H40   H     H_    0.164284 0.322639 0.112509 0.199541
N5    N     N_2   0.133724 0.505023 0.610707 -0.517317
H41   H     H_    0.154215 0.475868 0.658514 0.244720
C105  C     C_3   0.077224 0.589423 0.621490 -0.293912
H42   H     H_    0.095157 0.672748 0.646765 0.165895
H43   H     H_    0.039668 0.551864 0.659759 0.162997
H44   H     H_    0.050545 0.609214 0.570597 0.134759
N6    N     N_2   0.879751 0.680558 0.420634 -0.482279
H45   H     H_    0.901842 0.638332 0.376893 0.261884
C106  C     C_3   0.925614 0.758618 0.460125 -0.299569
H46   H     H_    0.956641 0.812325 0.421843 0.140370
H47   H     H_    0.962006 0.704889 0.493180 0.116650
H48   H     H_    0.894927 0.821582 0.494068 0.196618
N7    N     N_2   0.630121 0.018259 0.607745 -0.514046
H49   H     H_    0.646982 0.994545 0.658040 0.247339
C107  C     C_3   0.573950 0.104869 0.609747 -0.287356
H50   H     H_    0.588226 0.182204 0.642989 0.156227
H51   H     H_    0.528580 0.065919 0.636866 0.160051
H52   H     H_    0.558554 0.132724 0.555185 0.143745
N8    N     N_2   0.377450 0.191113 0.423539 -0.481612
H53   H     H_    0.401467 0.148359 0.381057 0.262376
C108  C     C_3   0.421772 0.270400 0.463999 -0.297998
H54   H     H_    0.452632 0.325877 0.426471 0.142542
H55   H     H_    0.458281 0.217501 0.497347 0.116558
H56   H     H_    0.389836 0.331567 0.497823 0.199800
N9    N     N_2   0.350357 0.578864 0.409268 -0.481339
H57   H     H_    0.369721 0.506871 0.380676 0.273087
C109  C     C_3   0.348627 0.693178 0.372878 -0.240913
H58   H     H_    0.304728 0.696775 0.334663 0.203711
H59   H     H_    0.397903 0.705632 0.342775 0.149050
H60   H     H_    0.343435 0.767415 0.412330 0.184820
N10   N     N_2   0.700861 0.346608 0.547030 -0.453269
H61   H     H_    0.701453 0.270116 0.516281 0.287157
C110  C     C_3   0.631399 0.379991 0.569847 -0.245693
H62   H     H_    0.624496 0.362149 0.627430 0.174198
H63   H     H_    0.591886 0.331622 0.538044 0.118322
H64   H     H_    0.622469 0.476029 0.564060 0.166369
N11   N     N_2   0.850343 0.080792 0.408926 -0.484080
H65   H     H_    0.869405 0.008535 0.380360 0.270537
C111  C     C_3   0.848311 0.194657 0.372029 -0.242122
H66   H     H_    0.897389 0.206904 0.341549 0.146265
H67   H     H_    0.843277 0.269357 0.411192 0.185751
H68   H     H_    0.804191 0.197709 0.334059 0.203061
N12   N     N_2   0.211787 0.837567 0.543772 -0.449772
H69   H     H_    0.227117 0.765328 0.513316 0.275299
C112  C     C_3   0.137033 0.842615 0.551208 -0.243337
H70   H     H_    0.122407 0.858548 0.607787 0.163936
H71   H     H_    0.113772 0.759604 0.530107 0.146690
H72   H     H_    0.114663 0.913869 0.518970 0.138055
Cl1   Cl    Cl    0.396062 0.581760 0.553932 -0.648363
Cl2   Cl    Cl    0.687580 0.370790 0.385851 -0.653960
Cl3   Cl    Cl    0.895663 0.079625 0.554068 -0.626938
Cl4   Cl    Cl    0.190156 0.873036 0.385105 -0.655695
N13   N     N_2   0.537379 0.602094 0.942844 -0.498761
H73   H     H_    0.576230 0.608152 0.904896 0.243248
C113  C     C_3   0.484795 0.515099 0.926223 -0.217689
H74   H     H_    0.496237 0.430436 0.955091 0.170232
H75   H     H_    0.484693 0.495657 0.867971 0.172423
H76   H     H_    0.432823 0.548938 0.942067 0.221525
N14   N     N_2   0.419244 0.660639 0.069088 -0.541558
H77   H     H_    0.383528 0.700312 0.103094 0.251531
C114  C     C_3   0.452649 0.554018 0.097746 -0.234140
H78   H     H_    0.434348 0.473052 0.069761 0.139162
H79   H     H_    0.441016 0.545195 0.155717 0.147711
H80   H     H_    0.509556 0.555481 0.089606 0.256005
N15   N     N_2   0.037372 0.102094 0.942848 -0.498761
H81   H     H_    0.076218 0.108148 0.904893 0.243899
C115  C     C_3   0.984788 0.015091 0.926244 -0.217148
H82   H     H_    0.996236 0.930436 0.955119 0.170113
H83   H     H_    0.984677 0.995636 0.867994 0.174761
H84   H     H_    0.932818 0.048929 0.942094 0.220976
N16   N     N_2   0.919241 0.160637 0.069092 -0.541475
H85   H     H_    0.883515 0.200309 0.103086 0.251347
C116  C     C_3   0.952652 0.054036 0.097770 -0.234384
H86   H     H_    0.934331 0.973047 0.069824 0.139152
H87   H     H_    0.941050 0.045274 0.155751 0.147071
H88   H     H_    0.009556 0.055476 0.089597 0.256013
Cl5   Cl    Cl    0.333782 0.397057 0.907101 -0.715088
Cl6   Cl    Cl    0.634320 0.441136 0.084556 -0.659264
Cl7   Cl    Cl    0.833778 0.897054 0.907100 -0.714563
Cl8   Cl    Cl    0.134320 0.941136 0.084558 -0.659442
N17   N     N_2   0.585899 0.671156 0.602533 -0.551489
H89   H     H_    0.554748 0.610379 0.628624 0.283810
C117  C     C_3   0.637065 0.727029 0.647817 -0.301849
H90   H     H_    0.663886 0.657410 0.679892 0.178795
H91   H     H_    0.611697 0.791206 0.685326 0.140459
H92   H     H_    0.676569 0.773763 0.614673 0.173809
N18   N     N_2   0.590601 0.630354 0.453418 -0.474772
H93   H     H_    0.635183 0.605556 0.479264 0.261688
C118  C     C_3   0.540239 0.534992 0.445289 -0.232080
H94   H     H_    0.522578 0.502394 0.498150 0.164720
H95   H     H_    0.563104 0.459282 0.415108 0.196954
H96   H     H_    0.494063 0.566678 0.415294 0.196819
N19   N     N_2   0.073985 0.155682 0.603152 -0.491932
H97   H     H_    0.081461 0.069986 0.584684 0.251758
C119  C     C_3   0.129937 0.198761 0.647418 -0.283894
H98   H     H_    0.144490 0.128564 0.686595 0.175477
H99   H     H_    0.112986 0.278955 0.678232 0.146056
H100  H     H_    0.175958 0.220804 0.613865 0.152168
N20   N     N_2   0.085517 0.123802 0.450986 -0.484229
H101  H     H_    0.129074 0.094770 0.477174 0.244420
C120  C     C_3   0.034248 0.031980 0.436398 -0.239410
H102  H     H_    0.014057 0.993183 0.486761 0.158629
H103  H     H_    0.057695 0.959774 0.403376 0.191461
H104  H     H_    0.989469 0.069101 0.406605 0.199402

loop_
_geom_bond_atom_site_label_1
_geom_bond_atom_site_label_2
_ccdc_geom_bond_type
N12   C112  S    
C5    N13   S    
C55   C59   A    
C118  H94   S    
Cr8   O28   S    
C7    C99   S    
Cr3   O47   S    
Cr6   O30   S    
C5    C6    S    
Cr9   O37   S    
N14   H77   S    
C49   N5    S    
C86   O42   A    
C114  H80   S    
C102  H31   S    
C9    C13   A    
C11   C15   A    
C12   C16   A    
C77   O45   A    
C78   O50   A    
C91   C100  S    
C26   H18   S    
C46   C98   S    
C49   C69   A    
C110  H62   S    
C40   C83   S    
C51   C71   A    
C53   H1    S    
Cr6   O6    S    
N5    C105  S    
C25   C29   A    
C48   C100  S    
Cr7   O31   S    
C27   C31   A    
C101  H26   S    
Cr2   O46   S    
C28   C32   A    
Cr6   O50   S    
C8    N16   S    
Cr1   O1    S    
C17   C21   A    
Cr4   O4    S    
C35   C36   A    
C19   C23   A    
C105  H42   S    
C52   C72   A    
C103  H35   S    
C10   C30   A    
C47   O35   A    
C107  H50   S    
C68   C72   A    
C56   H4    S    
C58   C79   S    
C38   C81   S    
Cr7   O7    S    
C6    C98   S    
Cr8   O8    S    
C118  H96   S    
C1    C20   S    
C2    C19   S    
Cr8   O52   S    
Cr9   O9    S    
Cr10  O14   S    
C67   Cl3   S    
C57   C61   A    
C59   C63   A    
C33   C38   A    
C42   H22   S    
C60   C64   A    
C35   C40   A    
C50   C70   A    
C101  H28   S    
C116  H87   S    
C83   O7    A    
C66   C70   A    
C73   O1    A    
C49   C53   A    
C54   H2    S    
C51   C55   A    
C115  H83   S    
C16   H12   S    
C62   N10   S    
N2    H29   S    
C61   C65   A    
C110  H64   S    
C112  H71   S    
C7    N15   S    
Cr11  O19   S    
Cr7   O19   S    
Cr5   O17   S    
Cr2   O22   S    
C41   H21   S    
C7    C8    S    
C117  H91   S    
N11   H65   S    
C106  H46   S    
C64   C68   A    
C39   C84   S    
C74   O38   A    
C86   O14   A    
C30   C74   S    
C113  H76   S    
C120  H103  S    
C84   O8    A    
C50   N6    S    
C92   C96   S    
C47   C99   S    
C112  H70   S    
N1    C101  S    
N19   C119  S    
C108  H54   S    
C67   C71   A    
Cr8   O32   S    
N9    H57   S    
C3    O23   A    
N3    C103  S    
C57   C80   S    
C8    C95   S    
C59   C78   S    
Cr9   O33   S    
N7    H49   S    
Cr10  O38   S    
C62   C66   A    
Cr1   O41   S    
C10   C14   A    
C105  H44   S    
C91   C92   S    
C111  H68   S    
C46   O34   A    
C78   O46   A    
N17   H89   S    
C13   H9    S    
C104  H38   S    
C80   O52   A    
C109  H59   S    
N13   C113  S    
Cr12  O40   S    
C89   H5    S    
C26   C30   A    
N20   C120  S    
Cr2   O42   S    
C91   H7    S    
C93   C97   S    
C68   Cl4   S    
Cr1   O45   S    
C21   C25   A    
C107  H51   S    
C6    N14   S    
C18   C22   A    
C36   C39   A    
C65   Cl1   S    
C24   C28   A    
Cr7   O27   S    
C45   O33   A    
C32   C76   S    
C113  H74   S    
C52   N8    S    
C93   N1    S    
C95   N3    S    
C13   C17   A    
C89   C98   S    
C112  H72   S    
N15   C115  S    
C92   H8    S    
C75   O3    A    
C96   C100  S    
C11   Cl7   S    
N7    C107  S    
C79   O47   A    
C5    C97   S    
Cr5   O25   S    
C80   O48   A    
C37   C41   A    
C102  H30   S    
C108  H56   S    
C1    O25   A    
C40   C44   A    
Cr12  O20   S    
N16   H85   S    
C24   H16   S    
Cr10  O10   S    
C92   C99   S    
N2    C102  S    
C58   C62   A    
C14   H10   S    
C34   C37   A    
C41   C42   A    
C109  H58   S    
C82   O6    A    
C5    C94   S    
C69   C85   S    
C111  H66   S    
N5    H41   S    
C15   C19   A    
C7    C96   S    
C74   O2    A    
C50   C54   A    
C90   H6    S    
C106  H48   S    
C94   C98   S    
C95   C99   S    
N10   H61   S    
C104  H40   S    
C27   H19   S    
Cr6   O18   S    
C115  H82   S    
Cr12  O16   S    
C88   O44   A    
Cr9   O17   S    
Cr2   O18   S    
C90   C97   S    
C3    O27   A    
C64   N12   S    
N18   C118  S    
C84   O12   A    
Cr1   O21   S    
C36   N20   S    
C2    O26   A    
Cr4   O24   S    
C82   O10   A    
C90   C94   S    
C118  H95   S    
C103  H36   S    
C75   O39   A    
N4    H37   S    
C76   O40   A    
C10   Cl6   S    
C117  H90   S    
C53   C57   A    
C96   N4    S    
C119  H98   S    
C102  H32   S    
N18   H93   S    
C101  H27   S    
C116  H86   S    
Cr11  O11   S    
C31   C75   S    
Cr8   O20   S    
C2    O22   A    
C6    C93   S    
N8    C108  S    
C15   H11   S    
C71   C87   S    
C4    C17   S    
Cr10  O34   S    
Cr3   O19   S    
C63   N11   S    
C110  H63   S    
C37   C82   S    
C12   Cl8   S    
C21   H13   S    
N6    H45   S    
C23   H15   S    
C46   O30   A    
C35   N19   S    
C119  H100  S    
C113  H75   S    
C120  H102  S    
Cr12  O36   S    
C55   H3    S    
C65   C69   A    
Cr5   O29   S    
Cr3   O43   S    
Cr6   O26   S    
C8    C100  S    
N1    H25   S    
C22   H14   S    
C56   C60   A    
C85   O41   A    
N19   H97   S    
C22   C26   A    
C89   C90   S    
C66   Cl2   S    
C45   O29   A    
N20   H101  S    
N16   C116  S    
C77   O49   A    
N3    H33   S    
C14   C18   A    
C43   C44   A    
C25   H17   S    
Cr4   O44   S    
C79   O51   A    
Cr11  O39   S    
C38   C42   A    
C116  H88   S    
C44   H24   S    
C105  H43   S    
Cr5   O5    S    
C111  H67   S    
C29   C73   S    
Cr7   O51   S    
C3    C18   S    
Cr2   O2    S    
C115  H84   S    
Cr5   O49   S    
C114  H79   S    
C48   O36   A    
C34   N18   S    
C20   C24   A    
N10   C110  S    
C51   N7    S    
C4    O28   A    
C23   C27   A    
N13   H73   S    
Cr11  O35   S    
C16   C20   A    
N17   C117  S    
C81   O5    A    
C11   C31   A    
C87   O15   A    
C12   C32   A    
C89   C93   S    
C88   O16   A    
C72   C88   S    
C117  H92   S    
C28   H20   S    
C76   O4    A    
C63   C67   A    
C60   C77   S    
N11   C111  S    
C120  H104  S    
C39   C43   A    
C91   C95   S    
Cr12  O12   S    
C119  H99   S    
Cr9   O13   S    
Cr10  O18   S    
Cr3   O3    S    
N6    C106  S    
C47   O31   A    
C48   O32   A    
Cr1   O17   S    
C33   C34   A    
Cr4   O20   S    
C43   H23   S    
C108  H55   S    
C83   O11   A    
C81   O9    A    
N9    C109  S    
N12   H69   S    
C70   C86   S    
N4    C104  S    
C54   C58   A    
N14   C114  S    
Cr4   O48   S    
Cr11  O15   S    
C94   N2    S    
C9    C29   A    
C61   N9    S    
C1    O21   A    
C106  H47   S    
C45   C97   S    
C9    Cl5   S    
Cr3   O23   S    
C4    O24   A    
C104  H39   S    
C109  H60   S    
C73   O37   A    
C85   O13   A    
C87   O43   A    
C107  H52   S    
N8    H53   S    
C103  H34   S    
N15   H81   S    
C33   N17   S    
C52   C56   A    
C114  H78   S    
