data_mof_unit_67864.cif
_audit_creation_date              2013-03-05T15:41:51-0500
_audit_creation_method            fapswitch 2.2
_symmetry_space_group_name_H-M    P1
_symmetry_Int_Tables_number       1
_space_group_crystal_system       triclinic
_cell_length_a                    7.880677
_cell_length_b                    8.703289
_cell_length_c                    10.520816
_cell_angle_alpha                 92.617614
_cell_angle_beta                  85.84396
_cell_angle_gamma                 93.361514
_cell_volume                      717.841912943

loop_
_atom_site_label
_atom_site_type_symbol
_atom_site_description
_atom_site_fract_x
_atom_site_fract_y
_atom_site_fract_z
_atom_type_partial_charge
O1    O     O_R   0.389250 0.738570 0.508410 -0.624142
O2    O     O_R   0.610750 0.261430 0.491590 -0.623261
O3    O     O_R   0.678390 0.711620 0.486450 -0.577665
O4    O     O_R   0.321610 0.288380 0.513550 -0.561618
C1    C     C_R   0.544642 0.793341 0.495611 0.964937
C2    C     C_R   0.455552 0.206553 0.503306 0.931602
O5    O     O_R   0.355460 0.513510 0.697030 -0.559446
O6    O     O_R   0.644540 0.486490 0.302970 -0.562235
O7    O     O_R   0.644600 0.486560 0.675070 -0.651311
O8    O     O_R   0.355400 0.513440 0.324930 -0.648621
C3    C     C_R   0.501356 0.498496 0.741673 0.966458
C4    C     C_R   0.498861 0.502281 0.258406 0.997111
Zn1   Zn    Zn3+2 0.306940 0.517990 0.514670 1.068759
Zn2   Zn    Zn3+2 0.693060 0.482010 0.485330 1.059600
N1    N     N_2   0.950320 0.457950 0.465730 -0.197106
N2    N     N_2   0.049680 0.542050 0.534270 -0.205565
C5    C     C_3   0.458585 0.637571 0.963837 -0.102090
C6    C     C_3   0.542575 0.364551 0.036362 -0.109246
C7    C     C_3   0.612821 0.610896 0.039316 -0.093562
C8    C     C_3   0.388071 0.391143 0.961066 -0.081602
C9    C     C_3   0.498006 0.503730 0.123946 -0.094264
C10   C     C_3   0.502874 0.498239 0.876223 -0.101097
C11   C     C_3   0.342105 0.531052 0.050009 -0.229841
C12   C     C_3   0.659082 0.471212 0.950308 -0.247667
H1    H     H_    0.215412 0.563780 0.090651 0.211191
H2    H     H_    0.787689 0.442096 0.911010 0.233920
C13   C     C_2   0.568376 0.955675 0.502129 -0.433706
C14   C     C_2   0.433134 0.044200 0.492719 -0.318965
C15   C     C_2   0.739641 0.736044 0.079338 0.978273
O9    O     O_2   0.828260 0.805233 0.998130 -0.580312
O10   O     O_R   0.755507 0.774102 0.208308 -0.786926
H3    H     H_    0.845108 0.860372 0.221988 0.368349
C16   C     C_2   0.260848 0.265167 0.922980 0.946226
O11   O     O_2   0.179279 0.192200 0.005566 -0.552017
O12   O     O_R   0.236610 0.230706 0.794469 -0.782424
H4    H     H_    0.146357 0.144550 0.781902 0.391881
C17   C     C_2   0.407585 0.792113 0.927421 0.988968
O13   O     O_2   0.359532 0.885097 0.010903 -0.541936
O14   O     O_R   0.414220 0.829068 0.799376 -0.819300
H5    H     H_    0.375752 0.936262 0.787578 0.349312
C18   C     C_2   0.592660 0.209853 0.073187 1.007334
O15   O     O_2   0.647865 0.119020 0.990565 -0.588770
O16   O     O_R   0.575508 0.169803 0.200624 -0.775777
H6    H     H_    0.612444 0.062155 0.212695 0.368930
C19   C     C_2   0.018294 0.397231 0.347158 1.133951
O17   O     O_2   0.099473 0.281739 0.342488 -0.564913
O18   O     O_R   0.972199 0.457494 0.234866 -0.806768
H7    H     H_    0.002890 0.389504 0.156860 0.341164
C20   C     C_2   0.980492 0.596397 0.654133 1.138486
O19   O     O_2   0.006629 0.529389 0.749596 -0.631045
O20   O     O_R   0.897395 0.733921 0.664545 -0.758154
H8    H     H_    0.855050 0.761719 0.755321 0.368132
C21   C     C_2   0.743349 0.014986 0.529858 1.124426
O21   O     O_2   0.851597 0.028289 0.441683 -0.546947
O22   O     O_R   0.783433 0.061241 0.653570 -0.709071
H9    H     H_    0.682484 0.047565 0.718112 0.325169
C22   C     C_2   0.261583 0.984787 0.458438 1.108072
O23   O     O_2   0.144082 0.981206 0.540739 -0.539615
O24   O     O_R   0.237999 0.927298 0.334305 -0.730155
H10   H     H_    0.117886 0.882712 0.324192 0.364890

loop_
_geom_bond_atom_site_label_1
_geom_bond_atom_site_label_2
_geom_bond_distance
_ccdc_geom_bond_type
C7    C9    1.530196 S    
O7    Zn2   2.004086 S    
C13   C21   1.487959 S    
C15   O9    1.221268 D    
C6    C9    1.529956 S    
C18   O16   1.395795 S    
C18   O15   1.221712 D    
C3    C10   1.416594 S    
C5    C10   1.530654 S    
C5    C11   1.542829 S    
C8    C11   1.545349 S    
O6    C4    1.288070 A    
O16   H6    1.013329 S    
O3    C1    1.301173 A    
O22   H9    1.012974 S    
C21   O22   1.397396 S    
C16   O11   1.221895 D    
O24   H10   1.012742 S    
C15   O10   1.394672 S    
C5    C17   1.500060 S    
C14   C22   1.482177 S    
O5    C3    1.288849 A    
O7    C3    1.291733 A    
C1    C13   1.413443 S    
C22   O23   1.221079 D    
O2    C2    1.286160 A    
O3    Zn2   2.007910 S    
O8    C4    1.292070 A    
C6    C12   1.542964 S    
C8    C16   1.502348 S    
C10   C12   1.538842 S    
O4    C2    1.302937 A    
C16   O12   1.395750 S    
C17   O13   1.221699 D    
C8    C10   1.531057 S    
C7    C12   1.544758 S    
C6    C8    1.534036 S    
C19   O18   1.394237 S    
C9    C11   1.536490 S    
O2    Zn2   1.992471 S    
O1    C1    1.287829 A    
C22   O24   1.398234 S    
O1    Zn1   1.992471 S    
N1    C19   1.413696 S    
O14   H5    1.013359 S    
N1    N2    1.278778 D    
C7    C15   1.501318 S    
O18   H7    1.012832 S    
C19   O17   1.219993 D    
O5    Zn1   1.985845 S    
C11   H1    1.105059 S    
O20   H8    1.012015 S    
N2    C20   1.409742 S    
C6    C18   1.500262 S    
C17   O14   1.395839 S    
C20   O19   1.220174 D    
Zn1   N2    2.044969 S    
C13   C14   1.363049 D    
Zn2   N1    2.044969 S    
O6    Zn2   1.985843 S    
O12   H4    1.013740 S    
C5    C7    1.533541 S    
C21   O21   1.218703 D    
C4    C9    1.415765 S    
C2    C14   1.414006 S    
O10   H3    1.012795 S    
O4    Zn1   2.007910 S    
C12   H2    1.105522 S    
C20   O20   1.393907 S    
O8    Zn1   2.004086 S    
