data_mof_unit_51009.cif
_audit_creation_date              2012-12-11T14:46:12-0500
_audit_creation_method            fapswitch 2.2
_symmetry_space_group_name_H-M    P1
_symmetry_Int_Tables_number       1
_space_group_crystal_system       triclinic
_cell_length_a                    10.945396
_cell_length_b                    11.128171
_cell_length_c                    18.8597
_cell_angle_alpha                 91.158369
_cell_angle_beta                  89.750537
_cell_angle_gamma                 120.240007
_cell_volume                      1984.11398226

loop_
_atom_site_label
_atom_site_type_symbol
_atom_type_description
_atom_site_fract_x
_atom_site_fract_y
_atom_site_fract_z
_atom_type_partial_charge
C1    C     C_R   0.902794 0.615223 0.611305 0.543206
C2    C     C_R   0.964463 0.200053 0.712724 0.020298
C3    C     C_R   0.919276 0.126047 0.775821 -0.024630
C4    C     C_R   0.274764 0.634999 0.602474 0.533737
C5    C     C_R   0.789548 0.274560 0.733534 -0.038345
C6    C     C_R   0.802662 0.258701 0.806191 0.002903
C7    C     C_R   0.677392 0.296783 0.712959 -0.140398
C8    C     C_R   0.577868 0.287287 0.762903 -0.118277
C9    C     C_R   0.604849 0.287098 0.835086 0.170416
C10   C     C_R   0.737162 0.307510 0.854947 0.211222
C11   C     C_R   0.883377 0.258730 0.686290 -0.017098
C12   C     C_R   0.342540 0.568485 0.781590 0.119701
C13   C     C_R   0.741139 0.612812 0.704485 -0.120584
C14   C     C_R   0.713058 0.621754 0.775713 -0.143956
C15   C     C_R   0.815383 0.647132 0.827372 0.033020
C16   C     C_R   0.887938 0.291276 0.610675 0.550979
C17   C     C_R   0.945197 0.661273 0.807505 -0.138698
C18   C     C_R   0.971250 0.647544 0.736561 -0.161597
C19   C     C_R   0.871161 0.626849 0.684923 0.036800
C20   C     C_R   0.432148 0.642709 0.301554 0.085389
C21   C     C_R   0.463883 0.656107 0.229904 -0.155745
C22   C     C_R   0.412058 0.718012 0.184774 -0.007802
C23   C     C_R   0.352476 0.575259 0.708990 -0.126521
C24   C     C_R   0.327583 0.770662 0.211049 0.125087
C25   C     C_R   0.290293 0.753608 0.283009 0.103208
C26   C     C_R   0.338048 0.683568 0.327720 0.023532
C27   C     C_R   0.740367 0.209112 0.278204 0.152550
C28   C     C_R   0.865353 0.636899 0.397947 0.588248
C29   C     C_R   0.727593 0.148537 0.212576 -0.065191
C30   C     C_R   0.845308 0.178822 0.171080 -0.006536
C31   C     C_R   0.981044 0.260062 0.199727 -0.158205
C32   C     C_R   0.995360 0.298926 0.271747 -0.175975
C33   C     C_R   0.874721 0.268019 0.312443 0.005869
C34   C     C_R   0.337724 0.675573 0.673136 0.003609
C35   C     C_R   0.828064 0.773892 0.310329 0.178843
C36   C     C_R   0.830790 0.802925 0.239009 0.075201
C37   C     C_R   0.795108 0.698235 0.186017 -0.001823
C38   C     C_R   0.778026 0.569462 0.205582 0.090289
C39   C     C_R   0.805929 0.553930 0.275433 -0.160660
C40   C     C_R   0.270922 0.633948 0.396672 0.555160
C41   C     C_R   0.823093 0.651462 0.328094 0.011933
C42   C     C_R   0.805345 0.098681 0.894621 0.569660
C43   C     C_R   0.398714 0.701022 0.895416 0.549980
C44   C     C_R   0.797775 0.689474 0.898071 0.538186
C45   C     C_R   0.850379 0.166922 0.826312 -0.032097
C46   C     C_R   0.811650 0.114043 0.100209 0.502793
C47   C     C_R   0.452027 0.726717 0.110754 0.548681
C48   C     C_R   0.778621 0.728159 0.112431 0.540195
C49   C     C_R   0.887536 0.295905 0.389250 0.558615
C50   C     C_R   0.345885 0.789155 0.710980 -0.156145
C51   C     C_R   0.358679 0.795142 0.784791 -0.176544
C52   C     C_R   0.354517 0.683601 0.821009 0.034281
C53   C     C_3   0.456388 0.322625 0.920160 -0.276699
C54   C     C_3   0.459097 0.448727 0.335632 -0.292634
C55   C     C_3   0.158172 0.750120 0.122243 -0.284433
C56   C     C_R   0.952188 0.020431 0.787129 -0.099078
C57   C     C_3   0.264406 0.932122 0.346571 -0.266271
C58   C     C_3   0.504424 0.188031 0.262193 -0.355450
C59   C     C_3   0.947942 0.985319 0.384693 -0.246210
C60   C     C_3   0.037313 0.014199 0.205999 -0.268204
C61   C     C_3   0.845470 0.460354 0.112622 -0.305639
C62   C     C_3   0.185731 0.367876 0.850210 -0.282855
C63   C     C_3   0.938866 0.445568 0.935942 -0.324628
C64   C     C_R   0.057473 0.014770 0.748168 -0.102684
C65   C     C_R   0.128850 0.112566 0.696714 -0.130672
C66   C     C_R   0.083132 0.204399 0.678777 -0.084479
Cr1   Cr    Cr6+3 0.791660 0.390250 0.499930 0.982717
Cr2   Cr    Cr6+3 0.098520 0.708290 0.500540 0.989676
Cr3   Cr    Cr6+3 0.109770 0.401430 0.499480 0.969383
Cr4   Cr    Cr6+3 0.874790 0.925890 0.000070 0.969580
Cr5   Cr    Cr6+3 0.574120 0.948670 0.999300 0.998702
Cr6   Cr    Cr6+3 0.551420 0.625320 0.000920 0.957105
H1    H     H_    0.479414 0.277813 0.745223 0.106315
H2    H     H_    0.087735 0.938618 0.759854 0.133290
H3    H     H_    0.335899 0.868976 0.684166 0.137251
H4    H     H_    0.489353 0.155320 0.916436 0.268813
H5    H     H_    0.517095 0.360923 0.970562 0.133090
H6    H     H_    0.342236 0.267151 0.933204 0.134738
H7    H     H_    0.480482 0.411280 0.886532 0.229648
H8    H     H_    0.614928 0.616484 0.790237 0.140730
H9    H     H_    0.027729 0.687477 0.846426 0.113105
H10   H     H_    0.508360 0.622781 0.399734 0.273414
H11   H     H_    0.486555 0.432975 0.280946 0.146553
H12   H     H_    0.654382 0.308806 0.659293 0.169885
H13   H     H_    0.343773 0.379821 0.343857 0.151443
H14   H     H_    0.517260 0.420382 0.373530 0.147480
H15   H     H_    0.530223 0.618130 0.208953 0.132198
H16   H     H_    0.271879 0.919637 0.187971 0.232163
H17   H     H_    0.062559 0.711799 0.155314 0.139708
H18   H     H_    0.165230 0.661169 0.099170 0.159111
H19   H     H_    0.150140 0.810319 0.078116 0.166959
H20   H     H_    0.370087 0.885665 0.813407 0.144804
H21   H     H_    0.114133 0.780291 0.276961 0.247630
H22   H     H_    0.241583 0.004646 0.318122 0.082473
H23   H     H_    0.662489 0.596145 0.664846 0.127911
H24   H     H_    0.379986 0.975350 0.353175 0.175895
H25   H     H_    0.221700 0.921914 0.400672 0.186912
H26   H     H_    0.644261 0.296203 0.341391 0.278371
H27   H     H_    0.427095 0.204665 0.292111 0.107297
H28   H     H_    0.449764 0.080025 0.242698 0.157185
H29   H     H_    0.541057 0.258513 0.217004 0.173258
H30   H     H_    0.737360 0.881167 0.354771 0.269200
H31   H     H_    0.938101 0.014618 0.440117 0.176022
H32   H     H_    0.967733 0.072040 0.349894 0.169322
H33   H     H_    0.039277 0.969165 0.381879 0.149417
H34   H     H_    0.069689 0.654512 0.721634 0.114208
H35   H     H_    0.823275 0.949212 0.184206 0.260401
H36   H     H_    0.058436 0.054629 0.151444 0.168381
H37   H     H_    0.082514 0.945293 0.210898 0.127506
H38   H     H_    0.094766 0.102426 0.243996 0.124649
H39   H     H_    0.642803 0.425861 0.130029 0.262707
H40   H     H_    0.801721 0.363004 0.080486 0.167787
H41   H     H_    0.932911 0.468838 0.145855 0.154498
H42   H     H_    0.884787 0.548614 0.075991 0.158357
H43   H     H_    0.339166 0.379681 0.781493 0.236533
H44   H     H_    0.157140 0.257758 0.855386 0.153249
H45   H     H_    0.622707 0.077842 0.192605 0.154258
H46   H     H_    0.103869 0.376525 0.820746 0.142485
H47   H     H_    0.190871 0.408889 0.904608 0.166351
H48   H     H_    0.217531 0.115359 0.669506 0.101420
H49   H     H_    0.897169 0.941774 0.825225 0.174819
H50   H     H_    0.147082 0.280891 0.640638 0.161076
H51   H     H_    0.725894 0.367744 0.960345 0.252734
H52   H     H_    0.982270 0.399520 0.972687 0.145924
H53   H     H_    0.956792 0.545632 0.959149 0.127231
H54   H     H_    0.997344 0.469477 0.885385 0.132453
H55   H     H_    0.073628 0.285914 0.168179 0.116445
H56   H     H_    0.099723 0.351934 0.295718 0.131824
H57   H     H_    0.819583 0.468580 0.288305 0.138797
H58   H     H_    0.352687 0.489818 0.680619 0.118877
N1    N     N_2   0.489697 0.228220 0.883390 -0.550485
N2    N     N_2   0.788754 0.350354 0.925938 -0.495174
N3    N     N_2   0.499377 0.592577 0.347076 -0.503625
N4    N     N_2   0.280598 0.839888 0.165136 -0.500784
N5    N     N_2   0.197406 0.798617 0.309414 -0.484467
N6    N     N_2   0.620654 0.212895 0.308221 -0.501657
N7    N     N_2   0.818236 0.861107 0.363833 -0.490887
N8    N     N_2   0.886501 0.942227 0.221080 -0.503831
N9    N     N_2   0.735858 0.455944 0.156878 -0.517088
N10   N     N_2   0.318741 0.443588 0.813612 -0.514139
O1    O     O_R   0.766500 0.250040 0.579790 -0.518063
O2    O     O_R   0.413330 0.603360 0.920440 -0.503165
O3    O     O_R   0.676110 0.626250 0.926750 -0.515424
O4    O     O_R   0.798570 0.516780 0.574780 -0.530189
O5    O     O_R   0.895350 0.809870 0.080950 -0.528200
O6    O     O_R   0.872490 0.049760 0.073800 -0.526160
O7    O     O_R   0.691680 0.088070 0.079070 -0.532074
O8    O     O_R   0.451720 0.825250 0.074050 -0.464952
O9    O     O_R   0.413580 0.606370 0.080960 -0.539803
O10   O     O_R   0.676340 0.629040 0.075550 -0.527472
O11   O     O_3   0.666780 0.833290 0.000090 -0.273365
O12   O     O_R   0.218690 0.701900 0.425960 -0.479675
O13   O     O_R   0.984000 0.732950 0.581090 -0.499269
O14   O     O_R   0.218600 0.700890 0.574760 -0.518998
O15   O     O_R   0.249390 0.515350 0.579940 -0.550413
O16   O     O_R   0.982790 0.280900 0.573700 -0.504647
O17   O     O_R   0.766600 0.251130 0.419260 -0.501747
O18   O     O_R   0.798660 0.517790 0.425980 -0.541928
O19   O     O_R   0.984100 0.734040 0.420570 -0.505647
O20   O     O_R   0.249490 0.516440 0.419420 -0.534652
O21   O     O_R   0.982880 0.281910 0.424890 -0.511457
O22   O     O_3   0.999980 0.499990 0.499980 -0.302539
O23   O     O_R   0.895110 0.806860 0.920430 -0.535929
O24   O     O_R   0.872260 0.046970 0.925000 -0.524017
O25   O     O_R   0.691430 0.085060 0.918550 -0.494356
O26   O     O_R   0.451490 0.822460 0.925250 -0.512277

loop_
_geom_bond_atom_site_label_1
_geom_bond_atom_site_label_2
_ccdc_geom_bond_type
Cr6   O3    S    
Cr5   O7    S    
C21   H15   S    
C6    C45   A    
C48   O10   A    
H51   N2    S    
C27   C29   A    
C4    O14   A    
C35   C36   A    
C31   H55   S    
Cr4   O23   S    
C63   H52   S    
H39   N9    S    
C7    C8    A    
C39   C41   A    
C46   O6    A    
C27   C33   A    
Cr6   O2    S    
C12   C23   A    
C59   H33   S    
C13   H23   S    
C59   H32   S    
C36   C37   A    
C53   H7    S    
Cr3   O21   S    
C15   C44   S    
C5    C11   A    
C55   H18   S    
Cr2   O14   S    
C30   C31   A    
H4    N1    S    
C42   O24   A    
C43   C52   S    
C59   N7    S    
C33   C49   S    
H26   N6    S    
C28   C41   S    
Cr3   O20   S    
C40   O12   A    
C18   C19   A    
C3    C56   A    
C55   H19   S    
C60   H37   S    
Cr5   O11   S    
C47   O9    A    
C8    C9    A    
C57   H24   S    
C16   O16   A    
C38   N9    S    
C12   N10   S    
Cr4   O6    S    
C44   O23   A    
C14   H8    S    
C20   N3    S    
Cr2   O19   S    
C9    C10   A    
C49   O21   A    
C60   H36   S    
C42   O25   A    
Cr6   O11   S    
Cr5   O8    S    
C13   C14   A    
C49   O17   A    
C35   C41   A    
Cr1   O4    S    
C28   O18   A    
C54   H11   S    
C12   C52   A    
C30   C46   S    
C50   C51   A    
C10   N2    S    
C9    N1    S    
C38   C39   A    
C4    C34   S    
C1    C19   S    
Cr3   O16   S    
C34   C50   A    
C13   C19   A    
C51   C52   A    
C58   H28   S    
C24   C25   A    
C2    C11   A    
Cr2   O13   S    
C5    C7    A    
C61   N9    S    
C39   H57   S    
C58   N6    S    
C25   C26   A    
C54   N3    S    
C29   H45   S    
Cr5   O26   S    
C28   O19   A    
C23   H58   S    
C53   H6    S    
C42   C45   S    
C58   H27   S    
C53   H5    S    
C18   H34   S    
C62   H44   S    
C37   C38   A    
Cr2   O12   S    
C51   H20   S    
C11   C16   S    
C46   O7    A    
C23   C34   A    
C57   H25   S    
C48   O5    A    
C66   H50   S    
C17   C18   A    
Cr1   O17   S    
C58   H29   S    
Cr3   O15   S    
C63   N2    S    
Cr3   O22   S    
C37   C48   S    
C1    O13   A    
C62   H47   S    
C63   H53   S    
Cr4   O5    S    
C53   N1    S    
C65   C66   A    
Cr6   O10   S    
C57   H22   S    
C61   H41   S    
C22   C24   A    
C27   N6    S    
Cr1   O1    S    
C54   H14   S    
C43   O26   A    
C24   N4    S    
C15   C17   A    
C47   O8    A    
C40   O20   A    
C31   C32   A    
Cr4   O11   S    
C2    C66   A    
Cr4   O24   S    
C6    C10   A    
C54   H13   S    
H21   N5    S    
Cr2   O22   S    
C55   N4    S    
C59   H31   S    
C32   C33   A    
C32   H56   S    
H35   N8    S    
C16   O1    A    
H16   N4    S    
C55   H17   S    
C1    O4    A    
C50   H3    S    
C56   H49   S    
C61   H40   S    
Cr1   O22   S    
C26   C40   S    
C56   C64   A    
C5    C6    A    
C20   C26   A    
H10   N3    S    
C44   O3    A    
C64   C65   A    
C8    H1    S    
C65   H48   S    
C3    C45   A    
C7    H12   S    
Cr1   O18   S    
C17   H9    S    
C25   N5    S    
C22   C47   S    
C62   H46   S    
C63   H54   S    
C60   H38   S    
C29   C30   A    
C4    O15   A    
C20   C21   A    
Cr6   O9    S    
Cr5   O25   S    
C61   H42   S    
C64   H2    S    
C14   C15   A    
C57   N5    S    
C43   O2    A    
C2    C3    A    
C62   N10   S    
C21   C22   A    
H43   N10   S    
C36   N8    S    
H30   N7    S    
C35   N7    S    
C60   N8    S    
