data_mof_unit_47416.cif
_audit_creation_date              2012-12-10T18:52:17-0500
_audit_creation_method            fapswitch 2.2
_symmetry_space_group_name_H-M    P1
_symmetry_Int_Tables_number       1
_space_group_crystal_system       triclinic
_cell_length_a                    15.754091
_cell_length_b                    10.720635
_cell_length_c                    9.846971
_cell_angle_alpha                 90.114458
_cell_angle_beta                  90.119056
_cell_angle_gamma                 90.251091
_cell_volume                      1663.07002618

loop_
_atom_site_label
_atom_site_type_symbol
_atom_type_description
_atom_site_fract_x
_atom_site_fract_y
_atom_site_fract_z
_atom_type_partial_charge
C1    C     C_R   0.499866 0.259883 0.499865 0.868235
C2    C     C_R   0.448119 0.420553 0.071675 0.190503
C3    C     C_R   0.337962 0.499851 0.499860 0.900555
C4    C     C_R   0.662038 0.500149 0.500140 0.900555
C5    C     C_3   0.972377 0.399291 0.566127 -0.025153
C6    C     C_3   0.027623 0.600707 0.433864 -0.025153
C7    C     C_3   0.029068 0.395792 0.437889 -0.341209
C8    C     C_3   0.970933 0.604207 0.562102 -0.341207
C9    C     C_1   0.249279 0.500101 0.499721 -0.123968
C10   C     C_1   0.750721 0.499898 0.500278 -0.123969
C11   C     C_3   0.027648 0.503371 0.628102 -0.017303
C12   C     C_R   0.500134 0.740117 0.500135 0.868235
C13   C     C_3   0.972352 0.496628 0.371889 -0.017302
C14   C     C_3   0.083432 0.501190 0.500639 0.151817
C15   C     C_3   0.916568 0.498808 0.499352 0.151818
C16   C     C_1   0.174168 0.500537 0.500043 0.088839
C17   C     C_1   0.825832 0.499462 0.499952 0.088839
C18   C     C_R   0.512509 0.063722 0.377728 -0.179576
C19   C     C_R   0.487490 0.936278 0.622271 -0.179578
C20   C     C_2   0.943663 0.285037 0.640748 0.388798
C21   C     C_2   0.056340 0.714960 0.359242 0.388796
C22   C     C_2   0.943697 0.492520 0.226718 0.378818
C23   C     C_R   0.512753 0.935958 0.377896 -0.182034
C24   C     C_2   0.056303 0.507479 0.773273 0.378817
C25   C     C_R   0.487246 0.064042 0.622104 -0.182033
C26   C     C_R   0.500198 0.872577 0.500160 -0.009780
C27   C     C_R   0.499801 0.127423 0.499840 -0.009781
C28   C     C_R   0.551696 0.579235 0.072558 -0.146031
C29   C     C_R   0.448302 0.420767 0.927442 -0.146035
C30   C     C_R   0.551878 0.579450 0.928324 0.190508
H1    H     H_    0.053744 0.310758 0.387229 0.162196
H2    H     H_    0.009518 0.777797 0.316895 0.069252
H3    H     H_    0.990550 0.491270 0.146189 0.070753
H4    H     H_    0.009449 0.508729 0.853802 0.070754
H5    H     H_    0.591708 0.753892 0.886182 0.156935
H6    H     H_    0.668938 0.645036 0.886557 0.182427
H7    H     H_    0.331053 0.355004 0.113457 0.182439
H8    H     H_    0.408267 0.246120 0.113800 0.156935
H9    H     H_    0.946257 0.689241 0.612761 0.162197
H10   H     H_    0.522710 0.112159 0.282629 0.160774
H11   H     H_    0.477289 0.887841 0.717370 0.160769
H12   H     H_    0.523119 0.887269 0.282859 0.156220
H13   H     H_    0.476880 0.112731 0.717141 0.156220
H14   H     H_    0.592915 0.642425 0.127952 0.143306
H15   H     H_    0.407082 0.357580 0.872048 0.143308
H16   H     H_    0.990485 0.222201 0.683093 0.069251
N1    N     N_R   0.499980 0.499970 0.857200 -0.082035
N2    N     N_R   0.500020 0.500030 0.142800 -0.082034
N3    N     N_3   0.606503 0.662898 0.856403 -0.396969
N4    N     N_3   0.393488 0.337114 0.143595 -0.396977
O1    O     O_R   0.499990 0.316750 0.614620 -0.630978
O2    O     O_2   0.131747 0.737930 0.345606 -0.554624
O3    O     O_2   0.868302 0.490644 0.198250 -0.561284
O4    O     O_2   0.131698 0.509355 0.801742 -0.561287
O5    O     O_R   0.500010 0.683250 0.385380 -0.630978
O6    O     O_R   0.500000 0.316780 0.385290 -0.609773
O7    O     O_R   0.500000 0.683220 0.614710 -0.609775
O8    O     O_R   0.376780 0.499970 0.614640 -0.604927
O9    O     O_R   0.623220 0.500030 0.385360 -0.604926
O10   O     O_R   0.376780 0.500000 0.385310 -0.592328
O11   O     O_R   0.623220 0.500000 0.614690 -0.592324
O12   O     O_2   0.868256 0.262065 0.654384 -0.554622
Zn1   Zn    Zn3+2 0.500000 0.499980 0.653120 0.988544
Zn2   Zn    Zn3+2 0.500000 0.500020 0.346880 0.988543

loop_
_geom_bond_atom_site_label_1
_geom_bond_atom_site_label_2
_ccdc_geom_bond_type
C30   N3    S    
H5    N3    S    
O6    Zn2   S    
C5    C11   S    
C29   H15   S    
C3    C9    S    
C8    H9    S    
C6    C14   S    
C30   N1    A    
O10   Zn2   S    
O5    Zn2   S    
C25   H13   S    
C28   C30   A    
C7    C14   S    
O1    Zn1   S    
C5    C20   S    
C3    O10   A    
C6    C13   S    
N1    Zn1   S    
H7    N4    S    
C1    O1    A    
O9    Zn2   S    
C23   H12   S    
C29   N1    A    
C8    C11   S    
H8    N4    S    
C12   O7    A    
C4    O9    A    
C21   H2    S    
C1    O6    A    
C22   H3    S    
C13   C22   S    
O7    Zn1   S    
C22   O3    D    
C13   C15   S    
C20   O12   D    
C25   C27   A    
C19   C25   A    
C11   C14   S    
C14   C16   S    
C5    C15   S    
C12   O5    A    
C7    H1    S    
H6    N3    S    
C10   C17   T    
C24   O4    D    
C18   C23   A    
C3    O8    A    
C11   C24   S    
C7    C13   S    
C2    C29   A    
C5    C7    S    
C23   C26   A    
C12   C26   S    
O8    Zn1   S    
C1    C27   S    
C19   C26   A    
C18   H10   S    
C28   N2    A    
C6    C8    S    
C8    C15   S    
C2    N4    S    
N2    Zn2   S    
C2    N2    A    
C15   C17   S    
C6    C21   S    
C4    C10   S    
C4    O11   A    
C28   H14   S    
C21   O2    D    
C20   H16   S    
C18   C27   A    
C19   H11   S    
C9    C16   T    
O11   Zn1   S    
C24   H4    S    
