data_mof_unit_19346.cif
_audit_creation_date              2013-03-05T15:40:06-0500
_audit_creation_method            fapswitch 2.2
_symmetry_space_group_name_H-M    P1
_symmetry_Int_Tables_number       1
_space_group_crystal_system       triclinic
_cell_length_a                    28.152735
_cell_length_b                    18.502279
_cell_length_c                    17.071677
_cell_angle_alpha                 89.916724
_cell_angle_beta                  61.131576
_cell_angle_gamma                 90.185063
_cell_volume                      7787.31529258

loop_
_atom_site_label
_atom_site_type_symbol
_atom_site_description
_atom_site_fract_x
_atom_site_fract_y
_atom_site_fract_z
_atom_type_partial_charge
O1    O     O_R   0.746490 0.236330 0.638080 -0.646499
O2    O     O_R   0.253510 0.763670 0.361920 -0.644085
O3    O     O_R   0.253510 0.236330 0.361920 -0.664030
O4    O     O_R   0.746490 0.763670 0.638080 -0.648764
O5    O     O_R   0.246490 0.736330 0.638080 -0.667061
O6    O     O_R   0.753510 0.263670 0.361920 -0.646807
O7    O     O_R   0.753510 0.736330 0.361920 -0.648081
O8    O     O_R   0.246490 0.263670 0.638080 -0.667370
O9    O     O_R   0.674170 0.186160 0.516270 -0.640178
O10   O     O_R   0.325830 0.813840 0.483730 -0.643529
O11   O     O_R   0.325830 0.186160 0.483730 -0.639538
O12   O     O_R   0.674170 0.813840 0.516270 -0.641007
O13   O     O_R   0.174170 0.686160 0.516270 -0.642989
O14   O     O_R   0.825830 0.313840 0.483730 -0.639463
O15   O     O_R   0.825830 0.686160 0.483730 -0.643784
O16   O     O_R   0.174170 0.313840 0.516270 -0.629927
O17   O     O_R   0.739960 0.127620 0.525000 -0.623093
O18   O     O_R   0.260040 0.872380 0.475000 -0.612190
O19   O     O_R   0.260040 0.127620 0.475000 -0.618006
O20   O     O_R   0.739960 0.872380 0.525000 -0.623507
O21   O     O_R   0.239960 0.627620 0.525000 -0.618562
O22   O     O_R   0.760040 0.372380 0.475000 -0.622885
O23   O     O_R   0.760040 0.627620 0.475000 -0.624601
O24   O     O_R   0.239960 0.372380 0.525000 -0.629192
O25   O     O_R   0.680700 0.294870 0.629350 -0.561531
O26   O     O_R   0.319300 0.705130 0.370650 -0.553766
O27   O     O_R   0.319300 0.294870 0.370650 -0.554960
O28   O     O_R   0.680700 0.705130 0.629350 -0.561821
O29   O     O_R   0.180700 0.794870 0.629350 -0.565087
O30   O     O_R   0.819300 0.205130 0.370650 -0.560921
O31   O     O_R   0.819300 0.794870 0.370650 -0.560344
O32   O     O_R   0.180700 0.205130 0.629350 -0.549944
C1    C     C_R   0.701222 0.267456 0.676099 0.910462
C2    C     C_R   0.298383 0.731739 0.324050 0.926498
C3    C     C_R   0.298852 0.267324 0.323894 0.911997
C4    C     C_R   0.701084 0.732819 0.676140 0.913098
C5    C     C_R   0.203010 0.770939 0.674853 0.890744
C6    C     C_R   0.798777 0.232539 0.323902 0.910365
C7    C     C_R   0.798915 0.767175 0.323862 0.915133
C8    C     C_R   0.201170 0.232636 0.676091 0.917515
C9    C     C_R   0.691199 0.129399 0.535481 0.887014
C10   C     C_R   0.302815 0.871674 0.485558 0.911905
C11   C     C_R   0.302846 0.128278 0.485491 0.910092
C12   C     C_R   0.691201 0.870551 0.535417 0.889117
C13   C     C_R   0.191625 0.628993 0.532624 0.884270
C14   C     C_R   0.808905 0.370607 0.464349 0.887915
C15   C     C_R   0.808550 0.629411 0.465273 0.893724
C16   C     C_R   0.196824 0.372072 0.516764 0.899878
Zn1   Zn    Zn3+2 0.792340 0.208750 0.507670 1.021593
Zn2   Zn    Zn3+2 0.207660 0.791250 0.492330 1.028310
Zn3   Zn    Zn3+2 0.207660 0.208750 0.492330 1.035533
Zn4   Zn    Zn3+2 0.792340 0.791250 0.507670 1.017571
Zn5   Zn    Zn3+2 0.292340 0.708750 0.507670 1.014421
Zn6   Zn    Zn3+2 0.707660 0.291250 0.492330 1.020630
Zn7   Zn    Zn3+2 0.707660 0.708750 0.492330 1.020440
Zn8   Zn    Zn3+2 0.292340 0.291250 0.507670 1.016061
C17   C     C_R   0.521640 0.999686 0.591697 0.021323
C18   C     C_R   0.426975 0.999936 0.573568 0.025194
C19   C     C_R   0.059476 0.502273 0.469222 0.022926
C20   C     C_R   0.970927 0.501727 0.435444 0.024256
C21   C     C_R   0.495703 0.066005 0.594861 0.042580
C22   C     C_R   0.447373 0.933751 0.586447 0.054162
C23   C     C_R   0.447842 0.065986 0.586079 0.054473
C24   C     C_R   0.495484 0.933434 0.594476 0.042865
C25   C     C_R   0.030329 0.566448 0.478663 0.046224
C26   C     C_R   0.999465 0.436952 0.426535 0.041687
C27   C     C_R   0.990314 0.567488 0.451465 0.044353
C28   C     C_R   0.047023 0.438923 0.435853 0.053123
C29   C     C_R   0.600769 0.933724 0.580458 0.058081
C30   C     C_R   0.363198 0.065666 0.538641 0.070236
C31   C     C_R   0.362698 0.934455 0.539380 0.067843
C32   C     C_R   0.600799 0.065604 0.581149 0.056769
C33   C     C_R   0.132796 0.439093 0.478935 0.063783
C34   C     C_R   0.896475 0.566913 0.431549 0.060694
C35   C     C_R   0.897928 0.435070 0.426947 0.059143
C36   C     C_R   0.113735 0.564136 0.527031 0.072137
C37   C     C_R   0.656465 0.934801 0.559785 -0.117944
C38   C     C_R   0.326553 0.064267 0.502020 -0.107377
C39   C     C_R   0.326364 0.935794 0.502312 -0.101541
C40   C     C_R   0.656482 0.064844 0.560064 -0.118106
C41   C     C_R   0.170605 0.437504 0.512067 -0.107377
C42   C     C_R   0.843018 0.565413 0.442264 -0.117867
C43   C     C_R   0.843592 0.435278 0.440807 -0.119276
C44   C     C_R   0.160195 0.563911 0.540205 -0.127303
C45   C     C_R   0.682365 0.999911 0.552200 -0.277628
C46   C     C_R   0.311051 0.000009 0.481475 -0.267173
C47   C     C_R   0.183990 0.499664 0.541269 -0.282241
C48   C     C_R   0.818437 0.500162 0.444316 -0.280185
H1    H     H_    0.724870 0.000060 0.534603 0.204490
H2    H     H_    0.284851 0.999978 0.451208 0.195786
H3    H     H_    0.215900 0.498995 0.559632 0.197467
H4    H     H_    0.777205 0.499868 0.455108 0.203912
C49   C     C_R   0.574302 0.999655 0.584886 0.081448
C50   C     C_R   0.384890 0.000033 0.549229 0.072703
C51   C     C_R   0.101662 0.501665 0.492388 0.072746
C52   C     C_R   0.921969 0.501160 0.430463 0.076380
C53   C     C_R   0.125845 0.381468 0.431196 -0.172746
C54   C     C_R   0.925831 0.631406 0.421906 -0.140466
C55   C     C_R   0.929375 0.371949 0.409496 -0.146466
C56   C     C_R   0.079563 0.624427 0.545945 -0.162996
C57   C     C_R   0.570085 0.869664 0.598433 -0.143987
C58   C     C_R   0.377375 0.128910 0.569174 -0.171768
C59   C     C_R   0.376038 0.871246 0.571090 -0.170090
C60   C     C_R   0.570188 0.129445 0.600212 -0.144845
C61   C     C_R   0.082853 0.380315 0.412774 -0.209017
C62   C     C_R   0.969887 0.632209 0.437282 -0.222777
C63   C     C_R   0.978841 0.372729 0.409800 -0.202591
C64   C     C_R   0.039788 0.626385 0.519941 -0.220212
C65   C     C_R   0.519428 0.869170 0.602934 -0.196438
C66   C     C_R   0.419710 0.129547 0.589246 -0.215749
C67   C     C_R   0.418445 0.870382 0.590944 -0.214854
C68   C     C_R   0.519590 0.130039 0.604594 -0.196115
H5    H     H_    0.153890 0.336984 0.405312 0.171395
H6    H     H_    0.915881 0.682193 0.402490 0.207572
H7    H     H_    0.917272 0.321217 0.393276 0.205278
H8    H     H_    0.081882 0.670104 0.583338 0.180860
H9    H     H_    0.583907 0.818708 0.610492 0.208116
H10   H     H_    0.356047 0.179232 0.580797 0.183057
H11   H     H_    0.353907 0.821227 0.583803 0.183498
H12   H     H_    0.584098 0.180099 0.613173 0.207415
H13   H     H_    0.079573 0.333743 0.377665 0.141519
H14   H     H_    0.988874 0.683736 0.434671 0.153660
H15   H     H_    0.998975 0.321444 0.400430 0.152720
H16   H     H_    0.014890 0.674263 0.536558 0.150107
H17   H     H_    0.500490 0.816938 0.611796 0.151090
H18   H     H_    0.428997 0.181101 0.607939 0.141585
H19   H     H_    0.427045 0.818932 0.610850 0.141629
H20   H     H_    0.500595 0.182124 0.614670 0.151212
H21   H     H_    0.649509 0.249768 0.081687 0.151512
H22   H     H_    0.345924 0.740943 0.920975 0.146663
H23   H     H_    0.350583 0.247942 0.918864 0.147469
H24   H     H_    0.649505 0.751042 0.081493 0.152436
H25   H     H_    0.144870 0.740358 0.085960 0.145400
H26   H     H_    0.850541 0.250327 0.918268 0.150675
H27   H     H_    0.850513 0.748915 0.918498 0.140122
H28   H     H_    0.149581 0.251771 0.080969 0.146595
C69   C     C_R   0.721079 0.266118 0.952969 0.118452
C70   C     C_R   0.274727 0.725241 0.050365 0.121343
C71   C     C_R   0.279030 0.265471 0.047016 0.123535
C72   C     C_R   0.720979 0.734556 0.952953 0.120228
C73   C     C_R   0.216234 0.755453 0.956645 0.121663
C74   C     C_R   0.778970 0.233976 0.046985 0.118393
C75   C     C_R   0.779037 0.765395 0.047037 0.121870
C76   C     C_R   0.221132 0.234241 0.952820 0.123207
C77   C     C_R   0.778143 0.265278 0.908341 -0.174447
C78   C     C_R   0.217592 0.725722 0.095376 -0.173548
C79   C     C_R   0.221978 0.265591 0.091320 -0.177398
C80   C     C_R   0.778036 0.734919 0.908425 -0.175655
C81   C     C_R   0.273302 0.754357 0.911742 -0.173433
C82   C     C_R   0.721906 0.234819 0.091613 -0.173520
C83   C     C_R   0.721981 0.765028 0.091564 -0.174000
C84   C     C_R   0.278185 0.234116 0.908510 -0.175987
H29   H     H_    0.800943 0.278236 0.837793 0.139964
H30   H     H_    0.195041 0.713684 0.166198 0.137326
H31   H     H_    0.199239 0.278981 0.161639 0.131043
H32   H     H_    0.800737 0.722054 0.837957 0.136327
H33   H     H_    0.296003 0.767143 0.841105 0.136507
H34   H     H_    0.699105 0.221859 0.162159 0.140541
H35   H     H_    0.699281 0.777891 0.162032 0.140448
H36   H     H_    0.300920 0.220734 0.838187 0.134056
C85   C     C_R   0.806635 0.249449 0.954664 -0.166239
C86   C     C_R   0.188760 0.740689 0.049178 -0.170042
C87   C     C_R   0.193475 0.250208 0.044885 -0.169166
C88   C     C_R   0.806616 0.750101 0.954794 -0.171453
C89   C     C_R   0.302032 0.739585 0.957806 -0.169617
C90   C     C_R   0.693415 0.250648 0.045291 -0.164694
C91   C     C_R   0.693402 0.749850 0.045195 -0.165056
C92   C     C_R   0.306689 0.249499 0.954948 -0.168433
C93   C     C_R   0.644356 0.328005 0.944148 -0.230589
C94   C     C_R   0.353189 0.667413 0.057834 -0.235547
C95   C     C_R   0.356123 0.327029 0.055357 -0.231425
C96   C     C_R   0.643903 0.672957 0.944538 -0.227880
C97   C     C_R   0.141433 0.822842 0.946755 -0.226680
C98   C     C_R   0.855682 0.172060 0.055812 -0.230313
C99   C     C_R   0.856083 0.827054 0.055484 -0.241235
C100  C     C_R   0.144013 0.172740 0.944506 -0.229193
C101  C     C_R   0.614837 0.344647 0.899108 -0.176834
C102  C     C_R   0.384027 0.653681 0.101360 -0.165691
C103  C     C_R   0.385621 0.343780 0.100417 -0.177222
C104  C     C_R   0.614340 0.656306 0.899553 -0.176523
C105  C     C_R   0.120051 0.853518 0.894534 -0.175535
C106  C     C_R   0.885177 0.155370 0.100879 -0.176877
C107  C     C_R   0.885639 0.843725 0.100480 -0.182414
C108  C     C_R   0.114480 0.156059 0.899485 -0.173910
C109  C     C_R   0.628270 0.313408 0.817212 0.266022
C110  C     C_R   0.370800 0.685628 0.182639 0.257015
C111  C     C_R   0.372110 0.312519 0.182394 0.257763
C112  C     C_R   0.627734 0.687822 0.817715 0.264611
C113  C     C_R   0.143763 0.841308 0.803857 0.238006
C114  C     C_R   0.871725 0.186562 0.182805 0.264890
C115  C     C_R   0.872248 0.812210 0.182318 0.264030
C116  C     C_R   0.127986 0.187311 0.817515 0.265492
C117  C     C_R   0.677746 0.278687 0.771861 -0.162401
C118  C     C_R   0.320728 0.718661 0.228931 -0.174084
C119  C     C_R   0.322338 0.278213 0.228142 -0.158586
C120  C     C_R   0.677491 0.722174 0.771982 -0.161261
C121  C     C_R   0.182404 0.788068 0.767768 -0.159896
C122  C     C_R   0.822262 0.221313 0.228138 -0.162537
C123  C     C_R   0.822511 0.777809 0.228020 -0.160403
C124  C     C_R   0.177737 0.221656 0.771796 -0.155340
C125  C     C_R   0.707811 0.261416 0.816247 -0.234793
C126  C     C_R   0.289232 0.733015 0.186061 -0.230774
C127  C     C_R   0.292050 0.260968 0.184015 -0.243489
C128  C     C_R   0.707749 0.739480 0.816143 -0.235040
C129  C     C_R   0.204730 0.756479 0.818391 -0.246935
C130  C     C_R   0.792220 0.238633 0.183727 -0.235702
C131  C     C_R   0.792271 0.760465 0.183842 -0.236711
C132  C     C_R   0.208061 0.238842 0.815880 -0.242811
H37   H     H_    0.745087 0.231013 0.781968 0.170209
H38   H     H_    0.251363 0.762063 0.221011 0.169564
H39   H     H_    0.254413 0.230904 0.218699 0.167815
H40   H     H_    0.745309 0.769707 0.781519 0.169470
H41   H     H_    0.237487 0.717895 0.787725 0.167379
H42   H     H_    0.754952 0.269053 0.217998 0.170097
H43   H     H_    0.754726 0.730203 0.218449 0.169854
H44   H     H_    0.245696 0.268911 0.781197 0.166538
C133  C     C_R   0.690287 0.284052 0.904346 0.080489
C134  C     C_R   0.306264 0.709427 0.098451 0.080250
C135  C     C_R   0.309866 0.283252 0.095578 0.081717
C136  C     C_R   0.690061 0.716934 0.904454 0.079096
C137  C     C_R   0.186341 0.776884 0.907569 0.084517
C138  C     C_R   0.809755 0.216022 0.095614 0.080355
C139  C     C_R   0.809949 0.783033 0.095543 0.081695
C140  C     C_R   0.190281 0.216492 0.904276 0.081905
O33   O     O_R   0.062020 0.072840 0.007170 -0.637089
O34   O     O_R   0.937980 0.927160 0.992830 -0.639694
O35   O     O_R   0.937980 0.072840 0.992830 -0.633683
O36   O     O_R   0.062020 0.927160 0.007170 -0.635865
O37   O     O_R   0.562020 0.572840 0.007170 -0.631509
O38   O     O_R   0.437980 0.427160 0.992830 -0.634823
O39   O     O_R   0.437980 0.572840 0.992830 -0.637058
O40   O     O_R   0.562020 0.427160 0.007170 -0.633420
O41   O     O_R   0.947860 0.073950 0.109290 -0.560954
O42   O     O_R   0.052140 0.926050 0.890710 -0.560345
O43   O     O_R   0.052140 0.073950 0.890710 -0.552074
O44   O     O_R   0.947860 0.926050 0.109290 -0.558473
O45   O     O_R   0.447860 0.573950 0.109290 -0.558164
O46   O     O_R   0.552140 0.426050 0.890710 -0.561007
O47   O     O_R   0.552140 0.573950 0.890710 -0.561738
O48   O     O_R   0.447860 0.426050 0.109290 -0.562430
C141  C     C_R   0.072993 0.101006 0.934833 0.923706
C142  C     C_R   0.927044 0.898934 0.065154 0.911227
C143  C     C_R   0.926784 0.100696 0.065365 0.915519
C144  C     C_R   0.075481 0.902729 0.932722 0.923897
C145  C     C_R   0.572944 0.601082 0.934859 0.920479
C146  C     C_R   0.427051 0.398935 0.065125 0.914516
C147  C     C_R   0.426557 0.600398 0.065469 0.922372
C148  C     C_R   0.573219 0.399306 0.934631 0.916138
Zn9   Zn    Zn3+2 0.505960 0.500000 0.080520 1.086650
Zn10  Zn    Zn3+2 0.494040 0.500000 0.919480 1.078632
Zn11  Zn    Zn3+2 0.005960 1.000000 0.080520 1.080883
Zn12  Zn    Zn3+2 0.994040 0.000000 0.919480 1.084150
H45   H     H_    0.632716 0.351332 0.009071 0.172402
H46   H     H_    0.364647 0.643223 0.993419 0.170600
H47   H     H_    0.367945 0.350299 0.990194 0.171148
H48   H     H_    0.632201 0.649464 0.009547 0.172801
H49   H     H_    0.125022 0.838031 0.016254 0.170328
H50   H     H_    0.867334 0.148757 0.990874 0.172479
H51   H     H_    0.867775 0.850556 0.990483 0.170432
H52   H     H_    0.132200 0.149449 0.009655 0.171821
N1    N     N_R   0.591426 0.315447 0.781229 0.211547
O49   O     O_R   0.592220 0.369467 0.731605 -0.357260
O50   O     O_R   0.561637 0.259047 0.789451 -0.414643
N2    N     N_R   0.408561 0.685979 0.216817 0.215220
O51   O     O_R   0.408317 0.634056 0.268601 -0.351443
O52   O     O_R   0.446552 0.734906 0.189024 -0.387761
N3    N     N_R   0.409108 0.314253 0.218098 0.215927
O53   O     O_R   0.439138 0.258206 0.208705 -0.384498
O54   O     O_R   0.408739 0.367913 0.267681 -0.353183
N4    N     N_R   0.590663 0.686384 0.782134 0.210844
O55   O     O_R   0.562252 0.743594 0.788770 -0.412754
O56   O     O_R   0.590729 0.632602 0.732950 -0.357789
N5    N     N_R   0.133343 0.888944 0.746977 0.228153
O57   O     O_R   0.162232 0.947423 0.715274 -0.383401
O58   O     O_R   0.094986 0.874125 0.727465 -0.366437
N6    N     N_R   0.908531 0.184405 0.218857 0.211786
O59   O     O_R   0.907651 0.130373 0.268533 -0.356441
O60   O     O_R   0.938606 0.240601 0.210240 -0.414059
N7    N     N_R   0.909282 0.813739 0.217976 0.210221
O61   O     O_R   0.937390 0.756372 0.212037 -0.417475
O62   O     O_R   0.909187 0.867623 0.267054 -0.356130
N8    N     N_R   0.091029 0.185447 0.781727 0.212457
O63   O     O_R   0.061083 0.241517 0.790793 -0.392218
O64   O     O_R   0.091471 0.131703 0.732192 -0.328881

loop_
_geom_bond_atom_site_label_1
_geom_bond_atom_site_label_2
_geom_bond_distance
_ccdc_geom_bond_type
C18   C22   1.415399 A    
C93   C133  1.398243 A    
O4    C4    1.254683 A    
C131  C139  1.402421 A    
C119  C127  1.419719 A    
O5    C5    1.251690 A    
C122  C130  1.418820 A    
H27   C88   1.082814 S    
C121  C129  1.417381 A    
C98   C138  1.398254 A    
H24   C91   1.082820 S    
C63   H15   1.078718 S    
O31   Zn4   2.082573 S    
C97   C137  1.400334 A    
H25   C86   1.082508 S    
O16   C16   1.252386 A    
C9    C40   1.467284 S    
C31   C39   1.439615 A    
C24   C65   1.409866 A    
O1    C1    1.258645 A    
O22   Zn6   2.019531 S    
C31   C50   1.409937 A    
C10   C39   1.451817 S    
C11   C38   1.453866 S    
C33   C53   1.412247 A    
C78   C86   1.405879 A    
O30   C6    1.293789 A    
N8    O63   1.300424 A    
O11   Zn8   2.116308 S    
H21   C90   1.082798 S    
C128  C136  1.402428 A    
C70   C89   1.408111 A    
O18   Zn2   2.019531 S    
O7    C7    1.254629 A    
O5    Zn5   2.028728 S    
C12   C37   1.469252 S    
C30   C50   1.411037 A    
C126  H38   1.082513 S    
C29   C49   1.414475 A    
O18   C10   1.300987 A    
C36   C51   1.412376 A    
C55   H7    1.078720 S    
N1    O49   1.302414 A    
C42   C48   1.381574 A    
C84   H36   1.082662 S    
O34   C142  1.233711 A    
O14   Zn1   2.109610 S    
C30   C38   1.441692 A    
C26   C28   1.422873 A    
C101  C109  1.387436 A    
O33   C141  1.233185 A    
C82   C90   1.402784 A    
C81   H33   1.082875 S    
O47   C145  1.260385 A    
C117  C125  1.418827 A    
C16   C41   1.442086 S    
O45   C147  1.262085 A    
C59   C67   1.389704 A    
C15   C42   1.462448 S    
O44   C142  1.260322 A    
O8    C8    1.254342 A    
C21   C23   1.425858 A    
O10   Zn5   2.109610 S    
C57   H9    1.077883 S    
O43   C141  1.260493 A    
C112  C120  1.382951 A    
C22   C24   1.425738 A    
C6    C122  1.452985 S    
O2    Zn2   2.028728 S    
C102  C110  1.385029 A    
C84   C92   1.402481 A    
C29   C37   1.431429 A    
C72   C136  1.498111 S    
O46   Zn10  2.007347 S    
C82   H34   1.082441 S    
C22   C67   1.406084 A    
C48   H4    1.083903 S    
C20   C27   1.412084 A    
O19   C11   1.301098 A    
N2    O51   1.302355 A    
C25   C27   1.410746 A    
O36   C144  1.225135 A    
N7    O61   1.300519 A    
C108  C116  1.385494 A    
O11   C11   1.242238 A    
C107  C142  1.441396 S    
O15   C15   1.258595 A    
C120  C128  1.419693 A    
C79   H31   1.082643 S    
C131  H43   1.082591 S    
C26   C63   1.409786 A    
C25   C64   1.406711 A    
C109  N1    1.438789 S    
C69   C133  1.498819 S    
C96   C136  1.397089 A    
C105  C144  1.430984 S    
C3    C119  1.450650 S    
O36   Zn11  1.996380 S    
O37   C145  1.233708 A    
C104  C145  1.441426 S    
C96   C104  1.411963 A    
C72   C91   1.408820 A    
C75   C83   1.406756 A    
C43   C48   1.382407 A    
C124  C132  1.419731 A    
C57   C65   1.390652 A    
C37   C45   1.379275 A    
O48   Zn9   1.999154 S    
C132  H44   1.082663 S    
C17   C49   1.430060 A    
C14   C43   1.469340 S    
O26   C2    1.294266 A    
O47   Zn10  1.999153 S    
O48   C146  1.260582 A    
O8    Zn8   2.024999 S    
C113  C121  1.376543 A    
C72   C80   1.406778 A    
C130  H42   1.082569 S    
C65   H17   1.076780 S    
C19   C51   1.421511 A    
O43   Zn12  1.999153 S    
C74   C85   1.408742 A    
C94   C134  1.397858 A    
C33   C41   1.426639 A    
C69   C90   1.408727 A    
O20   C12   1.296562 A    
O28   Zn7   2.082573 S    
O41   C143  1.260834 A    
C35   C52   1.411052 A    
O4    Zn4   2.024999 S    
O21   C13   1.303245 A    
O29   Zn2   2.082950 S    
O7    Zn7   2.024999 S    
C125  H37   1.082570 S    
C59   H11   1.075593 S    
C36   C44   1.430186 A    
C56   C64   1.390155 A    
O17   C9    1.296400 A    
O23   C15   1.294038 A    
C47   H3    1.085126 S    
C94   H46   1.083281 S    
C73   C81   1.407223 A    
C80   C88   1.402534 A    
C34   C52   1.410105 A    
C81   C89   1.400826 A    
O25   Zn6   2.082950 S    
O29   C5    1.290704 A    
C106  C143  1.444515 S    
C34   C54   1.412691 A    
C123  C131  1.419689 A    
C46   H2    1.085837 S    
O17   Zn1   2.019531 S    
C105  C113  1.377371 A    
C74   C82   1.407094 A    
O3    Zn3   2.024999 S    
O27   Zn8   2.082573 S    
C100  H52   1.083436 S    
O35   Zn12  1.996377 S    
C132  C140  1.402254 A    
C32   C60   1.407375 A    
O27   C3    1.292778 A    
C129  H41   1.083192 S    
C102  C147  1.442898 S    
C125  C133  1.402687 A    
C107  C115  1.386253 A    
C60   C68   1.389970 A    
O14   C14   1.262592 A    
C77   H29   1.082445 S    
C83   H35   1.082459 S    
O34   Zn12  1.987017 S    
C73   C137  1.499803 S    
C4    C120  1.451184 S    
O32   Zn3   2.082573 S    
C97   H49   1.082880 S    
C40   C45   1.379870 A    
C75   C139  1.498111 S    
C93   H45   1.083361 S    
C19   C28   1.418949 A    
O21   Zn5   2.019531 S    
C95   H47   1.083439 S    
O24   C16   1.288157 A    
C78   H30   1.082412 S    
O3    C3    1.254494 A    
C7    C123  1.451144 S    
C108  C141  1.440773 S    
C1    C117  1.452997 S    
C62   H14   1.081773 S    
C35   C55   1.410511 A    
N5    O57   1.301031 A    
N6    O60   1.301233 A    
C61   H13   1.079197 S    
O39   Zn10  1.996377 S    
C99   H51   1.083411 S    
O15   Zn4   2.116308 S    
C17   C21   1.417620 A    
O10   C10   1.245342 A    
C70   C134  1.500849 S    
C41   C47   1.376043 A    
C104  C112  1.386222 A    
C8    C124  1.450285 S    
C66   H18   1.076986 S    
C20   C26   1.412016 A    
C98   C106  1.412333 A    
C32   C49   1.413294 A    
C71   C79   1.406711 A    
N2    O52   1.300382 A    
O22   C14   1.298245 A    
O30   Zn1   2.082950 S    
C94   C102  1.412165 A    
H23   C92   1.082862 S    
O6    Zn6   2.028728 S    
C5    C121  1.437769 S    
C93   C101  1.412336 A    
C76   C87   1.408883 A    
C67   H19   1.077165 S    
C128  H40   1.082593 S    
C76   C140  1.497650 S    
N4    O56   1.302372 A    
C58   C66   1.390074 A    
C13   C44   1.460085 S    
O24   Zn8   2.027236 S    
C28   C61   1.404696 A    
C33   C51   1.405090 A    
O44   Zn11  1.999154 S    
C53   H5    1.079101 S    
O26   Zn5   2.082950 S    
C20   C52   1.421301 A    
C75   C88   1.408828 A    
C35   C43   1.430564 A    
O32   C8    1.292732 A    
C55   C63   1.395126 A    
C116  N8    1.438953 S    
O13   C13   1.254261 A    
C17   C24   1.416813 A    
N1    O50   1.300863 A    
C34   C42   1.425845 A    
C69   C77   1.407103 A    
C18   C23   1.414742 A    
C100  C108  1.411852 A    
C113  N5    1.442228 S    
C127  C135  1.402364 A    
C96   H48   1.083410 S    
O16   Zn3   2.116308 S    
C45   H1    1.083989 S    
C100  C140  1.396927 A    
C112  N4    1.439070 S    
O2    C2    1.257073 A    
C99   C107  1.412004 A    
N8    O64   1.302480 A    
C110  C118  1.384384 A    
O39   C147  1.232470 A    
C95   C103  1.411859 A    
C115  C123  1.382903 A    
O38   C146  1.233298 A    
C56   H8    1.080489 S    
C98   H50   1.083360 S    
N3    O53   1.300406 A    
C30   C58   1.414204 A    
C27   C62   1.400487 A    
O23   Zn7   2.027236 S    
O40   Zn9   1.996380 S    
C44   C47   1.370753 A    
C29   C57   1.407688 A    
C36   C56   1.407907 A    
C80   H32   1.082466 S    
O9    C9    1.262712 A    
C54   C62   1.386270 A    
H26   C85   1.082795 S    
O42   Zn12  2.007347 S    
O20   Zn4   2.027236 S    
C110  N2    1.438574 S    
C114  C122  1.384958 A    
C126  C134  1.402898 A    
C23   C66   1.406433 A    
C18   C50   1.432412 A    
C53   C61   1.389856 A    
C32   C40   1.429180 A    
C79   C87   1.402407 A    
C19   C25   1.410086 A    
N7    O62   1.302388 A    
O35   C143  1.234665 A    
N3    O54   1.302430 A    
H22   C89   1.082779 S    
C2    C118  1.451521 S    
C111  N3    1.438899 S    
C115  N7    1.439132 S    
C77   C85   1.402810 A    
C130  C138  1.402710 A    
O19   Zn3   2.027236 S    
C83   C91   1.402509 A    
C129  C137  1.403628 A    
C103  C146  1.441108 S    
N5    O58   1.303040 A    
C127  H39   1.082655 S    
O31   C7    1.292989 A    
C64   H16   1.081338 S    
O12   Zn7   2.116308 S    
C116  C124  1.382739 A    
C114  N6    1.438780 S    
C71   C92   1.408941 A    
C58   H10   1.075122 S    
O37   Zn9   1.987016 S    
C68   H20   1.076689 S    
C31   C59   1.413926 A    
C54   H6    1.077851 S    
O12   C12   1.259676 A    
C97   C105  1.413553 A    
O13   Zn2   2.109610 S    
C101  C148  1.444522 S    
O41   Zn11  2.007345 S    
C71   C135  1.497693 S    
C70   C78   1.408705 A    
C73   C86   1.409222 A    
C103  C111  1.385638 A    
N6    O59   1.302429 A    
O28   C4    1.292971 A    
O33   Zn11  1.987016 S    
C38   C46   1.368455 A    
O46   C148  1.260828 A    
C99   C139  1.397081 A    
N4    O55   1.300513 A    
C111  C119  1.382874 A    
C109  C117  1.384968 A    
O9    Zn6   2.109610 S    
C106  C114  1.387404 A    
O40   C148  1.234686 A    
O6    C6    1.258663 A    
O38   Zn10  1.987017 S    
C21   C68   1.409553 A    
O1    Zn1   2.028728 S    
C74   C138  1.498833 S    
C39   C46   1.368999 A    
C95   C135  1.396974 A    
O45   Zn9   2.007345 S    
C76   C84   1.406743 A    
O25   C1    1.293815 A    
O42   C144  1.260322 A    
C60   H12   1.078244 S    
H28   C87   1.082858 S    
C118  C126  1.421257 A    
