data_mof_unit_11497.cif
_audit_creation_date              2012-12-10T17:24:14-0500
_audit_creation_method            fapswitch 2.2
_symmetry_space_group_name_H-M    P1
_symmetry_Int_Tables_number       1
_space_group_crystal_system       triclinic
_cell_length_a                    19.396921
_cell_length_b                    10.863731
_cell_length_c                    9.5916
_cell_angle_alpha                 91.083586
_cell_angle_beta                  89.669211
_cell_angle_gamma                 96.035204
_cell_volume                      2009.59370167

loop_
_atom_site_label
_atom_site_type_symbol
_atom_type_description
_atom_site_fract_x
_atom_site_fract_y
_atom_site_fract_z
_atom_type_partial_charge
C1    C     C_R   0.493883 0.261965 0.498916 0.802684
C2    C     C_R   0.292413 0.514920 0.498893 -0.063851
C3    C     C_R   0.931738 0.502848 0.468809 0.422436
C4    C     C_R   0.071854 0.514482 0.478988 0.418392
C5    C     C_R   0.822883 0.487574 0.599686 -0.202658
C6    C     C_R   0.750881 0.478310 0.614838 0.138481
C7    C     C_R   0.708590 0.475142 0.493184 -0.145923
C8    C     C_R   0.741558 0.462789 0.360137 -0.061781
C9    C     C_R   0.814759 0.480347 0.346692 0.126512
C10   C     C_R   0.855273 0.491955 0.469469 -0.001099
C11   C     C_R   0.393296 0.107090 0.680940 -0.075218
C12   C     C_R   0.368081 0.506919 0.500375 0.809369
C13   C     C_R   0.367031 0.045809 0.800743 -0.015507
C14   C     C_R   0.385283 0.928646 0.828322 -0.177830
C15   C     C_R   0.425103 0.868807 0.732941 -0.194229
C16   C     C_R   0.455300 0.930711 0.614797 0.086148
C17   C     C_R   0.445387 0.057262 0.599151 0.055013
C18   C     C_R   0.484508 0.126669 0.496018 -0.088128
C19   C     C_R   0.520311 0.066477 0.393724 -0.187226
C20   C     C_R   0.521643 0.940130 0.396788 -0.176231
C21   C     C_R   0.491963 0.871117 0.507699 -0.090317
C22   C     C_R   0.583435 0.701022 0.136256 -0.025676
C23   C     C_R   0.497238 0.737443 0.502247 0.789163
C24   C     C_R   0.605100 0.804689 0.056225 -0.284440
C25   C     C_R   0.604930 0.795901 0.913530 -0.038149
C26   C     C_R   0.579762 0.685446 0.850856 -0.189696
C27   C     C_R   0.540193 0.592104 0.924682 0.179387
C28   C     C_R   0.541265 0.594704 0.074804 0.166036
C29   C     C_R   0.460111 0.413400 0.071961 0.047239
C30   C     C_R   0.460515 0.413495 0.924195 -0.052816
C31   C     C_R   0.632135 0.489168 0.499257 0.824643
C32   C     C_R   0.254976 0.551188 0.617513 -0.018535
C33   C     C_R   0.183140 0.553674 0.609127 -0.180382
C34   C     C_R   0.147686 0.518573 0.485293 0.040247
C35   C     C_R   0.184848 0.483805 0.368111 -0.145971
C36   C     C_R   0.256308 0.482994 0.374479 -0.148727
Cu1   Cu    Cu3+1 0.500000 0.499990 0.640660 0.946828
Cu2   Cu    Cu3+1 0.500000 0.500010 0.359340 0.981153
H1    H     H_    0.363979 0.879054 0.918487 0.169786
H2    H     H_    0.429939 0.774143 0.756414 0.201023
H3    H     H_    0.548577 0.897331 0.313610 0.157508
H4    H     H_    0.631272 0.888300 0.104252 0.155761
H5    H     H_    0.593190 0.675638 0.744110 0.214633
H6    H     H_    0.154614 0.580245 0.700507 0.156386
H7    H     H_    0.427976 0.343255 0.866665 0.137931
H8    H     H_    0.158643 0.457085 0.271062 0.160996
H9    H     H_    0.283109 0.454528 0.281855 0.173288
H10   H     H_    0.854692 0.490088 0.692628 0.162069
H11   H     H_    0.548632 0.117729 0.311876 0.165432
N1    N     N_R   0.035594 0.439569 0.384385 -0.231570
N2    N     N_R   0.966842 0.433199 0.380214 -0.236868
N3    N     N_R   0.967997 0.577127 0.564269 -0.234286
N4    N     N_R   0.036785 0.582861 0.569314 -0.234572
N5    N     N_R   0.500660 0.501210 0.147910 -0.214466
N6    N     N_R   0.500680 0.501290 0.852040 -0.201566
O1    O     O_R   0.499990 0.319640 0.618810 -0.582424
O2    O     O_R   0.500000 0.319660 0.381240 -0.576584
O3    O     O_R   0.400140 0.499970 0.618820 -0.571056
O4    O     O_R   0.400150 0.500000 0.381250 -0.581863
O5    O     O_R   0.500000 0.680340 0.618760 -0.619545
O6    O     O_R   0.500010 0.680360 0.381190 -0.581877
O7    O     O_R   0.599850 0.500000 0.618750 -0.601499
O8    O     O_R   0.599860 0.500030 0.381180 -0.564888
C37   C     C_1   0.287989 0.585644 0.749211 0.263690
N7    N     N_1   0.314174 0.612793 0.855099 -0.301346
C38   C     C_1   0.351345 0.193751 0.620255 0.241514
N8    N     N_1   0.315043 0.258344 0.571086 -0.277042
C39   C     C_1   0.316243 0.096699 0.889677 0.240034
N9    N     N_1   0.275402 0.137355 0.960427 -0.249807
C40   C     C_1   0.414796 0.320628 0.141618 0.294982
N10   N     N_1   0.378239 0.245959 0.197546 -0.268493
C41   C     C_1   0.622042 0.711306 0.264220 0.324912
N11   N     N_1   0.655338 0.729455 0.363868 -0.319841
C42   C     C_1   0.636715 0.896350 0.831230 0.254031
N12   N     N_1   0.662089 0.976913 0.764955 -0.275718
C43   C     C_3   0.724563 0.466153 0.764022 -0.370923
C44   C     C_3   0.735765 0.590135 0.842695 -0.792340
H12   H     H_    0.791785 0.615050 0.863733 0.244890
H13   H     H_    0.716772 0.664505 0.780328 0.256967
H14   H     H_    0.707855 0.583912 0.944079 0.252044
H15   H     H_    0.670399 0.424841 0.773466 0.238174
H16   H     H_    0.753987 0.399048 0.818732 0.196852
C45   C     C_1   0.701015 0.423765 0.237150 0.253840
N13   N     N_1   0.668840 0.392102 0.139148 -0.303566
C46   C     C_3   0.848654 0.493091 0.202218 -0.408027
C47   C     C_3   0.880143 0.625776 0.177175 -0.780677
H17   H     H_    0.839552 0.690298 0.188106 0.255403
H18   H     H_    0.922609 0.654354 0.251604 0.261974
H19   H     H_    0.901751 0.632634 0.069791 0.241900
H20   H     H_    0.888010 0.427346 0.187165 0.229110
H21   H     H_    0.811590 0.468968 0.116140 0.206373

loop_
_geom_bond_atom_site_label_1
_geom_bond_atom_site_label_2
_ccdc_geom_bond_type
C8    C9    A    
C16   C21   A    
C4    N4    A    
C8    C45   S    
C24   H4    S    
C30   H7    S    
C35   C36   A    
C2    C12   S    
C20   H3    S    
C46   H21   S    
C7    C8    A    
C44   H12   S    
C1    C18   S    
C29   C30   A    
C1    O1    A    
C25   C42   S    
C5    C6    A    
C27   N6    A    
C29   N5    A    
C15   C16   A    
C36   H9    S    
C2    C32   A    
C34   C35   A    
C9    C46   S    
C14   H1    S    
Cu2   O8    S    
C12   O4    A    
C19   C20   A    
C16   C17   A    
C40   N10   T    
C9    C10   A    
Cu1   O3    S    
C11   C38   S    
Cu2   O6    S    
C12   O3    A    
C38   N8    T    
C22   C28   A    
C13   C14   A    
Cu1   O1    S    
C31   O7    A    
C22   C41   S    
C26   H5    S    
N1    N2    A    
C44   H13   S    
C23   O5    A    
C5    H10   S    
C4    C34   S    
C7    C31   S    
C42   N12   T    
C31   O8    A    
C43   C44   S    
C32   C37   S    
C43   H16   S    
C28   N5    A    
C47   H17   S    
C18   C19   A    
C25   C26   A    
C46   C47   S    
C4    N1    A    
Cu1   Cu2   S    
C1    O2    A    
Cu2   O2    S    
C19   H11   S    
C45   N13   T    
Cu2   N5    S    
C3    N3    A    
C17   C18   A    
C26   C27   A    
C24   C25   A    
C21   C23   S    
C22   C24   A    
N3    N4    A    
C29   C40   S    
C44   H14   S    
C2    C36   A    
C11   C17   A    
C3    N2    A    
C33   H6    S    
C39   N9    T    
C41   N11   T    
C47   H19   S    
C43   H15   S    
C46   H20   S    
C6    C43   S    
C6    C7    A    
C30   N6    A    
C37   N7    T    
C5    C10   A    
C3    C10   S    
C32   C33   A    
C11   C13   A    
C33   C34   A    
C47   H18   S    
C15   H2    S    
Cu1   O5    S    
Cu2   O4    S    
Cu1   N6    S    
C23   O6    A    
C20   C21   A    
C27   C28   A    
Cu1   O7    S    
C14   C15   A    
C35   H8    S    
C13   C39   S    
