data_mof_unit_35420.cif
_audit_creation_date              2012-12-10T20:45:33-0500
_audit_creation_method            fapswitch 2.2
_symmetry_space_group_name_H-M    P1
_symmetry_Int_Tables_number       1
_space_group_crystal_system       triclinic
_cell_length_a                    10.658034
_cell_length_b                    10.661671
_cell_length_c                    9.85822
_cell_angle_alpha                 89.789896
_cell_angle_beta                  90.245938
_cell_angle_gamma                 90.603962
_cell_volume                      1120.13380841

loop_
_atom_site_label
_atom_site_type_symbol
_atom_type_description
_atom_site_fract_x
_atom_site_fract_y
_atom_site_fract_z
_atom_type_partial_charge
C1    C     C_R   0.503970 0.260057 0.500427 0.890189
C2    C     C_R   0.814549 0.926303 0.628036 -0.123663
C3    C     C_R   0.798356 0.923964 0.768605 -0.119372
C4    C     C_R   0.260359 0.497270 0.499238 0.919740
C5    C     C_R   0.816745 0.812693 0.841173 -0.140966
C6    C     C_R   0.855878 0.704832 0.773859 -0.130491
C7    C     C_R   0.874551 0.707476 0.633036 0.120909
C8    C     C_R   0.515545 0.063611 0.624576 0.068510
C9    C     C_R   0.523550 0.128973 0.502452 -0.101998
C10   C     C_R   0.554687 0.065769 0.382927 -0.247758
C11   C     C_R   0.552680 0.936113 0.382505 -0.254985
C12   C     C_R   0.242070 0.126821 0.189870 -0.099586
C13   C     C_R   0.521010 0.871701 0.502008 -0.128550
C14   C     C_R   0.515691 0.935875 0.624846 0.178091
C15   C     C_3   0.425045 0.928043 0.740642 -0.098750
C16   C     C_R   0.503016 0.740074 0.500130 0.897091
C17   C     C_3   0.423456 0.071097 0.738441 -0.555330
C18   C     C_R   0.606439 0.478702 0.071723 0.224002
C19   C     C_R   0.394167 0.532291 0.071372 -0.137062
C20   C     C_R   0.394198 0.532423 0.927398 -0.127397
C21   C     C_R   0.606443 0.478814 0.929240 0.233636
C22   C     C_3   0.684715 0.363948 0.923888 -0.526269
C23   C     C_R   0.931393 0.411099 0.428289 -0.263729
C24   C     C_3   0.684523 0.363582 0.078014 -0.523191
C25   C     C_R   0.739636 0.502726 0.500341 0.889467
C26   C     C_R   0.183416 0.227670 0.125718 -0.141997
C27   C     C_R   0.122752 0.318360 0.202936 -0.135303
C28   C     C_R   0.121839 0.309282 0.345099 0.148145
C29   C     C_R   0.180837 0.207886 0.409041 -0.167410
C30   C     C_R   0.240031 0.116635 0.331221 -0.129333
C31   C     C_3   0.172028 0.793661 0.488951 -0.811537
C32   C     C_R   0.871916 0.505023 0.500652 -0.098619
C33   C     C_R   0.938448 0.601921 0.566059 -0.077331
C34   C     C_R   0.068914 0.602282 0.558467 0.163576
C35   C     C_R   0.127810 0.500731 0.496269 -0.113589
C36   C     C_R   0.060282 0.407485 0.425980 -0.054872
C37   C     C_R   0.850215 0.817785 0.559922 -0.157770
H1    H     H_    0.289088 0.056602 0.130142 0.116825
H2    H     H_    0.309538 0.556543 0.124901 0.151030
H3    H     H_    0.185070 0.235646 0.016241 0.126221
H4    H     H_    0.309620 0.556974 0.872967 0.153698
H5    H     H_    0.633897 0.282518 0.878745 0.210992
H6    H     H_    0.778878 0.383455 0.880064 0.199846
H7    H     H_    0.633277 0.282056 0.122454 0.208050
H8    H     H_    0.778679 0.382505 0.122879 0.201476
H9    H     H_    0.077885 0.396404 0.152289 0.115294
H10   H     H_    0.180993 0.199718 0.518569 0.108302
H11   H     H_    0.285371 0.038543 0.380394 0.142986
H12   H     H_    0.770719 0.008239 0.821048 0.119000
H13   H     H_    0.877072 0.339580 0.375409 0.150185
H14   H     H_    0.863546 0.821016 0.451150 0.123354
H15   H     H_    0.799406 0.012264 0.571838 0.139496
H16   H     H_    0.560935 0.928039 0.892183 0.190290
H17   H     H_    0.417090 0.882209 0.941625 0.176743
H18   H     H_    0.108006 0.755393 0.683944 0.230372
H19   H     H_    0.220900 0.878086 0.527981 0.215804
H20   H     H_    0.086045 0.824861 0.435503 0.240432
H21   H     H_    0.234239 0.747073 0.415078 0.248479
H22   H     H_    0.803450 0.810818 0.949948 0.122703
H23   H     H_    0.875521 0.620674 0.831701 0.115822
H24   H     H_    0.570795 0.115311 0.288441 0.167379
H25   H     H_    0.567963 0.887439 0.287824 0.173601
H26   H     H_    0.334170 0.882424 0.715432 0.170394
H27   H     H_    0.331719 0.109598 0.705238 0.188063
H28   H     H_    0.464479 0.116447 0.830037 0.202198
N1    N     N_R   0.499160 0.499140 0.142800 -0.105688
N2    N     N_R   0.499160 0.499180 0.857150 -0.103910
N3    N     N_3   0.482276 0.875091 0.863152 -0.416866
N4    N     N_2   0.141084 0.709305 0.599848 -0.305856
O1    O     O_R   0.500020 0.316790 0.614690 -0.622081
O2    O     O_R   0.500000 0.316760 0.385350 -0.614474
O3    O     O_R   0.316770 0.500030 0.614670 -0.620499
O4    O     O_R   0.316750 0.499990 0.385330 -0.623963
O5    O     O_R   0.500000 0.683240 0.614650 -0.585414
O6    O     O_R   0.499980 0.683210 0.385310 -0.633582
O7    O     O_R   0.683250 0.500010 0.614670 -0.618806
O8    O     O_R   0.683230 0.499970 0.385330 -0.625663
Zn1   Zn    Zn3+2 0.500010 0.500020 0.653130 0.958908
Zn2   Zn    Zn3+2 0.499990 0.499980 0.346870 0.942360

loop_
_geom_bond_atom_site_label_1
_geom_bond_atom_site_label_2
_ccdc_geom_bond_type
O1    Zn1   S    
C18   C21   A    
C20   N2    A    
C35   C36   A    
C11   H25   S    
O2    Zn2   S    
C20   H4    S    
C3    H12   S    
N1    Zn2   S    
C26   C27   A    
C1    O2    A    
C29   H10   S    
C18   C24   S    
C24   H8    S    
C19   H2    S    
C31   H21   S    
C30   H11   S    
C28   C29   A    
O7    Zn1   S    
C17   H27   S    
C5    C6    A    
C37   H14   S    
H17   N3    S    
C16   O6    A    
C19   N1    A    
C34   C35   A    
H16   N3    S    
C25   O8    A    
O3    Zn1   S    
C19   C20   A    
C8    C9    A    
C31   H19   S    
C9    C10   A    
C25   C32   S    
C4    C35   S    
C13   C14   A    
C21   N2    A    
C7    C33   S    
N2    Zn1   S    
O8    Zn2   S    
C7    C37   A    
C5    H22   S    
C6    H23   S    
C1    C9    S    
C23   H13   S    
C12   C26   A    
C29   C30   A    
C22   H6    S    
C33   C34   A    
O4    Zn2   S    
C34   N4    S    
C4    O4    A    
H18   N4    S    
C2    H15   S    
C27   H9    S    
C24   H7    S    
C16   O5    A    
C10   H24   S    
C4    O3    A    
C15   C17   S    
C8    C14   A    
C12   C30   A    
C8    C17   S    
C3    C5    A    
C6    C7    A    
C18   N1    A    
C17   H28   S    
C1    O1    A    
C25   O7    A    
C32   C33   A    
C31   H20   S    
C2    C3    A    
C23   C32   A    
C11   C13   A    
C2    C37   A    
C26   H3    S    
C22   H5    S    
C15   N3    S    
C22   C24   S    
C12   H1    S    
C10   C11   A    
C31   N4    S    
C28   C36   S    
C23   C36   A    
O5    Zn1   S    
C13   C16   S    
C27   C28   A    
C15   H26   S    
C14   C15   S    
C21   C22   S    
O6    Zn2   S    
