data_mof_unit_64752.cif
_audit_creation_date              2012-12-10T17:19:40-0500
_audit_creation_method            fapswitch 2.2
_symmetry_space_group_name_H-M    P1
_symmetry_Int_Tables_number       1
_space_group_crystal_system       triclinic
_cell_length_a                    10.253798
_cell_length_b                    10.843496
_cell_length_c                    11.545735
_cell_angle_alpha                 89.993629
_cell_angle_beta                  80.029833
_cell_angle_gamma                 95.986893
_cell_volume                      1257.23652673

loop_
_atom_site_label
_atom_site_type_symbol
_atom_type_description
_atom_site_fract_x
_atom_site_fract_y
_atom_site_fract_z
_atom_type_partial_charge
Br1   Br    Br    0.613176 0.107439 0.642386 -0.475513
Br2   Br    Br    0.386824 0.892561 0.357614 -0.475513
Br3   Br    Br    0.053385 0.308091 0.577918 -0.468633
Br4   Br    Br    0.946615 0.691909 0.422082 -0.468633
C1    C     C_R   0.556791 0.732217 0.489276 0.952626
C2    C     C_2   0.410006 0.135934 0.505854 -0.328450
C3    C     C_2   0.502146 0.939675 0.471489 0.213497
C4    C     C_2   0.497854 0.060325 0.528512 0.213496
C5    C     C_2   0.940271 0.523529 0.478642 0.238333
C6    C     C_2   0.059729 0.476471 0.521358 0.238333
C7    C     C_3   0.125452 0.664959 0.608878 -0.192781
C8    C     C_3   0.178173 0.674824 0.724472 -0.733980
C9    C     C_3   0.874548 0.335041 0.391122 -0.192780
C10   C     C_3   0.821827 0.325176 0.275528 -0.733979
C11   C     C_R   0.443209 0.267783 0.510724 0.952626
C12   C     C_R   0.498932 0.500130 0.717957 0.897415
C13   C     C_R   0.501068 0.499870 0.282043 0.897415
C14   C     C_1   0.497276 0.500397 0.838790 -0.139873
C15   C     C_1   0.502724 0.499603 0.161210 -0.139873
C16   C     C_1   0.498588 0.500209 0.940833 0.035985
C17   C     C_1   0.501412 0.499791 0.059167 0.035985
C18   C     C_2   0.589994 0.864066 0.494146 -0.328449
H1    H     H_    0.327457 0.105237 0.461923 0.192301
H2    H     H_    0.873383 0.255636 0.219262 0.229025
H3    H     H_    0.983635 0.331132 0.365176 0.187306
H4    H     H_    0.831329 0.253047 0.447808 0.247550
H5    H     H_    0.672543 0.894763 0.538078 0.192301
H6    H     H_    0.158713 0.584377 0.772810 0.267486
H7    H     H_    0.285651 0.708091 0.709118 0.270645
H8    H     H_    0.126617 0.744364 0.780737 0.229026
H9    H     H_    0.168671 0.746953 0.552192 0.247550
H10   H     H_    0.016365 0.668868 0.634824 0.187306
H11   H     H_    0.714349 0.291909 0.290882 0.270644
H12   H     H_    0.841287 0.415623 0.227190 0.267486
N1    N     N_2   0.842700 0.448890 0.453570 -0.063582
N2    N     N_2   0.157300 0.551110 0.546430 -0.063582
O1    O     O_R   0.431060 0.692470 0.509350 -0.588780
O2    O     O_R   0.568940 0.307530 0.490650 -0.588780
O3    O     O_R   0.651120 0.659650 0.479540 -0.567905
O4    O     O_R   0.348880 0.340350 0.520460 -0.567906
O5    O     O_R   0.389960 0.516400 0.680450 -0.615959
O6    O     O_R   0.610040 0.483600 0.319550 -0.615960
O7    O     O_R   0.610030 0.483580 0.650650 -0.581049
O8    O     O_R   0.389970 0.516420 0.349350 -0.581049
Zn1   Zn    Zn3+2 0.353060 0.521910 0.519900 1.024338
Zn2   Zn    Zn3+2 0.646940 0.478090 0.480100 1.024338

loop_
_geom_bond_atom_site_label_1
_geom_bond_atom_site_label_2
_ccdc_geom_bond_type
C10   H12   S    
C2    C4    D    
C7    C8    S    
C11   O2    A    
C1    O1    A    
C8    H7    S    
Br1   C4    S    
C5    C6    S    
Br2   C3    S    
C10   H11   S    
C2    C11   S    
C13   O8    A    
C7    H9    S    
N2    Zn1   S    
Br3   C6    S    
C9    C10   S    
C16   C17   S    
C12   O7    A    
C9    H3    S    
C8    H6    S    
O3    Zn2   S    
C2    H1    S    
C7    N2    S    
C13   C15   S    
C7    H10   S    
C9    N1    S    
C14   C16   T    
C18   H5    S    
C1    O3    A    
O4    Zn1   S    
C9    H4    S    
O7    Zn2   S    
C11   O4    A    
O2    Zn2   S    
O1    Zn1   S    
C3    C18   D    
C3    C4    S    
O8    Zn1   S    
C12   C14   S    
O6    Zn2   S    
C10   H2    S    
C5    N1    D    
O5    Zn1   S    
C13   O6    A    
C6    N2    D    
C8    H8    S    
Br4   C5    S    
N1    Zn2   S    
C12   O5    A    
C1    C18   S    
C15   C17   T    
