data_mof_unit_62255.cif
_audit_creation_date              2013-03-05T16:35:51-0500
_audit_creation_method            fapswitch 2.2
_symmetry_space_group_name_H-M    P1
_symmetry_Int_Tables_number       1
_space_group_crystal_system       triclinic
_cell_length_a                    21.757645
_cell_length_b                    21.77926
_cell_length_c                    21.313335
_cell_angle_alpha                 121.352362
_cell_angle_beta                  120.454809
_cell_angle_gamma                 89.853165
_cell_volume                      6951.37579881

loop_
_atom_site_label
_atom_site_type_symbol
_atom_site_description
_atom_site_fract_x
_atom_site_fract_y
_atom_site_fract_z
_atom_type_partial_charge
O1    O     O_R   0.061970 0.509790 0.623960 -0.549177
O2    O     O_R   0.061960 0.614160 0.623930 -0.554713
C1    C     C_R   0.084629 0.584901 0.669186 0.763531
O3    O     O_R   0.090190 0.447820 0.500020 -0.573754
O4    O     O_R   0.090170 0.552190 0.499990 -0.537031
C2    C     C_R   0.117466 0.498972 0.498092 0.770189
Cu1   Cu    Cu3+1 0.000010 0.438210 0.500020 1.077189
Cu2   Cu    Cu3+1 0.999990 0.561790 0.499980 1.140147
O5    O     O_R   0.938040 0.385840 0.376070 -0.566136
O6    O     O_R   0.938030 0.490210 0.376040 -0.528075
O7    O     O_R   0.909830 0.447810 0.500010 -0.573078
O8    O     O_R   0.909810 0.552180 0.499980 -0.543676
C3    C     C_R   0.915409 0.415063 0.330799 0.825797
C4    C     C_R   0.881770 0.500393 0.500709 0.846629
C5    C     C_R   0.021456 0.247947 0.254404 -0.083373
C6    C     C_R   0.087821 0.311545 0.333219 -0.065432
C7    C     C_R   0.106671 0.375838 0.337491 0.047760
C8    C     C_R   0.058452 0.375854 0.262275 -0.129209
C9    C     C_R   0.992598 0.311849 0.183212 -0.129896
C10   C     C_R   0.974006 0.247981 0.179308 -0.104430
C11   C     C_R   0.242839 0.445925 0.421715 -0.175466
C12   C     C_R   0.313507 0.503403 0.501892 -0.085889
C13   C     C_R   0.319044 0.558629 0.581669 0.091902
C14   C     C_R   0.252830 0.556998 0.577055 -0.079722
C15   C     C_R   0.183418 0.498813 0.497614 -0.026491
C16   C     C_R   0.178094 0.441753 0.419848 0.003154
C17   C     C_R   0.418442 0.613799 0.746808 0.357004
C18   C     C_R   0.485592 0.671821 0.832445 -0.203477
C19   C     C_R   0.527901 0.729663 0.844186 -0.222975
C20   C     C_R   0.503912 0.731453 0.770645 0.366095
C21   C     C_R   0.435185 0.675245 0.685233 -0.190098
C22   C     C_R   0.392472 0.615914 0.672187 -0.067480
C23   C     C_1   0.136290 0.636746 0.771715 -0.128913
C24   C     C_1   0.179107 0.679409 0.856685 0.105986
C25   C     C_1   0.229628 0.729741 0.957463 0.138367
C26   C     C_1   0.272071 0.772054 0.042443 0.105661
C27   C     C_1   0.322353 0.822193 0.143229 0.087761
C28   C     C_1   0.364687 0.864460 0.228219 -0.079560
C29   C     C_R   0.959135 0.442811 0.698107 0.223891
C30   C     C_R   0.894804 0.439784 0.628162 -0.171192
C31   C     C_R   0.882087 0.507077 0.641413 -0.027097
C32   C     C_R   0.932458 0.578144 0.726105 -0.272101
C33   C     C_R   0.995714 0.582940 0.798656 0.232463
C34   C     C_R   0.009871 0.514812 0.784405 0.184988
C35   C     C_R   0.750719 0.505966 0.566435 -0.148948
C36   C     C_R   0.686156 0.504459 0.498764 -0.101318
C37   C     C_R   0.685590 0.502190 0.430944 -0.004042
C38   C     C_R   0.750156 0.499649 0.431147 0.317408
C39   C     C_R   0.814245 0.499791 0.498896 -0.177952
C40   C     C_R   0.814608 0.503148 0.566846 0.020303
C41   C     C_R   0.570732 0.435300 0.267702 0.261889
C42   C     C_R   0.514431 0.440537 0.199068 0.170253
C43   C     C_R   0.507204 0.512616 0.222043 0.312527
C44   C     C_R   0.555350 0.578016 0.313165 -0.168739
C45   C     C_R   0.610139 0.572836 0.380684 -0.216975
C46   C     C_R   0.618577 0.502295 0.359174 -0.005460
C47   C     C_1   0.863619 0.363079 0.228238 -0.080090
C48   C     C_1   0.820887 0.320104 0.143239 0.052234
C49   C     C_1   0.770614 0.269204 0.042443 0.071940
C50   C     C_1   0.728253 0.226483 0.957449 0.091151
C51   C     C_1   0.677892 0.176264 0.856677 0.043588
C52   C     C_1   0.635418 0.134395 0.771709 -0.137632
O9    O     O_R   0.464140 0.554340 0.428270 -0.583624
O10   O     O_R   0.535870 0.626050 0.571740 -0.533295
C53   C     C_R   0.498360 0.620340 0.500589 0.845434
O11   O     O_R   0.373960 0.464160 0.428260 -0.579867
O12   O     O_R   0.445680 0.535880 0.571730 -0.575950
C54   C     C_R   0.380015 0.501780 0.500629 0.816172
Cu3   Cu    Cu3+1 0.457530 0.457560 0.415050 1.109998
Cu4   Cu    Cu3+1 0.542470 0.542480 0.584950 1.124369
O13   O     O_R   0.464130 0.373990 0.428260 -0.589647
O14   O     O_R   0.535860 0.445700 0.571730 -0.547199
O15   O     O_R   0.554320 0.464170 0.428270 -0.578393
O16   O     O_R   0.626040 0.535880 0.571740 -0.569795
C55   C     C_R   0.498310 0.379367 0.499084 0.910093
C56   C     C_R   0.619783 0.503319 0.499619 0.888735
O17   O     O_R   0.552180 0.090160 0.499970 -0.536581
O18   O     O_R   0.447790 0.090160 0.499970 -0.552612
C57   C     C_R   0.500957 0.119505 0.502136 0.840245
O19   O     O_R   0.490230 0.938030 0.376060 -0.536568
O20   O     O_R   0.385840 0.938030 0.376050 -0.551815
C58   C     C_R   0.415591 0.915481 0.330782 0.809335
Cu5   Cu    Cu3+1 0.561810 0.000000 0.500000 1.089230
Cu6   Cu    Cu3+1 0.438190 0.000000 0.500000 1.118870
O21   O     O_R   0.552210 0.909840 0.500030 -0.591646
O22   O     O_R   0.447820 0.909840 0.500030 -0.543632
O23   O     O_R   0.614160 0.061970 0.623950 -0.576088
O24   O     O_R   0.509770 0.061970 0.623940 -0.543088
C59   C     C_R   0.500576 0.881837 0.500945 0.807203
C60   C     C_R   0.584423 0.084160 0.669203 0.770302
C61   C     C_R   0.256457 0.508514 0.267400 0.255324
C62   C     C_R   0.325456 0.563589 0.311109 0.264624
C63   C     C_R   0.354471 0.636263 0.394665 -0.233380
C64   C     C_R   0.310432 0.655743 0.428896 0.180597
C65   C     C_R   0.241340 0.599994 0.384147 0.251591
C66   C     C_R   0.215440 0.527249 0.304064 -0.358292
C67   C     C_R   0.432782 0.756905 0.446976 -0.075330
C68   C     C_R   0.501874 0.816456 0.503312 -0.104859
C69   C     C_R   0.570371 0.814507 0.563524 -0.031051
C70   C     C_R   0.569366 0.749748 0.562784 0.317518
C71   C     C_R   0.499501 0.687843 0.501979 -0.173536
C72   C     C_R   0.430498 0.692838 0.446270 0.107672
C73   C     C_R   0.690907 0.871719 0.597648 -0.200253
C74   C     C_R   0.761269 0.929942 0.652730 0.378976
C75   C     C_R   0.784390 0.995981 0.737535 -0.202676
C76   C     C_R   0.738447 0.003579 0.766950 -0.248490
C77   C     C_R   0.667597 0.945879 0.712237 0.365631
C78   C     C_R   0.643622 0.879087 0.625886 -0.020604
C79   C     C_R   0.372760 0.194394 0.188042 -0.229464
C80   C     C_R   0.390259 0.212751 0.270209 0.314911
C81   C     C_R   0.465935 0.228194 0.339119 -0.092979
C82   C     C_R   0.522529 0.224534 0.323751 0.286843
C83   C     C_R   0.501945 0.202039 0.238892 -0.165189
C84   C     C_R   0.427644 0.187552 0.171001 0.265804
C85   C     C_R   0.488722 0.178537 0.427222 0.356107
C86   C     C_R   0.500594 0.185879 0.502161 -0.200160
C87   C     C_R   0.505826 0.254039 0.572626 -0.068533
C88   C     C_R   0.502999 0.317028 0.570178 0.320792
C89   C     C_R   0.494428 0.311169 0.496813 -0.205261
C90   C     C_R   0.483839 0.240454 0.422998 0.001281
C91   C     C_R   0.450481 0.255704 0.653233 0.339505
C92   C     C_R   0.463091 0.269676 0.731854 -0.214147
C93   C     C_R   0.536257 0.288324 0.805699 0.339541
C94   C     C_R   0.597399 0.292361 0.800005 -0.187468
C95   C     C_R   0.585704 0.277408 0.721992 -0.234382
C96   C     C_R   0.513025 0.259896 0.648765 0.033852
H1    H     H_    0.922728 0.198680 0.118237 0.156384
H2    H     H_    0.580292 0.772444 0.910811 0.214400
N1    N     N_R   0.549704 0.789554 0.782628 0.168362
O25   O     O_R   0.607676 0.847222 0.863715 -0.268479
O26   O     O_R   0.536660 0.783055 0.712388 -0.260797
H3    H     H_    0.415045 0.676733 0.628187 0.190896
N2    N     N_R   0.074853 0.518533 0.857109 0.196883
O27   O     O_R   0.065974 0.479144 0.883291 -0.214068
O28   O     O_R   0.143171 0.560522 0.896575 -0.281188
N3    N     N_R   0.973291 0.372793 0.679664 0.167471
O29   O     O_R   0.042586 0.372554 0.715318 -0.226437
O30   O     O_R   0.916698 0.307376 0.618266 -0.273112
H4    H     H_    0.855501 0.384993 0.562086 0.223084
H5    H     H_    0.921069 0.629768 0.736085 0.218875
N4    N     N_R   0.043066 0.656701 0.886699 0.147162
O31   O     O_R   0.074947 0.662269 0.961049 -0.259161
O32   O     O_R   0.046777 0.719503 0.892985 -0.334475
H6    H     H_    0.750973 0.508048 0.618552 0.183584
N5    N     N_R   0.749931 0.494822 0.361113 0.129496
O33   O     O_R   0.738231 0.547658 0.349134 -0.302246
O34   O     O_R   0.760644 0.436992 0.308499 -0.324667
H7    H     H_    0.007016 0.198509 0.251381 0.169078
N6    N     N_R   0.582429 0.363443 0.243799 0.156016
O35   O     O_R   0.581639 0.320165 0.172221 -0.201093
O36   O     O_R   0.600408 0.344060 0.297529 -0.366259
N7    N     N_R   0.466024 0.373073 0.106173 0.196526
O37   O     O_R   0.464424 0.370843 0.043148 -0.187072
O38   O     O_R   0.425437 0.312717 0.084858 -0.206459
N8    N     N_R   0.450780 0.520162 0.154162 0.195302
O39   O     O_R   0.384178 0.465969 0.086121 -0.177903
O40   O     O_R   0.462596 0.584885 0.165572 -0.277097
H8    H     H_    0.550633 0.633637 0.332209 0.203396
H9    H     H_    0.648723 0.624853 0.449470 0.215325
H10   H     H_    0.162852 0.484134 0.269605 0.210327
N9    N     N_R   0.226097 0.433571 0.184310 0.183163
O41   O     O_R   0.157729 0.410023 0.112744 -0.260571
O42   O     O_R   0.257774 0.383302 0.186477 -0.265919
N10   N     N_R   0.363496 0.547987 0.268406 0.156517
O43   O     O_R   0.387293 0.599033 0.263539 -0.328779
O44   O     O_R   0.373038 0.482427 0.232382 -0.285172
N11   N     N_R   0.332121 0.733484 0.503867 0.166294
O45   O     O_R   0.400763 0.770215 0.579244 -0.277008
O46   O     O_R   0.283812 0.769212 0.495082 -0.239763
N12   N     N_R   0.197981 0.615886 0.420564 0.167191
O47   O     O_R   0.124660 0.579620 0.366714 -0.341370
O48   O     O_R   0.232193 0.660985 0.508213 -0.300282
H11   H     H_    0.124641 0.310666 0.390726 0.178640
H12   H     H_    0.380030 0.760622 0.403789 0.171736
N13   N     N_R   0.638971 0.747885 0.625020 0.135714
O49   O     O_R   0.678961 0.802612 0.712217 -0.256242
O50   O     O_R   0.662656 0.691653 0.595067 -0.402954
H13   H     H_    0.672243 0.820214 0.531986 0.184278
N14   N     N_R   0.808985 0.921952 0.622726 0.146594
O51   O     O_R   0.787759 0.860517 0.544193 -0.297206
O52   O     O_R   0.874162 0.976030 0.673663 -0.280978
H14   H     H_    0.838366 0.041880 0.781591 0.206564
H15   H     H_    0.758451 0.055282 0.833029 0.188126
N15   N     N_R   0.623056 0.955628 0.746834 0.148498
O53   O     O_R   0.550195 0.917422 0.692768 -0.267757
O54   O     O_R   0.655007 0.005996 0.833553 -0.293333
N16   N     N_R   0.407906 0.165657 0.084832 0.188792
O55   O     O_R   0.338826 0.151780 0.021463 -0.241757
O56   O     O_R   0.458643 0.158779 0.068570 -0.229110
H16   H     H_    0.315115 0.183023 0.135891 0.237089
N17   N     N_R   0.330612 0.215814 0.282366 0.150112
O57   O     O_R   0.276010 0.236752 0.243711 -0.308494
O58   O     O_R   0.326083 0.190839 0.324163 -0.278658
H17   H     H_    0.071548 0.425191 0.264791 0.176631
N18   N     N_R   0.600761 0.242937 0.393039 0.166108
O59   O     O_R   0.631412 0.296102 0.478823 -0.364861
O60   O     O_R   0.644281 0.212920 0.370198 -0.264103
H18   H     H_    0.544712 0.197143 0.226337 0.247780
N19   N     N_R   0.476766 0.106252 0.352281 0.101445
O61   O     O_R   0.534728 0.086918 0.356932 -0.283522
O62   O     O_R   0.408412 0.062479 0.276995 -0.330550
N20   N     N_R   0.504605 0.385442 0.639723 0.135965
O63   O     O_R   0.561972 0.422753 0.725072 -0.313845
O64   O     O_R   0.447470 0.409260 0.617817 -0.283913
N21   N     N_R   0.374738 0.238761 0.580166 0.153294
O65   O     O_R   0.325539 0.260540 0.596449 -0.261674
O66   O     O_R   0.352398 0.196977 0.496203 -0.285697
H19   H     H_    0.415563 0.266313 0.735602 0.228781
N22   N     N_R   0.548377 0.303605 0.886230 0.160699
O67   O     O_R   0.491064 0.295025 0.889388 -0.230387
O68   O     O_R   0.616903 0.326987 0.957540 -0.311004
H20   H     H_    0.654539 0.307456 0.856170 0.187808
H21   H     H_    0.634014 0.281758 0.719686 0.185286
H22   H     H_    0.955668 0.311970 0.125176 0.155890
H23   H     H_    0.238475 0.402220 0.361229 0.200446
H24   H     H_    0.255877 0.599700 0.636953 0.135421
N23   N     N_R   0.378340 0.553202 0.736894 0.134183
O69   O     O_R   0.383132 0.565973 0.806331 -0.297144
O70   O     O_R   0.343974 0.483206 0.662084 -0.270403
H25   H     H_    0.506436 0.671334 0.890284 0.216440

loop_
_geom_bond_atom_site_label_1
_geom_bond_atom_site_label_2
_geom_bond_distance
_ccdc_geom_bond_type
C6    H11   1.083221 S    
Cu5   O23   1.829008 S    
C11   C16   1.390793 A    
O9    C53   1.238120 A    
C30   C31   1.396660 A    
C63   C64   1.419466 A    
C8    H17   1.079255 S    
C31   C32   1.396790 A    
O11   C54   1.243884 A    
C65   C66   1.398763 A    
C53   C71   1.454978 S    
C45   C46   1.398269 A    
O11   Cu3   1.970178 S    
C36   C56   1.453895 S    
C67   C68   1.394057 A    
N6    O35   1.301243 A    
Cu1   Cu2   2.691922 S    
N13   O50   1.299875 A    
C88   N20   1.438029 S    
N21   O65   1.301534 A    
C86   C87   1.407029 A    
Cu1   O7    1.972584 S    
C69   C78   1.484495 S    
C27   C28   1.246931 T    
N20   O64   1.301059 A    
C7    C16   1.476817 S    
C17   C18   1.403191 A    
N10   O43   1.300847 A    
Cu6   O22   1.974527 S    
C8    C9    1.397877 A    
N6    O36   1.300276 A    
C20   C21   1.406942 A    
Cu2   O6    1.827884 S    
O7    C4    1.293201 A    
C74   N14   1.439887 S    
N8    O40   1.301544 A    
C76   C77   1.406460 A    
C1    C23   1.504194 S    
C5    C6    1.398393 A    
C30   H4    1.083614 S    
C93   N22   1.439952 S    
C80   N17   1.441621 S    
N15   O53   1.300204 A    
C24   C25   1.478542 S    
C36   C37   1.414072 A    
Cu3   O13   1.975741 S    
O5    C3    1.316921 A    
C88   C89   1.411724 A    
C74   C75   1.401953 A    
C73   C74   1.403155 A    
N9    O42   1.300865 A    
C61   C66   1.395294 A    
C80   C81   1.420795 A    
C95   H21   1.083473 S    
Cu5   Cu6   2.689678 S    
C43   C44   1.401664 A    
N15   O54   1.301668 A    
C6    C7    1.403435 A    
C43   N8    1.439854 S    
Cu4   O16   1.970178 S    
C35   H6    1.085039 S    
C77   C78   1.421304 A    
C11   H23   1.084641 S    
Cu3   O15   1.973033 S    
C73   C78   1.404538 A    
O10   Cu4   1.975741 S    
C75   H14   1.082397 S    
C19   C20   1.401732 A    
C87   C96   1.483655 S    
C67   C72   1.388328 A    
C61   C62   1.410345 A    
Cu2   O8    1.973771 S    
C62   N10   1.438487 S    
C45   H9    1.080023 S    
C5    H7    1.082248 S    
C49   C50   1.246877 T    
C18   H25   1.082727 S    
C57   C86   1.445318 S    
C28   C58   1.504734 S    
Cu3   Cu4   2.492600 S    
O19   Cu5   1.831769 S    
C19   H2    1.082452 S    
C12   C13   1.420276 A    
C82   C83   1.403467 A    
N5    O34   1.300723 A    
N5    O33   1.300979 A    
C29   N3    1.439219 S    
N21   O66   1.301021 A    
C5    C10   1.397747 A    
N22   O67   1.301474 A    
C94   C95   1.394110 A    
N20   O63   1.301010 A    
C32   H5    1.083468 S    
O12   C54   1.236422 A    
C71   C72   1.414981 A    
O9    Cu3   1.971128 S    
C93   C94   1.402684 A    
C55   C89   1.461927 S    
C14   C15   1.392268 A    
C10   H1    1.082382 S    
N11   O46   1.301233 A    
N11   O45   1.299211 A    
O21   C59   1.293274 A    
O18   C57   1.291397 A    
C62   C63   1.416858 A    
N18   O59   1.301239 A    
C94   H20   1.081949 S    
O3    Cu1   1.973769 S    
C48   C49   1.478665 S    
C35   C36   1.397038 A    
C85   N19   1.435826 S    
O22   C59   1.294592 A    
O20   C58   1.315098 A    
C84   N16   1.440474 S    
C41   C42   1.417685 A    
C50   C51   1.478474 S    
O1    C1    1.315214 A    
C25   C26   1.246787 T    
Cu6   O24   1.831769 S    
C64   N11   1.437743 S    
C33   C34   1.418521 A    
N17   O58   1.301024 A    
C82   N18   1.441606 S    
C21   H3    1.082673 S    
C92   H19   1.082275 S    
C44   H8    1.082898 S    
N2    O27   1.301133 A    
C69   C70   1.402356 A    
O8    C4    1.294569 A    
C79   H16   1.082485 S    
C42   N7    1.433522 S    
C38   N5    1.438175 S    
C70   N13   1.440129 S    
C7    C8    1.402229 A    
O17   C57   1.292463 A    
C64   C65   1.412312 A    
C12   C54   1.460891 S    
C91   C92   1.406954 A    
O16   C56   1.240261 A    
C79   C84   1.400912 A    
O19   C58   1.316048 A    
C38   C39   1.408453 A    
Cu5   O21   1.975593 S    
O24   C60   1.316408 A    
C39   C40   1.407485 A    
N4    O31   1.301202 A    
C95   C96   1.401320 A    
O15   C56   1.236726 A    
N18   O60   1.301502 A    
C33   N4    1.440553 S    
O3    C2    1.292582 A    
C32   C33   1.404087 A    
C31   C40   1.477306 S    
C29   C30   1.403154 A    
O20   Cu6   1.829009 S    
C42   C43   1.416252 A    
N3    O30   1.301523 A    
N19   O62   1.300663 A    
C83   C84   1.401057 A    
C83   H18   1.082138 S    
C34   N2    1.433781 S    
Cu1   O5    1.832887 S    
C44   C45   1.390646 A    
C18   C19   1.393344 A    
C67   H12   1.085002 S    
C81   C82   1.418106 A    
C66   H10   1.079966 S    
C17   C22   1.419845 A    
O1    Cu1   1.827884 S    
C21   C22   1.407489 A    
O2    Cu2   1.832887 S    
C41   C46   1.415552 A    
N7    O38   1.300761 A    
N3    O29   1.301273 A    
C37   C38   1.403654 A    
O6    C3    1.315858 A    
C63   C72   1.489980 S    
O4    Cu2   1.972584 S    
C89   C90   1.418865 A    
C85   C90   1.397763 A    
C17   N23   1.441034 S    
C29   C34   1.417715 A    
N23   O70   1.301252 A    
C20   N1    1.439218 S    
C75   C76   1.395033 A    
C77   N15   1.445122 S    
C59   C68   1.450539 S    
C73   H13   1.083703 S    
O10   C53   1.237292 A    
O12   Cu4   1.973035 S    
C9    C10   1.397780 A    
N4    O32   1.301618 A    
O2    C1    1.317360 A    
C15   C16   1.402752 A    
N16   O55   1.301629 A    
N13   O49   1.301015 A    
N9    O41   1.300822 A    
C87   C88   1.399751 A    
C13   C22   1.487276 S    
O13   C55   1.234457 A    
C2    C15   1.440106 S    
C14   H24   1.085425 S    
O14   C55   1.244180 A    
C47   C48   1.246979 T    
O4    C2    1.292205 A    
N12   O48   1.301290 A    
C35   C40   1.387060 A    
C61   N9    1.431226 S    
C52   C60   1.504255 S    
N23   O69   1.301463 A    
N10   O44   1.300249 A    
C70   C71   1.415367 A    
N22   O68   1.301385 A    
C23   C24   1.246619 T    
N19   O61   1.300583 A    
C51   C52   1.246788 T    
N17   O57   1.301551 A    
C65   N12   1.439884 S    
C76   H15   1.082480 S    
N16   O56   1.301609 A    
C9    H22   1.082354 S    
C13   C14   1.392631 A    
N14   O51   1.301636 A    
C4    C39   1.449899 S    
O18   Cu6   1.975594 S    
C91   N21   1.442464 S    
C91   C96   1.417836 A    
C3    C47   1.504692 S    
N7    O37   1.301027 A    
C41   N6    1.439885 S    
C26   C27   1.478679 S    
C68   C69   1.409744 A    
N12   O47   1.301199 A    
O23   C60   1.314660 A    
C79   C80   1.402834 A    
N8    O39   1.301293 A    
N2    O28   1.300903 A    
O17   Cu5   1.974529 S    
N1    O25   1.301859 A    
C81   C90   1.488920 S    
Cu4   O14   1.971128 S    
N1    O26   1.300286 A    
C92   C93   1.405178 A    
C11   C12   1.404166 A    
C85   C86   1.399852 A    
C37   C46   1.486109 S    
N14   O52   1.301590 A    
