data_mof_unit_25190.cif
_audit_creation_date              2012-12-11T14:42:11-0500
_audit_creation_method            fapswitch 2.2
_symmetry_space_group_name_H-M    P1
_symmetry_Int_Tables_number       1
_space_group_crystal_system       triclinic
_cell_length_a                    18.944293
_cell_length_b                    10.950256
_cell_length_c                    18.791687
_cell_angle_alpha                 89.813468
_cell_angle_beta                  90.061558
_cell_angle_gamma                 90.05727
_cell_volume                      3898.21400078

loop_
_atom_site_label
_atom_site_type_symbol
_atom_type_description
_atom_site_fract_x
_atom_site_fract_y
_atom_site_fract_z
_atom_type_partial_charge
C1    C     C_R   0.725565 0.959126 0.855208 0.553281
C2    C     C_R   0.272564 0.955959 0.146648 0.554835
C3    C     C_R   0.225564 0.459130 0.855210 0.553770
C4    C     C_R   0.772566 0.455965 0.146644 0.547477
C5    C     C_R   0.703779 0.486536 0.036130 -0.132224
C6    C     C_R   0.302772 0.461901 0.962170 -0.147316
C7    C     C_R   0.203776 0.986528 0.036133 -0.132485
C8    C     C_R   0.802779 0.961866 0.962163 -0.147464
C9    C     C_R   0.751879 0.416342 0.076272 0.028563
C10   C     C_R   0.238320 0.432634 0.929726 0.033952
C11   C     C_R   0.251877 0.916334 0.076275 0.027691
C12   C     C_R   0.738322 0.932629 0.929723 0.034044
C13   C     C_R   0.791159 0.324629 0.043911 -0.141073
C14   C     C_R   0.180129 0.399191 0.971477 -0.130189
C15   C     C_R   0.291157 0.824621 0.043916 -0.141307
C16   C     C_R   0.680128 0.899212 0.971478 -0.130174
C17   C     C_R   0.787424 0.310163 0.971443 -0.123016
C18   C     C_R   0.185922 0.394181 0.044228 -0.133042
C19   C     C_R   0.287423 0.810157 0.971446 -0.122873
C20   C     C_R   0.685924 0.894197 0.044228 -0.133189
C21   C     C_R   0.742832 0.384977 0.930136 0.035297
C22   C     C_R   0.251342 0.414261 0.076654 0.029116
C23   C     C_R   0.242831 0.884972 0.930138 0.035302
C24   C     C_R   0.751349 0.914250 0.076650 0.029486
C25   C     C_R   0.540445 0.271396 0.525295 -0.130643
C26   C     C_R   0.534191 0.267483 0.452753 -0.136485
C27   C     C_R   0.045301 0.766424 0.524819 -0.133280
C28   C     C_R   0.037428 0.761705 0.452386 -0.140378
C29   C     C_R   0.507083 0.162603 0.421186 0.033698
C30   C     C_R   0.521107 0.170197 0.566855 0.036788
C31   C     C_R   0.004038 0.661030 0.422470 0.035237
C32   C     C_R   0.020429 0.670243 0.567571 0.037788
C33   C     C_R   0.496610 0.055653 0.461316 -0.137422
C34   C     C_R   0.502499 0.059995 0.534655 -0.145313
C35   C     C_R   0.986553 0.558369 0.464132 -0.131669
C36   C     C_R   0.994347 0.563439 0.537117 -0.146847
C37   C     C_R   0.811134 0.367330 0.540335 -0.152619
C38   C     C_R   0.179881 0.389757 0.454983 -0.146697
C39   C     C_R   0.318489 0.885460 0.544404 -0.149504
C40   C     C_R   0.679823 0.890582 0.454843 -0.143959
C41   C     C_R   0.813196 0.373904 0.467828 -0.145327
C42   C     C_R   0.169185 0.418113 0.525471 -0.131140
C43   C     C_R   0.328342 0.910903 0.473554 -0.139543
C44   C     C_R   0.669342 0.918710 0.525381 -0.130843
C45   C     C_R   0.529425 0.177562 0.850601 0.558264
C46   C     C_R   0.469827 0.177655 0.148902 0.553534
C47   C     C_R   0.029426 0.677562 0.850601 0.557782
C48   C     C_R   0.969828 0.677656 0.148902 0.552201
C49   C     C_R   0.761871 0.439380 0.430569 0.016849
C50   C     C_R   0.219585 0.485519 0.562952 0.011883
C51   C     C_R   0.280152 0.983750 0.436686 0.014233
C52   C     C_R   0.720510 0.983812 0.563226 0.014137
C53   C     C_R   0.710410 0.505736 0.468221 -0.134966
C54   C     C_R   0.276374 0.539068 0.525771 -0.131371
C55   C     C_R   0.225318 0.041527 0.474147 -0.136579
C56   C     C_R   0.778872 0.033661 0.526752 -0.132681
C57   C     C_R   0.706962 0.498661 0.542861 -0.023703
C58   C     C_R   0.286586 0.514158 0.452939 -0.018623
C59   C     C_R   0.214425 0.016449 0.546970 -0.026576
C60   C     C_R   0.788834 0.008706 0.454096 -0.022281
C61   C     C_R   0.755054 0.419629 0.578010 0.017591
C62   C     C_R   0.241024 0.429139 0.419386 0.013836
C63   C     C_R   0.258883 0.929316 0.580629 0.015028
C64   C     C_R   0.741628 0.927781 0.419726 0.016419
C65   C     C_R   0.736729 0.357611 0.855022 0.546666
C66   C     C_R   0.261599 0.365311 0.147652 0.543268
C67   C     C_R   0.236729 0.857609 0.855023 0.546810
C68   C     C_R   0.761601 0.865304 0.147649 0.542045
C69   C     C_R   0.709569 0.001926 0.639747 0.567720
C70   C     C_R   0.290681 0.001950 0.360100 0.570327
C71   C     C_R   0.209295 0.502484 0.639789 0.567483
C72   C     C_R   0.774249 0.461182 0.355184 0.544716
C73   C     C_R   0.534294 0.176826 0.642025 0.544005
C74   C     C_R   0.472386 0.175272 0.353552 0.542560
C75   C     C_R   0.033931 0.676872 0.642379 0.542969
C76   C     C_R   0.971613 0.675094 0.354032 0.549427
C77   C     C_R   0.740525 0.365624 0.647556 0.527537
C78   C     C_R   0.259213 0.365784 0.352663 0.529197
C79   C     C_R   0.240812 0.866275 0.647529 0.526581
C80   C     C_R   0.759272 0.865564 0.352672 0.541948
C81   C     C_2   0.495973 0.169174 0.920428 -0.107230
C82   C     C_2   0.501109 0.167933 0.078101 -0.113110
C83   C     C_2   0.995975 0.669173 0.920429 -0.107285
C84   C     C_2   0.001112 0.667936 0.078102 -0.112527
C85   C     C_2   0.487778 0.069705 0.037313 -0.162106
C86   C     C_2   0.503120 0.068644 0.960764 -0.160332
C87   C     C_2   0.987785 0.569707 0.037315 -0.162110
C88   C     C_2   0.003128 0.568646 0.960766 -0.160373
C89   C     C_R   0.699051 0.470354 0.962974 -0.142178
C90   C     C_R   0.309527 0.451596 0.035681 -0.142634
C91   C     C_R   0.199049 0.970347 0.962977 -0.141973
C92   C     C_R   0.809537 0.951557 0.035673 -0.142543
Cr1   Cr    Cr6+3 0.769270 0.163730 0.750710 1.004208
Cr2   Cr    Cr6+3 0.230730 0.163730 0.249290 1.000675
Cr3   Cr    Cr6+3 0.269270 0.663730 0.750710 1.005256
Cr4   Cr    Cr6+3 0.730730 0.663730 0.249290 1.004617
Cr5   Cr    Cr6+3 0.612620 0.009790 0.748780 0.986812
Cr6   Cr    Cr6+3 0.387380 0.009790 0.251220 0.986654
Cr7   Cr    Cr6+3 0.112620 0.509790 0.748780 0.988696
Cr8   Cr    Cr6+3 0.887380 0.509790 0.251220 0.995037
Cr9   Cr    Cr6+3 0.614160 0.322500 0.747710 1.016795
Cr10  Cr    Cr6+3 0.385840 0.322500 0.252290 1.017352
Cr11  Cr    Cr6+3 0.114160 0.822500 0.747710 1.015830
Cr12  Cr    Cr6+3 0.885840 0.822500 0.252290 1.027484
H1    H     H_    0.463993 0.988016 0.059883 0.155398
H2    H     H_    0.521320 0.983653 0.937720 0.140968
H3    H     H_    0.964003 0.488015 0.059884 0.155502
H4    H     H_    0.021334 0.483658 0.937723 0.140910
H5    H     H_    0.856708 0.329223 0.441316 0.145067
H6    H     H_    0.122472 0.382219 0.551379 0.151159
H7    H     H_    0.372580 0.868405 0.447069 0.142450
H8    H     H_    0.622069 0.884612 0.551029 0.148374
H9    H     H_    0.675090 0.566366 0.439731 0.125361
H10   H     H_    0.312215 0.600039 0.553187 0.124679
H11   H     H_    0.191089 0.105293 0.446649 0.126659
H12   H     H_    0.816354 0.091124 0.554498 0.124765
H13   H     H_    0.526509 0.248302 0.055683 0.108859
H14   H     H_    0.474423 0.252381 0.943070 0.107703
H15   H     H_    0.026509 0.748308 0.055684 0.109145
H16   H     H_    0.974421 0.752378 0.943069 0.107621
H17   H     H_    0.662715 0.525650 0.932155 0.119882
H18   H     H_    0.360734 0.466742 0.059799 0.128052
H19   H     H_    0.162713 0.025643 0.932157 0.119827
H20   H     H_    0.860748 0.966678 0.059788 0.128205
H21   H     H_    0.672875 0.558364 0.060414 0.136193
H22   H     H_    0.347624 0.491459 0.930808 0.117598
H23   H     H_    0.172871 0.058354 0.060417 0.136084
H24   H     H_    0.847634 0.991403 0.930798 0.117491
H25   H     H_    0.827809 0.268590 0.073954 0.122839
H26   H     H_    0.129216 0.378900 0.948223 0.125374
H27   H     H_    0.327805 0.768580 0.073960 0.122150
H28   H     H_    0.629210 0.878945 0.948227 0.125573
H29   H     H_    0.819617 0.239215 0.948002 0.139469
H30   H     H_    0.140046 0.366267 0.074653 0.128941
H31   H     H_    0.319617 0.739212 0.948005 0.139471
H32   H     H_    0.640046 0.866305 0.074657 0.128765
H33   H     H_    0.560446 0.354003 0.548939 0.149580
H34   H     H_    0.545045 0.349499 0.422168 0.128413
H35   H     H_    0.070839 0.845589 0.547420 0.148053
H36   H     H_    0.052862 0.839890 0.420467 0.125062
H37   H     H_    0.478799 0.971933 0.436753 0.122979
H38   H     H_    0.491661 0.978826 0.565945 0.117101
H39   H     H_    0.961707 0.478481 0.441265 0.134939
H40   H     H_    0.978624 0.486129 0.569610 0.117097
H41   H     H_    0.851383 0.312558 0.566128 0.127630
H42   H     H_    0.141686 0.330115 0.429842 0.133866
H43   H     H_    0.355653 0.823234 0.569107 0.128131
H44   H     H_    0.640873 0.832990 0.429238 0.131844
O1    O     O_R   0.784320 0.290430 0.830510 -0.528483
O2    O     O_R   0.215680 0.290430 0.169490 -0.526267
O3    O     O_R   0.284320 0.790430 0.830510 -0.528176
O4    O     O_R   0.715680 0.790430 0.169490 -0.527781
O5    O     O_R   0.554640 0.080370 0.673500 -0.524840
O6    O     O_R   0.445360 0.080370 0.326500 -0.527254
O7    O     O_R   0.054640 0.580370 0.673500 -0.524327
O8    O     O_R   0.945360 0.580370 0.326500 -0.511676
O9    O     O_R   0.543920 0.282180 0.666790 -0.515448
O10   O     O_R   0.456080 0.282180 0.333210 -0.510462
O11   O     O_R   0.043920 0.782180 0.666790 -0.515039
O12   O     O_R   0.956080 0.782180 0.333210 -0.508855
O13   O     O_R   0.679040 0.374160 0.674430 -0.498196
O14   O     O_R   0.320960 0.374160 0.325570 -0.487284
O15   O     O_R   0.179040 0.874160 0.674430 -0.498456
O16   O     O_R   0.820960 0.874160 0.325570 -0.481046
O17   O     O_3   0.665350 0.165340 0.749070 -0.263903
O18   O     O_3   0.334650 0.165340 0.250930 -0.257624
O19   O     O_3   0.165350 0.665340 0.749070 -0.264545
O20   O     O_3   0.834650 0.665340 0.250930 -0.239527
O21   O     O_R   0.762640 0.040960 0.825200 -0.499295
O22   O     O_R   0.237360 0.040960 0.174800 -0.499310
O23   O     O_R   0.262640 0.540960 0.825200 -0.499313
O24   O     O_R   0.737360 0.540960 0.174800 -0.503587
O25   O     O_R   0.667400 0.923970 0.829950 -0.538286
O26   O     O_R   0.332600 0.923970 0.170050 -0.535849
O27   O     O_R   0.167400 0.423970 0.829950 -0.537310
O28   O     O_R   0.832600 0.423970 0.170050 -0.537802
O29   O     O_R   0.553960 0.081340 0.821780 -0.497922
O30   O     O_R   0.446040 0.081340 0.178220 -0.498406
O31   O     O_R   0.053960 0.581340 0.821780 -0.498208
O32   O     O_R   0.946040 0.581340 0.178220 -0.498820
O33   O     O_R   0.543180 0.283240 0.826740 -0.511803
O34   O     O_R   0.456820 0.283240 0.173260 -0.516925
O35   O     O_R   0.043180 0.783240 0.826740 -0.512088
O36   O     O_R   0.956820 0.783240 0.173260 -0.517760
O37   O     O_R   0.678360 0.375140 0.822710 -0.503798
O38   O     O_R   0.321640 0.375140 0.177290 -0.506961
O39   O     O_R   0.178360 0.875140 0.822710 -0.503782
O40   O     O_R   0.821640 0.875140 0.177290 -0.507685
O41   O     O_R   0.785050 0.289380 0.670560 -0.537602
O42   O     O_R   0.214950 0.289380 0.329440 -0.541303
O43   O     O_R   0.285050 0.789380 0.670560 -0.537279
O44   O     O_R   0.714950 0.789380 0.329440 -0.534466
O45   O     O_R   0.763320 0.039990 0.676930 -0.499310
O46   O     O_R   0.236680 0.039990 0.323070 -0.505365
O47   O     O_R   0.263320 0.539990 0.676930 -0.498494
O48   O     O_R   0.736680 0.539990 0.323070 -0.505376
O49   O     O_R   0.668130 0.922920 0.670000 -0.526191
O50   O     O_R   0.331870 0.922920 0.330000 -0.527692
O51   O     O_R   0.168130 0.422920 0.670000 -0.523950
O52   O     O_R   0.831870 0.422920 0.330000 -0.534081
C93   C     C_R   0.654610 0.574312 0.582848 0.041283
C94   C     C_R   0.672153 0.624869 0.649470 -0.041631
C95   C     C_R   0.620690 0.682081 0.690817 -0.060511
C96   C     C_R   0.552836 0.699561 0.663765 -0.096008
C97   C     C_R   0.535833 0.656689 0.596076 -0.129081
C98   C     C_R   0.586079 0.593204 0.556184 -0.117029
H45   H     H_    0.725023 0.615850 0.670783 0.100641
H46   H     H_    0.633978 0.715546 0.743283 0.128470
H47   H     H_    0.513552 0.746717 0.695130 0.100466
H48   H     H_    0.483259 0.670903 0.575237 0.096706
H49   H     H_    0.570726 0.554656 0.505771 0.079653
C99   C     C_R   0.342545 0.579348 0.412203 0.044615
C100  C     C_R   0.411888 0.588020 0.438341 -0.105022
C101  C     C_R   0.464380 0.644919 0.397471 -0.134293
C102  C     C_R   0.448765 0.689934 0.329728 -0.100901
C103  C     C_R   0.380277 0.680718 0.303072 -0.061807
C104  C     C_R   0.326908 0.629698 0.344915 -0.044779
H50   H     H_    0.425495 0.548513 0.489364 0.102734
H51   H     H_    0.517549 0.653411 0.417408 0.095011
H52   H     H_    0.489747 0.732140 0.297939 0.096781
H53   H     H_    0.368150 0.715420 0.250484 0.123839
H54   H     H_    0.273702 0.625926 0.323867 0.098280
C105  C     C_R   0.157171 0.081059 0.586074 0.039098
C106  C     C_R   0.169130 0.128727 0.654536 -0.037233
C107  C     C_R   0.113695 0.180591 0.693114 -0.062129
C108  C     C_R   0.046881 0.191979 0.662344 -0.100609
C109  C     C_R   0.035045 0.149217 0.593462 -0.125079
C110  C     C_R   0.089767 0.093472 0.555777 -0.114510
H55   H     H_    0.220913 0.122932 0.678777 0.103976
H56   H     H_    0.122894 0.213880 0.746494 0.122824
H57   H     H_    0.004343 0.233987 0.691838 0.099687
H58   H     H_    0.983231 0.157806 0.569657 0.099949
H59   H     H_    0.079236 0.056417 0.503885 0.082103
C111  C     C_R   0.846846 0.068136 0.413883 0.033155
C112  C     C_R   0.917748 0.049703 0.432950 -0.091849
C113  C     C_R   0.971739 0.092408 0.388392 -0.110697
C114  C     C_R   0.955565 0.154214 0.325405 -0.107158
C115  C     C_R   0.885311 0.173394 0.306356 -0.080509
C116  C     C_R   0.831124 0.131991 0.350662 -0.069028
H60   H     H_    0.931095 0.998075 0.480334 0.109535
H61   H     H_    0.026308 0.074999 0.401020 0.093889
H62   H     H_    0.997530 0.185904 0.290913 0.096369
H63   H     H_    0.872786 0.219670 0.256974 0.129587
H64   H     H_    0.776790 0.146223 0.334653 0.097632

loop_
_geom_bond_atom_site_label_1
_geom_bond_atom_site_label_2
_ccdc_geom_bond_type
C58   C62   A    
C95   C96   A    
Cr6   O6    S    
Cr11  O19   S    
C55   C59   A    
C80   O44   A    
C112  H60   S    
C14   C18   A    
Cr1   O1    S    
C35   C36   A    
C28   H36   S    
C84   C87   D    
C87   C88   S    
C3    O23   A    
C106  C107  A    
Cr2   O18   S    
C32   C75   S    
C31   C76   S    
C45   O33   A    
C21   C89   A    
C97   C98   A    
C15   C19   A    
C78   O42   A    
Cr1   O21   S    
C50   C54   A    
C55   H11   S    
C114  H62   S    
C37   C41   A    
Cr11  O35   S    
C32   C36   A    
C56   C60   A    
C66   O2    A    
C101  H51   S    
C92   H20   S    
C54   C58   A    
Cr6   O26   S    
C85   H1    S    
Cr12  O20   S    
C99   C104  A    
C19   H31   S    
C108  H57   S    
Cr4   O4    S    
C73   O9    A    
C25   C30   A    
C113  C114  A    
C74   O6    A    
C93   C94   A    
Cr7   O31   S    
C23   C67   S    
C57   C61   A    
C9    C13   A    
C103  H53   S    
C22   C66   S    
C47   O31   A    
C52   C69   S    
C46   C82   S    
C11   C15   A    
C98   H49   S    
C8    H24   S    
C46   O30   A    
C38   H42   S    
C12   C16   A    
C29   C33   A    
C53   H9    S    
C49   C72   S    
Cr7   O7    S    
C96   H47   S    
Cr8   O28   S    
C112  C113  A    
Cr4   O20   S    
C18   H30   S    
C116  H64   S    
C8    C92   A    
C51   C70   S    
Cr5   O5    S    
Cr6   O30   S    
C18   C22   A    
C51   C55   A    
C81   C86   D    
C2    O26   A    
C8    C12   A    
C71   O47   A    
C88   H4    S    
C70   O46   A    
C44   C52   A    
C42   H6    S    
C109  H58   S    
Cr1   O17   S    
Cr10  O18   S    
C91   H19   S    
C114  C115  A    
C69   O49   A    
C96   C97   A    
C64   C80   S    
C83   H16   S    
Cr10  O10   S    
C86   H2    S    
C1    C12   S    
C43   H7    S    
Cr12  O12   S    
Cr9   O37   S    
C2    C11   S    
C24   C92   A    
C41   C49   A    
C67   O39   A    
C107  C108  A    
Cr7   O19   S    
Cr11  O11   S    
C77   O13   A    
Cr12  O40   S    
C65   O37   A    
Cr5   O25   S    
C94   C95   A    
Cr6   O50   S    
C67   O3    A    
Cr10  O34   S    
C57   C93   S    
Cr5   O49   S    
C60   C111  S    
C103  C104  A    
C6    H22   S    
C105  C106  A    
C47   O35   A    
C10   C14   A    
C61   C77   S    
C48   O36   A    
C30   C73   S    
C30   C34   A    
C101  C102  A    
C63   C79   S    
C29   C74   S    
C41   H5    S    
C33   H37   S    
C25   C26   A    
C85   C86   S    
C115  H63   S    
C76   O8    A    
C80   O16   A    
C25   H33   S    
C48   C84   S    
Cr3   O19   S    
C113  H61   S    
Cr4   O48   S    
C7    C11   A    
C102  C103  A    
Cr2   O42   S    
C37   H41   S    
C5    C9    A    
C68   O4    A    
C72   O52   A    
C34   H38   S    
C22   C90   A    
Cr5   O29   S    
C109  C110  A    
C100  C101  A    
C16   C20   A    
C1    O25   A    
C69   O45   A    
C33   C34   A    
C56   H12   S    
Cr11  O39   S    
C50   C71   S    
Cr10  O38   S    
C20   H32   S    
C74   O10   A    
Cr9   O17   S    
Cr1   O45   S    
C110  H59   S    
Cr6   O18   S    
C59   C105  S    
C2    O22   A    
C44   H8    S    
C3    O27   A    
C58   C99   S    
Cr12  O36   S    
C42   C50   A    
C78   O14   A    
C47   C83   S    
C94   H45   S    
C66   O38   A    
C17   H29   S    
C23   C91   A    
Cr3   O3    S    
C111  C112  A    
C73   O5    A    
Cr8   O32   S    
Cr8   O52   S    
C7    C91   A    
C48   O32   A    
Cr9   O33   S    
Cr10  O14   S    
C19   C23   A    
C14   H26   S    
C75   O11   A    
C104  H54   S    
C115  C116  A    
C76   O12   A    
C40   H44   S    
Cr3   O47   S    
Cr1   O41   S    
C4    O24   A    
C21   C65   S    
C27   C32   A    
Cr2   O46   S    
C54   H10   S    
C59   C63   A    
C62   C78   S    
C28   C31   A    
C45   C81   S    
C79   O15   A    
C26   H34   S    
C87   H3    S    
C53   C57   A    
Cr4   O24   S    
C72   O48   A    
C37   C61   A    
C100  H50   S    
C71   O51   A    
Cr3   O43   S    
Cr2   O2    S    
C82   C85   D    
C39   C63   A    
C95   H46   S    
C39   H43   S    
Cr11  O15   S    
C107  H56   S    
C40   C64   A    
C60   C64   A    
C90   H18   S    
Cr8   O20   S    
C77   O41   A    
C46   O34   A    
Cr9   O13   S    
C36   H40   S    
C3    C10   S    
C6    C90   A    
C102  H52   S    
Cr2   O22   S    
C45   O29   A    
C105  C110  A    
C43   C51   A    
Cr12  O16   S    
Cr7   O27   S    
C89   H17   S    
C97   H48   S    
C84   H15   S    
Cr5   O17   S    
C81   H14   S    
C1    O21   A    
C5    H21   S    
C83   C88   D    
C93   C98   A    
C31   C35   A    
C111  C116  A    
C65   O1    A    
Cr4   O44   S    
C16   H28   S    
C27   H35   S    
C49   C53   A    
C6    C10   A    
C24   C68   S    
Cr9   O9    S    
C13   C17   A    
C38   C42   A    
C75   O7    A    
C40   C44   A    
C15   H27   S    
C99   C100  A    
C68   O40   A    
C26   C29   A    
C70   O50   A    
C108  C109  A    
C4    O28   A    
C39   C43   A    
Cr7   O51   S    
C27   C28   A    
C13   H25   S    
C79   O43   A    
C82   H13   S    
C7    H23   S    
C4    C9    S    
C106  H55   S    
Cr8   O8    S    
Cr3   O23   S    
C20   C24   A    
C5    C89   A    
C52   C56   A    
C35   H39   S    
C38   C62   A    
C17   C21   A    
