data_mof_unit_53215.cif
_audit_creation_date              2012-12-10T17:55:05-0500
_audit_creation_method            fapswitch 2.2
_symmetry_space_group_name_H-M    P1
_symmetry_Int_Tables_number       1
_space_group_crystal_system       triclinic
_cell_length_a                    8.72752
_cell_length_b                    10.831336
_cell_length_c                    9.542361
_cell_angle_alpha                 90.175324
_cell_angle_beta                  98.271204
_cell_angle_gamma                 90.388553
_cell_volume                      892.635241919

loop_
_atom_site_label
_atom_site_type_symbol
_atom_type_description
_atom_site_fract_x
_atom_site_fract_y
_atom_site_fract_z
_atom_type_partial_charge
C1    C     C_R   0.499820 0.262144 0.499811 0.784689
C2    C     C_R   0.500179 0.737856 0.500189 0.784688
C3    C     C_R   0.203696 0.499931 0.463539 0.889287
C4    C     C_R   0.796303 0.500069 0.536461 0.889286
C5    C     C_2   0.037573 0.500094 0.443664 -0.373696
C6    C     C_2   0.962427 0.499906 0.556336 -0.373697
C7    C     C_R   0.507309 0.063515 0.373705 -0.184510
C8    C     C_R   0.492691 0.936485 0.626295 -0.184510
C9    C     C_R   0.507505 0.935785 0.373899 -0.189842
C10   C     C_R   0.492495 0.064214 0.626100 -0.189842
C11   C     C_R   0.500194 0.871744 0.500205 -0.012817
C12   C     C_R   0.499806 0.128256 0.499795 -0.012817
C13   C     C_R   0.402089 0.423483 0.060664 0.363187
C14   C     C_R   0.597911 0.576517 0.939336 0.363187
C15   C     C_R   0.403963 0.423080 0.911941 -0.154691
C16   C     C_R   0.596037 0.576920 0.088059 -0.154690
Cu1   Cu    Cu3+1 0.500000 0.500020 0.640660 0.957220
Cu2   Cu    Cu3+1 0.500000 0.499980 0.359340 0.957220
H1    H     H_    0.976912 0.500478 0.335845 0.170733
H2    H     H_    0.023088 0.499522 0.664155 0.170733
H3    H     H_    0.513477 0.111245 0.275082 0.143255
H4    H     H_    0.486523 0.888755 0.724918 0.143255
H5    H     H_    0.513665 0.887486 0.275310 0.146364
H6    H     H_    0.486335 0.112514 0.724690 0.146364
H7    H     H_    0.328014 0.361214 0.844553 0.145399
H8    H     H_    0.671986 0.638786 0.155447 0.145399
N1    N     N_R   0.500040 0.500030 0.852080 -0.185132
N2    N     N_R   0.499960 0.499970 0.147920 -0.185132
O1    O     O_R   0.499990 0.319660 0.618740 -0.596673
O2    O     O_R   0.500010 0.680340 0.381260 -0.596673
O3    O     O_R   0.499990 0.319630 0.381170 -0.569787
O4    O     O_R   0.500010 0.680370 0.618830 -0.569788
O5    O     O_R   0.274840 0.500010 0.591370 -0.583680
O6    O     O_R   0.725160 0.499990 0.408630 -0.583680
O7    O     O_R   0.274830 0.499980 0.353800 -0.555220
O8    O     O_R   0.725170 0.500020 0.646200 -0.555219
N3    N     N_2   0.300443 0.342256 0.119557 -0.373698
H9    H     H_    0.324676 0.250705 0.103317 0.221108
C17   C     C_3   0.137553 0.368463 0.079856 -0.707022
H10   H     H_    0.068557 0.310948 0.144292 0.229453
H11   H     H_    0.100250 0.346686 0.966149 0.195989
H12   H     H_    0.113857 0.467164 0.099645 0.240085
N4    N     N_2   0.699558 0.657744 0.880443 -0.373698
H13   H     H_    0.675325 0.749295 0.896682 0.221108
C18   C     C_3   0.862447 0.631536 0.920144 -0.707021
H14   H     H_    0.931443 0.689048 0.855705 0.229454
H15   H     H_    0.886143 0.532835 0.900358 0.240084
H16   H     H_    0.899751 0.653316 0.033850 0.195989

loop_
_geom_bond_atom_site_label_1
_geom_bond_atom_site_label_2
_ccdc_geom_bond_type
C16   N2    A    
C8    H4    S    
N4    H13   S    
C4    O8    A    
C13   N2    A    
N3    H9    S    
C5    H1    S    
Cu1   O8    S    
C14   N1    A    
C6    H2    S    
Cu2   O7    S    
C15   N1    A    
C3    O7    A    
C2    O2    A    
C1    O1    A    
Cu1   Cu2   S    
Cu2   N2    S    
N4    C18   S    
C18   H14   S    
C9    C11   A    
C7    C12   A    
C1    C12   S    
Cu1   O5    S    
Cu2   O6    S    
C8    C11   A    
Cu2   O2    S    
C2    C11   S    
C10   C12   A    
C2    O4    A    
C17   H12   S    
C14   C16   A    
C13   C15   A    
C16   H8    S    
C5    C6    D    
N3    C17   S    
C4    O6    A    
C15   H7    S    
C4    C6    S    
C3    O5    A    
Cu1   N1    S    
C1    O3    A    
Cu1   O1    S    
C17   H11   S    
C18   H15   S    
C17   H10   S    
C7    C9    A    
Cu1   O4    S    
C9    H5    S    
Cu2   O3    S    
C18   H16   S    
C10   H6    S    
C7    H3    S    
C13   N3    S    
C8    C10   A    
C14   N4    S    
C3    C5    S    
