data_mof_unit_44914.cif
_audit_creation_date              2012-12-10T18:33:40-0500
_audit_creation_method            fapswitch 2.2
_symmetry_space_group_name_H-M    P1
_symmetry_Int_Tables_number       1
_space_group_crystal_system       triclinic
_cell_length_a                    10.504236
_cell_length_b                    14.901866
_cell_length_c                    15.484006
_cell_angle_alpha                 81.393605
_cell_angle_beta                  90.145434
_cell_angle_gamma                 102.317551
_cell_volume                      2340.21184274

loop_
_atom_site_label
_atom_site_type_symbol
_atom_type_description
_atom_site_fract_x
_atom_site_fract_y
_atom_site_fract_z
_atom_type_partial_charge
C1    C     C_R   0.477872 0.441692 0.662042 0.849179
C2    C     C_R   0.516284 0.558637 0.338002 0.856872
C3    C     C_R   0.484648 0.469878 0.812918 -0.256997
C4    C     C_R   0.460454 0.534949 0.188505 -0.271806
C5    C     C_R   0.426725 0.455940 0.896131 0.094738
C6    C     C_R   0.465474 0.563575 0.098361 0.094354
C7    C     C_R   0.340174 0.369958 0.925425 0.179053
C8    C     C_R   0.531576 0.655631 0.065318 0.179702
C9    C     C_R   0.454566 0.524953 0.951080 0.067492
C10   C     C_R   0.415962 0.500483 0.040330 0.070465
C11   C     C_R   0.330004 0.413840 0.068452 -0.230955
C12   C     C_R   0.516657 0.618105 0.919199 -0.234867
C13   C     C_R   0.290817 0.350503 0.011127 -0.243398
C14   C     C_R   0.551562 0.682903 0.975558 -0.243465
C15   C     C_R   0.705966 0.837940 0.634127 -0.326369
C16   C     C_R   0.366662 0.178824 0.332834 -0.315439
C17   C     C_R   0.658437 0.747884 0.617999 -0.088220
C18   C     C_R   0.364142 0.256659 0.371418 -0.082917
C19   C     C_R   0.534309 0.801338 0.500150 0.525138
C20   C     C_R   0.488684 0.204713 0.489744 0.534644
C21   C     C_R   0.586633 0.895532 0.509798 -0.127894
C22   C     C_R   0.502913 0.127028 0.450167 -0.127128
C23   C     C_R   0.741687 0.499048 0.500508 0.853147
C24   C     C_R   0.257628 0.499704 0.501796 0.844455
C25   C     C_R   0.669189 0.912018 0.580931 0.140217
C26   C     C_R   0.436658 0.114115 0.371423 0.133050
C27   C     C_R   0.552908 0.972960 0.456194 0.072734
C28   C     C_R   0.573794 0.059623 0.487268 0.078377
C29   C     C_R   0.665914 0.075228 0.552817 -0.194533
C30   C     C_R   0.499805 0.967505 0.372983 -0.196995
C31   C     C_R   0.713833 0.002414 0.598359 -0.226080
C32   C     C_R   0.442210 0.037175 0.331334 -0.217125
C33   C     C_3   0.937114 0.423876 0.466986 -0.126067
C34   C     C_3   0.059726 0.571266 0.538690 -0.136224
C35   C     C_3   0.017659 0.418749 0.550476 -0.161669
C36   C     C_3   0.979791 0.576444 0.455036 -0.177134
C37   C     C_3   0.121744 0.499242 0.503884 0.030266
C38   C     C_3   0.876018 0.496525 0.501511 0.033174
C39   C     C_3   0.043774 0.504162 0.420463 -0.196203
C40   C     C_3   0.953197 0.490952 0.584974 -0.185530
C41   C     C_R   0.442336 0.408461 0.754126 -0.057716
C42   C     C_R   0.516879 0.595408 0.245225 -0.054211
C43   C     C_R   0.302649 0.305411 0.867829 -0.208359
C44   C     C_R   0.580616 0.718264 0.122775 -0.217281
C45   C     C_R   0.349962 0.326258 0.781472 -0.214871
C46   C     C_R   0.573144 0.688248 0.212639 -0.182738
H1    H     H_    0.037573 0.354703 0.589582 0.132274
H2    H     H_    0.957761 0.639570 0.415617 0.139956
H3    H     H_    0.318130 0.310288 0.338794 0.151167
H4    H     H_    0.690102 0.690485 0.656825 0.153918
H5    H     H_    0.771335 0.849622 0.687523 0.151687
H6    H     H_    0.317494 0.170644 0.271970 0.153379
H7    H     H_    0.705253 0.143648 0.568381 0.203525
H8    H     H_    0.502961 0.910088 0.338642 0.199366
H9    H     H_    0.882873 0.363768 0.437818 0.147192
H10   H     H_    0.108018 0.629876 0.571533 0.128594
H11   H     H_    0.085249 0.509905 0.353469 0.131900
H12   H     H_    0.911415 0.485367 0.651853 0.129722
H13   H     H_    0.223216 0.285520 0.034367 0.141947
H14   H     H_    0.599518 0.753516 0.949041 0.143305
H15   H     H_    0.419511 0.463708 0.215600 0.155082
H16   H     H_    0.561633 0.529852 0.791656 0.145510
H17   H     H_    0.615251 0.736464 0.256137 0.165352
H18   H     H_    0.311308 0.279862 0.735927 0.150147
H19   H     H_    0.233192 0.240684 0.888628 0.131698
H20   H     H_    0.628907 0.789292 0.098097 0.134418
H21   H     H_    0.287162 0.394830 0.133661 0.140206
H22   H     H_    0.535728 0.643428 0.850411 0.149239
H23   H     H_    0.782016 0.016393 0.649849 0.138676
H24   H     H_    0.397977 0.029240 0.268826 0.142095
N1    N     N_R   0.574200 0.731700 0.552740 -0.130475
N2    N     N_R   0.425800 0.268300 0.447260 -0.135999
O1    O     O_R   0.462600 0.383110 0.605620 -0.577456
O2    O     O_R   0.537400 0.616890 0.394380 -0.572512
O3    O     O_R   0.510210 0.531900 0.639510 -0.630206
O4    O     O_R   0.489790 0.468100 0.360490 -0.628426
O5    O     O_R   0.662240 0.425610 0.483080 -0.589788
O6    O     O_R   0.337760 0.574390 0.516920 -0.599606
O7    O     O_R   0.709860 0.574400 0.516970 -0.627430
O8    O     O_R   0.290140 0.425600 0.483030 -0.630563
Zn1   Zn    Zn3+2 0.468210 0.400660 0.477370 0.967521
Zn2   Zn    Zn3+2 0.531790 0.599340 0.522630 0.966471
O9    O     O_3   0.537745 0.218848 0.570370 -0.609130
C47   C     C_3   0.448181 0.164207 0.635441 0.091264
H25   H     H_    0.419593 0.090200 0.625098 0.123805
H26   H     H_    0.358533 0.192470 0.636006 0.138934
C48   C     C_3   0.510946 0.165647 0.724048 -0.825702
H27   H     H_    0.549260 0.238339 0.734866 0.269925
H28   H     H_    0.437938 0.130105 0.776658 0.204958
H29   H     H_    0.592973 0.129129 0.726959 0.242678
O10   O     O_3   0.441866 0.777204 0.439590 -0.609896
C49   C     C_3   0.319568 0.784998 0.471599 0.103789
H30   H     H_    0.321229 0.854411 0.490483 0.124875
H31   H     H_    0.288134 0.732311 0.530130 0.149096
C50   C     C_3   0.220790 0.770834 0.400414 -0.823712
H32   H     H_    0.214282 0.701518 0.380484 0.263950
H33   H     H_    0.123968 0.776269 0.424914 0.200845
H34   H     H_    0.250852 0.825111 0.342519 0.247573

loop_
_geom_bond_atom_site_label_1
_geom_bond_atom_site_label_2
_ccdc_geom_bond_type
C25   C31   A    
C38   C40   S    
C48   H27   S    
C33   H9    S    
C34   C37   S    
C44   H20   S    
C50   H32   S    
C47   C48   S    
C35   H1    S    
C50   H34   S    
C34   H10   S    
C12   H22   S    
C33   C39   S    
C29   H7    S    
C34   C40   S    
C28   C29   A    
C35   C37   S    
C47   H26   S    
C15   C25   A    
C39   H11   S    
C42   C46   A    
C19   N1    A    
C24   O8    A    
C11   H21   S    
C7    C43   A    
C9    C10   A    
N2    Zn1   S    
C2    O2    A    
N1    Zn2   S    
C21   C27   A    
C22   C28   A    
C27   C30   A    
C18   N2    A    
O2    Zn2   S    
O1    Zn1   S    
C44   C46   A    
C16   C26   A    
C37   C39   S    
C40   H12   S    
C1    O3    A    
C8    C44   A    
C47   H25   S    
C4    C6    A    
O10   C49   S    
C5    C7    A    
C26   C32   A    
C6    C8    A    
C4    H15   S    
C49   C50   S    
O4    Zn1   S    
C5    C9    A    
C30   H8    S    
O6    Zn2   S    
C31   H23   S    
O9    C47   S    
O5    Zn1   S    
C43   H19   S    
C49   H31   S    
C24   C37   S    
C23   O5    A    
C43   C45   A    
C1    C41   S    
C20   C22   A    
C17   N1    A    
C15   H5    S    
C48   H28   S    
C20   O9    S    
C2    O4    A    
C3    H16   S    
C24   O6    A    
C15   C17   A    
C21   C25   A    
C3    C41   A    
C8    C14   A    
C19   C21   A    
C36   C39   S    
C16   H6    S    
C12   C14   A    
O8    Zn1   S    
C3    C5    A    
C17   H4    S    
C6    C10   A    
O7    Zn2   S    
C32   H24   S    
C50   H33   S    
O3    Zn2   S    
C13   H13   S    
C23   C38   S    
C14   H14   S    
C45   H18   S    
C33   C38   S    
C46   H17   S    
C1    O1    A    
C36   C38   S    
C35   C40   S    
C29   C31   A    
C30   C32   A    
C11   C13   A    
C4    C42   A    
C2    C42   S    
C49   H30   S    
C33   C35   S    
C36   H2    S    
C34   C36   S    
C9    C12   A    
C19   O10   S    
C10   C11   A    
C7    C13   A    
C16   C18   A    
C22   C26   A    
C48   H29   S    
C27   C28   A    
C41   C45   A    
C20   N2    A    
C23   O7    A    
C18   H3    S    
