data_mof_unit_58794.cif
_audit_creation_date              2012-12-10T18:09:37-0500
_audit_creation_method            fapswitch 2.2
_symmetry_space_group_name_H-M    P1
_symmetry_Int_Tables_number       1
_space_group_crystal_system       triclinic
_cell_length_a                    15.17883
_cell_length_b                    15.155299
_cell_length_c                    9.421435
_cell_angle_alpha                 89.991199
_cell_angle_beta                  89.997475
_cell_angle_gamma                 89.999441
_cell_volume                      2167.30412028

loop_
_atom_site_label
_atom_site_type_symbol
_atom_type_description
_atom_site_fract_x
_atom_site_fract_y
_atom_site_fract_z
_atom_type_partial_charge
C1    C     C_R   0.120203 0.379900 0.499790 0.758858
C2    C     C_R   0.120221 0.620082 0.500207 0.758885
C3    C     C_R   0.620206 0.879903 0.499790 0.758853
C4    C     C_R   0.620230 0.120072 0.500207 0.758875
C5    C     C_3   0.092222 0.500012 0.083701 -0.253050
C6    C     C_3   0.092222 0.500006 0.916286 -0.253078
C7    C     C_3   0.592222 0.000011 0.083701 -0.253056
C8    C     C_3   0.592222 0.000005 0.916286 -0.253087
C9    C     C_R   0.880044 0.379817 0.500220 0.759544
C10   C     C_R   0.880020 0.620160 0.499783 0.759591
C11   C     C_R   0.380034 0.879826 0.500219 0.759533
C12   C     C_R   0.380017 0.120157 0.499783 0.759586
C13   C     C_3   0.786311 0.285088 0.655626 -0.365344
C14   C     C_3   0.844696 0.227164 0.423173 -0.344509
C15   C     C_3   0.844810 0.772955 0.576190 -0.344679
C16   C     C_3   0.785950 0.714541 0.344376 -0.365795
C17   C     C_3   0.286165 0.785234 0.655627 -0.365531
C18   C     C_3   0.344742 0.727117 0.423424 -0.344570
C19   C     C_3   0.344825 0.272971 0.576105 -0.344692
C20   C     C_3   0.285901 0.214492 0.344376 -0.365860
C21   C     C_3   0.214900 0.713788 0.655624 -0.362119
C22   C     C_3   0.272744 0.655179 0.423317 -0.405862
C23   C     C_3   0.272828 0.344912 0.576200 -0.405910
C24   C     C_3   0.214632 0.285933 0.344374 -0.361760
C25   C     C_3   0.715049 0.213639 0.655622 -0.362323
C26   C     C_3   0.772696 0.155227 0.423061 -0.405835
C27   C     C_3   0.772812 0.844896 0.576286 -0.405906
C28   C     C_3   0.714681 0.785983 0.344374 -0.361830
C29   C     C_3   0.727168 0.345082 0.425040 -0.406337
C30   C     C_3   0.727280 0.655035 0.575599 -0.406296
C31   C     C_3   0.227213 0.845037 0.424789 -0.406319
C32   C     C_3   0.227295 0.155050 0.575683 -0.406291
C33   C     C_3   0.811096 0.310815 0.500981 0.140975
C34   C     C_3   0.811055 0.689144 0.499024 0.141160
C35   C     C_3   0.311079 0.810832 0.500980 0.141064
C36   C     C_3   0.311049 0.189138 0.499024 0.141185
C37   C     C_3   0.189234 0.689009 0.500966 0.137252
C38   C     C_3   0.189203 0.310962 0.499030 0.137049
C39   C     C_3   0.689250 0.188992 0.500967 0.137363
C40   C     C_3   0.689209 0.810967 0.499030 0.137093
C41   C     C_3   0.155210 0.773109 0.424906 -0.345092
C42   C     C_3   0.155293 0.226980 0.575569 -0.344955
C43   C     C_3   0.655164 0.273156 0.425162 -0.345161
C44   C     C_3   0.655278 0.726964 0.575484 -0.344971
C45   C     C_3   0.955641 0.578821 0.083777 0.466709
C46   C     C_3   0.955656 0.578838 0.916166 0.466232
C47   C     C_3   0.955674 0.421153 0.083840 0.466171
C48   C     C_3   0.955658 0.421169 0.916229 0.466750
C49   C     C_3   0.455642 0.078822 0.083777 0.466707
C50   C     C_3   0.455657 0.078838 0.916166 0.466240
C51   C     C_3   0.455672 0.921154 0.083840 0.466196
C52   C     C_3   0.455658 0.921170 0.916229 0.466735
Cu1   Cu    Cu3+1 0.000100 0.500000 0.642410 0.990775
Cu2   Cu    Cu3+1 0.000100 0.500000 0.357590 0.990777
Cu3   Cu    Cu3+1 0.500100 0.000000 0.642410 0.990783
Cu4   Cu    Cu3+1 0.500100 0.000000 0.357590 0.990785
H1    H     H_    0.761586 0.343910 0.714212 0.163222
H2    H     H_    0.862799 0.243438 0.311706 0.208990
H3    H     H_    0.863139 0.756912 0.687645 0.208903
H4    H     H_    0.761119 0.655586 0.286259 0.163009
H5    H     H_    0.261397 0.844109 0.714030 0.163132
H6    H     H_    0.362938 0.743301 0.311962 0.208952
H7    H     H_    0.363186 0.256958 0.687557 0.208893
H8    H     H_    0.261055 0.155519 0.286324 0.162978
H9    H     H_    0.845397 0.260103 0.713044 0.209916
H10   H     H_    0.904978 0.201574 0.476419 0.152968
H11   H     H_    0.904984 0.798431 0.522474 0.153002
H12   H     H_    0.844912 0.739417 0.286502 0.210042
H13   H     H_    0.345201 0.760292 0.713226 0.209956
H14   H     H_    0.404981 0.701572 0.476855 0.152981
H15   H     H_    0.404985 0.298431 0.522326 0.153013
H16   H     H_    0.344847 0.239353 0.286443 0.210056
H17   H     H_    0.156155 0.738410 0.714352 0.212193
H18   H     H_    0.256552 0.637111 0.311808 0.173749
H19   H     H_    0.256798 0.363165 0.687693 0.173637
H20   H     H_    0.155791 0.261217 0.286009 0.212114
H21   H     H_    0.656356 0.238209 0.714542 0.212245
H22   H     H_    0.756413 0.137257 0.311545 0.173816
H23   H     H_    0.756752 0.863116 0.687782 0.173656
H24   H     H_    0.655859 0.761284 0.285943 0.212130
H25   H     H_    0.702105 0.405226 0.479543 0.145095
H26   H     H_    0.742757 0.363791 0.313569 0.172641
H27   H     H_    0.743094 0.636560 0.687086 0.172808
H28   H     H_    0.702107 0.594779 0.521555 0.145055
H29   H     H_    0.202104 0.905225 0.479111 0.145070
H30   H     H_    0.242893 0.863654 0.313312 0.172701
H31   H     H_    0.243141 0.136607 0.687171 0.172827
H32   H     H_    0.202108 0.094779 0.521699 0.145039
H33   H     H_    0.095245 0.798394 0.479448 0.152663
H34   H     H_    0.136447 0.757485 0.313489 0.210484
H35   H     H_    0.136704 0.242781 0.686999 0.210614
H36   H     H_    0.095243 0.201614 0.521377 0.152615
H37   H     H_    0.595248 0.298396 0.479894 0.152685
H38   H     H_    0.636302 0.257624 0.313754 0.210430
H39   H     H_    0.636656 0.742734 0.686912 0.210597
H40   H     H_    0.595243 0.701613 0.521230 0.152629
H41   H     H_    0.885883 0.579306 0.119907 -0.007610
H42   H     H_    0.885901 0.579397 0.879951 -0.003694
H43   H     H_    0.885919 0.420579 0.120065 -0.003668
H44   H     H_    0.885901 0.420671 0.880110 -0.007627
H45   H     H_    0.385884 0.079309 0.119907 -0.007611
H46   H     H_    0.385901 0.079398 0.879951 -0.003704
H47   H     H_    0.385917 0.920582 0.120064 -0.003682
H48   H     H_    0.385900 0.920672 0.880109 -0.007620
H49   H     H_    0.129314 0.558511 0.122205 0.197766
H50   H     H_    0.129290 0.558519 0.877807 0.196073
H51   H     H_    0.129303 0.441508 0.122176 0.196062
H52   H     H_    0.129328 0.441516 0.877775 0.197773
H53   H     H_    0.629315 0.058509 0.122205 0.197761
H54   H     H_    0.629290 0.058518 0.877807 0.196078
H55   H     H_    0.629302 0.941505 0.122175 0.196063
H56   H     H_    0.629328 0.941514 0.877774 0.197771
N1    N     N_3   0.001260 0.500000 0.143650 -0.246339
N2    N     N_3   0.001260 0.500000 0.856350 -0.246352
N3    N     N_3   0.501260 0.000000 0.143650 -0.246344
N4    N     N_3   0.501260 0.000000 0.856350 -0.246354
O1    O     O_R   0.091250 0.408820 0.620260 -0.554783
O2    O     O_R   0.091250 0.408820 0.379740 -0.557683
O3    O     O_R   0.091250 0.591180 0.620260 -0.557678
O4    O     O_R   0.091250 0.591180 0.379740 -0.554762
O5    O     O_R   0.591250 0.908820 0.620260 -0.554780
O6    O     O_R   0.591250 0.908820 0.379740 -0.557685
O7    O     O_R   0.591250 0.091180 0.620260 -0.557673
O8    O     O_R   0.591250 0.091180 0.379740 -0.554751
O9    O     O_R   0.908940 0.408800 0.620260 -0.569754
O10   O     O_R   0.908940 0.408800 0.379740 -0.567719
O11   O     O_R   0.908940 0.591200 0.620260 -0.567657
O12   O     O_R   0.908940 0.591200 0.379740 -0.569710
O13   O     O_R   0.408940 0.908800 0.620260 -0.569748
O14   O     O_R   0.408940 0.908800 0.379740 -0.567708
O15   O     O_R   0.408940 0.091200 0.620260 -0.567655
O16   O     O_R   0.408940 0.091200 0.379740 -0.569712
H57   H     H_    0.239949 0.654596 0.712903 0.162649
H58   H     H_    0.298106 0.594725 0.476580 0.144807
H59   H     H_    0.298111 0.405277 0.522573 0.144841
H60   H     H_    0.239594 0.345031 0.286746 0.162846
H61   H     H_    0.740146 0.154396 0.712712 0.162549
H62   H     H_    0.798101 0.094726 0.476131 0.144778
H63   H     H_    0.798110 0.905277 0.522724 0.144825
H64   H     H_    0.739659 0.845097 0.286807 0.162808
F1    F     F_    0.994239 0.655458 0.134861 -0.616612
F2    F     F_    0.994308 0.655463 0.865098 -0.616952
F3    F     F_    0.994343 0.344535 0.134901 -0.617006
F4    F     F_    0.994271 0.344540 0.865137 -0.616667
F5    F     F_    0.494241 0.155458 0.134861 -0.616592
F6    F     F_    0.494309 0.155463 0.865097 -0.616933
F7    F     F_    0.494339 0.844535 0.134902 -0.616988
F8    F     F_    0.494270 0.844540 0.865138 -0.616647

loop_
_geom_bond_atom_site_label_1
_geom_bond_atom_site_label_2
_ccdc_geom_bond_type
C16   C28   S    
C45   F1    S    
Cu3   Cu4   S    
Cu3   O5    S    
C17   H13   S    
C31   H29   S    
C12   O15   A    
Cu2   O4    S    
C19   H15   S    
C28   H64   S    
C13   C25   S    
C14   C33   S    
C18   H14   S    
C7    C8    S    
C46   F2    S    
C5    H49   S    
C45   C46   S    
C29   H25   S    
Cu2   O10   S    
C48   F4    S    
C26   H22   S    
C22   H58   S    
C25   H21   S    
C32   C36   S    
C38   C42   S    
C27   H23   S    
C19   C36   S    
C8    H56   S    
C49   H45   S    
C5    C6    S    
Cu1   O1    S    
C26   C39   S    
C10   O12   A    
C13   H1    S    
Cu3   N4    S    
C28   C40   S    
C51   H47   S    
C32   H32   S    
Cu2   N1    S    
C21   H17   S    
C43   H38   S    
C47   H43   S    
C4    O8    A    
C42   H35   S    
C16   H4    S    
C7    N3    S    
C30   H27   S    
C6    N2    S    
Cu1   O11   S    
C16   C34   S    
C20   C24   S    
C29   C33   S    
C19   H7    S    
Cu3   O13   S    
C24   C38   S    
C16   H12   S    
C12   C36   S    
C12   O16   A    
C18   C35   S    
C15   C34   S    
C42   H36   S    
C3    O6    A    
C17   H5    S    
C24   H60   S    
C41   H34   S    
C46   H42   S    
C52   F8    S    
C31   H30   S    
C29   C43   S    
C9    C33   S    
C30   C44   S    
C14   H2    S    
C11   O13   A    
C21   H57   S    
C52   N4    S    
C6    H50   S    
C48   H44   S    
Cu3   O7    S    
C46   N2    S    
C51   C52   S    
C30   C34   S    
C24   H20   S    
C13   H9    S    
Cu1   Cu2   S    
C32   H31   S    
Cu2   O12   S    
C51   N3    S    
C25   H61   S    
C7    H53   S    
C4    O7    A    
Cu4   O6    S    
C20   H8    S    
C19   C23   S    
C30   H28   S    
C13   C33   S    
C44   H40   S    
C8    H54   S    
C15   C27   S    
C47   C48   S    
C4    C39   S    
C51   F7    S    
C27   C40   S    
C15   H11   S    
C14   H10   S    
C49   F5    S    
C10   C34   S    
C1    O1    A    
C14   C26   S    
Cu4   O16   S    
Cu1   O9    S    
C1    C38   S    
C49   N3    S    
C3    C40   S    
C50   H46   S    
Cu3   O15   S    
Cu2   O2    S    
C31   C35   S    
C22   H18   S    
C10   O11   A    
C11   O14   A    
Cu4   O8    S    
Cu1   N2    S    
C48   N2    S    
C5    H51   S    
C47   N1    S    
C52   H48   S    
C6    H52   S    
C31   C41   S    
C5    N1    S    
C41   H33   S    
C18   C22   S    
C15   H3    S    
C18   H6    S    
C47   F3    S    
C23   H19   S    
C26   H62   S    
C39   C43   S    
C2    O3    A    
Cu1   O3    S    
C23   C38   S    
C9    O10   A    
C23   H59   S    
C11   C35   S    
C29   H26   S    
C44   H39   S    
C45   H41   S    
C25   C39   S    
C22   C37   S    
C2    C37   S    
C50   F6    S    
C43   H37   S    
Cu4   N3    S    
C7    H55   S    
C50   N4    S    
C1    O2    A    
C37   C41   S    
C28   H24   S    
C27   H63   S    
C8    N4    S    
C20   C36   S    
C9    O9    A    
C45   N1    S    
C40   C44   S    
C21   C37   S    
C49   C50   S    
C32   C42   S    
C20   H16   S    
C17   C35   S    
C2    O4    A    
Cu4   O14   S    
C3    O5    A    
C17   C21   S    
