data_mof_unit_39360.cif
_audit_creation_date              2012-12-11T14:10:39-0500
_audit_creation_method            fapswitch 2.2
_symmetry_space_group_name_H-M    P1
_symmetry_Int_Tables_number       1
_space_group_crystal_system       triclinic
_cell_length_a                    20.117105
_cell_length_b                    17.287686
_cell_length_c                    15.723235
_cell_angle_alpha                 90.155255
_cell_angle_beta                  51.591853
_cell_angle_gamma                 89.916809
_cell_volume                      4284.85817653

loop_
_atom_site_label
_atom_site_type_symbol
_atom_type_description
_atom_site_fract_x
_atom_site_fract_y
_atom_site_fract_z
_atom_type_partial_charge
C1    C     C_R   0.387966 0.199720 0.980663 0.489406
C2    C     C_R   0.653544 0.817312 0.964466 0.459273
C3    C     C_R   0.612464 0.199618 0.018856 0.489279
C4    C     C_R   0.346809 0.817451 0.034846 0.461527
C5    C     C_R   0.887966 0.699720 0.980663 0.489406
C6    C     C_R   0.153544 0.317313 0.964466 0.459273
C7    C     C_R   0.112464 0.699618 0.018856 0.489279
C8    C     C_R   0.846809 0.317451 0.034846 0.461527
C9    C     C_3   0.227654 0.208158 0.568942 0.328539
C10   C     C_3   0.669015 0.732279 0.458048 0.358687
C11   C     C_3   0.773715 0.211487 0.426699 0.283440
C12   C     C_3   0.329152 0.732749 0.541743 0.375912
C13   C     C_3   0.727654 0.708158 0.568942 0.328539
C14   C     C_3   0.169015 0.232279 0.458048 0.358687
C15   C     C_3   0.273715 0.711488 0.426699 0.283440
C16   C     C_3   0.829152 0.232749 0.541743 0.375912
C17   C     C_2   0.181945 0.750955 0.090096 0.461073
C18   C     C_2   0.748727 0.284472 0.998695 0.392719
C19   C     C_2   0.818886 0.750824 0.908963 0.458756
C20   C     C_2   0.251316 0.283840 0.000737 0.394459
C21   C     C_2   0.681945 0.250955 0.090096 0.461073
C22   C     C_2   0.248727 0.784472 0.998695 0.392719
C23   C     C_2   0.318886 0.250824 0.908963 0.458756
C24   C     C_2   0.751316 0.783840 0.000737 0.394459
C25   C     C_R   0.400992 0.801081 0.209275 0.495842
C26   C     C_R   0.650586 0.172215 0.775308 0.488906
C27   C     C_R   0.600682 0.801091 0.789305 0.488427
C28   C     C_R   0.346480 0.169149 0.222709 0.449860
C29   C     C_R   0.900992 0.301081 0.209275 0.495842
C30   C     C_R   0.150586 0.672215 0.775308 0.488906
C31   C     C_R   0.100682 0.301092 0.789305 0.488427
C32   C     C_R   0.846480 0.669149 0.222709 0.449860
C33   C     C_R   0.337440 0.903611 0.939064 0.492111
C34   C     C_R   0.624857 0.114804 0.111671 0.525632
C35   C     C_R   0.662504 0.903353 0.061035 0.490932
C36   C     C_R   0.375913 0.114678 0.887466 0.527449
C37   C     C_R   0.837440 0.403611 0.939064 0.492111
C38   C     C_R   0.124857 0.614804 0.111671 0.525632
C39   C     C_R   0.162504 0.403353 0.061035 0.490932
C40   C     C_R   0.875913 0.614678 0.887466 0.527449
C41   C     C_R   0.354853 0.078199 0.315892 0.451113
C42   C     C_R   0.595787 0.892290 0.694884 0.564040
C43   C     C_R   0.640819 0.080985 0.682658 0.497796
C44   C     C_R   0.405698 0.892527 0.304138 0.532045
C45   C     C_R   0.854853 0.578199 0.315892 0.451113
C46   C     C_R   0.095787 0.392290 0.694884 0.564039
C47   C     C_R   0.140819 0.580985 0.682658 0.497797
C48   C     C_R   0.905698 0.392527 0.304138 0.532045
C49   C     C_R   0.361012 0.189948 0.921480 -0.262556
C50   C     C_R   0.700556 0.838877 0.996046 -0.243444
C51   C     C_R   0.640349 0.189811 0.076990 -0.255461
C52   C     C_R   0.299619 0.839225 0.003530 -0.246184
C53   C     C_R   0.861012 0.689949 0.921480 -0.262556
C54   C     C_R   0.200556 0.338877 0.996046 -0.243444
C55   C     C_R   0.140349 0.689811 0.076990 -0.255461
C56   C     C_R   0.799619 0.339225 0.003530 -0.246184
C57   C     C_R   0.383063 0.818480 0.306421 0.005259
C58   C     C_R   0.692810 0.138521 0.673029 -0.049715
C59   C     C_R   0.620358 0.818422 0.691129 -0.008623
C60   C     C_R   0.302101 0.133994 0.323980 0.032589
C61   C     C_R   0.883063 0.318480 0.306421 0.005259
C62   C     C_R   0.192810 0.638521 0.673029 -0.049715
C63   C     C_R   0.120358 0.318422 0.691129 -0.008623
C64   C     C_R   0.802101 0.633994 0.323980 0.032589
C65   C     C_3   0.186826 0.146210 0.544324 0.398575
C66   C     C_3   0.710211 0.794145 0.482251 0.386400
C67   C     C_3   0.812180 0.148102 0.452925 0.310488
C68   C     C_3   0.290654 0.796177 0.515678 0.390838
C69   C     C_3   0.686826 0.646210 0.544324 0.398575
C70   C     C_3   0.210211 0.294145 0.482251 0.386401
C71   C     C_3   0.312180 0.648102 0.452925 0.310487
C72   C     C_3   0.790653 0.296177 0.515678 0.390838
C73   C     C_3   0.615824 0.704025 0.576671 0.345164
C74   C     C_3   0.280317 0.237211 0.452013 0.273216
C75   C     C_3   0.383572 0.703947 0.422908 0.392823
C76   C     C_3   0.720015 0.241309 0.543704 0.263619
C77   C     C_3   0.115824 0.204025 0.576671 0.345164
C78   C     C_3   0.780317 0.737211 0.452013 0.273217
C79   C     C_3   0.883572 0.203947 0.422908 0.392823
C80   C     C_3   0.220015 0.741309 0.543704 0.263619
C81   C     C_3   0.657254 0.765628 0.600014 -0.430077
C82   C     C_3   0.239967 0.175093 0.426244 -0.413891
C83   C     C_3   0.344609 0.766931 0.397846 -0.407416
C84   C     C_3   0.757607 0.177621 0.571203 -0.434322
C85   C     C_3   0.157254 0.265628 0.600014 -0.430078
C86   C     C_3   0.739967 0.675092 0.426244 -0.413891
C87   C     C_3   0.844609 0.266931 0.397846 -0.407416
C88   C     C_3   0.257607 0.677621 0.571203 -0.434322
N1    N     N_R   0.408680 0.130810 0.995780 -0.140116
N2    N     N_R   0.591320 0.869190 0.004220 -0.126570
N3    N     N_R   0.591320 0.130810 0.004220 -0.136793
N4    N     N_R   0.408680 0.869190 0.995780 -0.127790
N5    N     N_R   0.908680 0.630810 0.995780 -0.140116
N6    N     N_R   0.091320 0.369190 0.004220 -0.126570
N7    N     N_R   0.091320 0.630810 0.004220 -0.136793
N8    N     N_R   0.908680 0.369190 0.995780 -0.127790
N9    N     N_R   0.421410 0.867210 0.153620 -0.148750
N10   N     N_R   0.578590 0.132790 0.846380 -0.134080
N11   N     N_R   0.578590 0.867210 0.846380 -0.150904
N12   N     N_R   0.421410 0.132790 0.153620 -0.122753
N13   N     N_R   0.921410 0.367210 0.153620 -0.148750
N14   N     N_R   0.078590 0.632790 0.846380 -0.134080
N15   N     N_R   0.078590 0.367210 0.846380 -0.150904
N16   N     N_R   0.921410 0.632790 0.153620 -0.122753
N17   N     N_R   0.403840 0.921910 0.935760 -0.153707
N18   N     N_R   0.596160 0.078090 0.064240 -0.149199
N19   N     N_R   0.596160 0.921910 0.064240 -0.153939
N20   N     N_R   0.403840 0.078090 0.935760 -0.150602
N21   N     N_R   0.903840 0.421910 0.935760 -0.153707
N22   N     N_R   0.096160 0.578090 0.064240 -0.149199
N23   N     N_R   0.096160 0.421910 0.064240 -0.153939
N24   N     N_R   0.903840 0.578090 0.935760 -0.150602
N25   N     N_R   0.426250 0.076100 0.213650 -0.157852
N26   N     N_R   0.573750 0.923900 0.786350 -0.176399
N27   N     N_R   0.573750 0.076100 0.786350 -0.132642
N28   N     N_R   0.426250 0.923900 0.213650 -0.178451
N29   N     N_R   0.926250 0.576100 0.213650 -0.157852
N30   N     N_R   0.073750 0.423900 0.786350 -0.176399
N31   N     N_R   0.073750 0.576100 0.786350 -0.132642
N32   N     N_R   0.926250 0.423900 0.213650 -0.178451
Ni1   Ni    Ni4+2 0.500000 0.131570 0.000000 0.340529
Ni2   Ni    Ni4+2 0.500000 0.868430 0.000000 0.328895
Ni3   Ni    Ni4+2 0.000000 0.631570 0.000000 0.340529
Ni4   Ni    Ni4+2 0.000000 0.368430 0.000000 0.328895
Ni5   Ni    Ni4+2 0.488900 0.000000 0.862310 0.277064
Ni6   Ni    Ni4+2 0.511100 0.000000 0.137690 0.246597
Ni7   Ni    Ni4+2 0.988900 0.500000 0.862310 0.277064
Ni8   Ni    Ni4+2 0.011100 0.500000 0.137690 0.246597
Cl1   Cl    Cl    0.443554 0.284999 0.960681 -0.332177
Cl2   Cl    Cl    0.654837 0.722640 0.923487 -0.369489
Cl3   Cl    Cl    0.555938 0.284950 0.040805 -0.330332
Cl4   Cl    Cl    0.346677 0.722631 0.073889 -0.364729
Cl5   Cl    Cl    0.943554 0.784999 0.960681 -0.332177
Cl6   Cl    Cl    0.154836 0.222640 0.923487 -0.369489
Cl7   Cl    Cl    0.055938 0.784950 0.040805 -0.330332
Cl8   Cl    Cl    0.846677 0.222631 0.073889 -0.364729
Cl9   Cl    Cl    0.452637 0.712708 0.147166 -0.325556
Cl10  Cl    Cl    0.669428 0.266684 0.795593 -0.344680
Cl11  Cl    Cl    0.549471 0.712679 0.849639 -0.329276
Cl12  Cl    Cl    0.327264 0.264347 0.205281 -0.347485
Cl13  Cl    Cl    0.952637 0.212708 0.147166 -0.325556
Cl14  Cl    Cl    0.169428 0.766684 0.795593 -0.344680
Cl15  Cl    Cl    0.049471 0.212679 0.849639 -0.329276
Cl16  Cl    Cl    0.827264 0.764347 0.205281 -0.347485
Cl17  Cl    Cl    0.314345 0.940167 0.856440 -0.338050
Cl18  Cl    Cl    0.591667 0.092722 0.241691 -0.387008
Cl19  Cl    Cl    0.684735 0.939024 0.145061 -0.339475
Cl20  Cl    Cl    0.410607 0.091807 0.756717 -0.353018
Cl21  Cl    Cl    0.814345 0.440167 0.856440 -0.338051
Cl22  Cl    Cl    0.091667 0.592722 0.241691 -0.387008
Cl23  Cl    Cl    0.184735 0.439024 0.145061 -0.339475
Cl24  Cl    Cl    0.910607 0.591807 0.756717 -0.353018
O1    O     O_3   0.348062 0.051356 0.402927 -0.621220
H1    H     H_    0.405219 0.055783 0.382927 0.381829
O2    O     O_3   0.562238 0.914394 0.644561 -0.580285
H2    H     H_    0.522672 0.957905 0.687173 0.379539
O3    O     O_3   0.643546 0.047115 0.601598 -0.641098
H3    H     H_    0.665619 0.085459 0.543453 0.389622
O4    O     O_3   0.440884 0.914298 0.352501 -0.606746
H4    H     H_    0.485623 0.952593 0.304138 0.348147
O5    O     O_3   0.848062 0.551356 0.402927 -0.621220
H5    H     H_    0.905219 0.555783 0.382927 0.381829
O6    O     O_3   0.062238 0.414394 0.644561 -0.580285
H6    H     H_    0.022672 0.457905 0.687173 0.379539
O7    O     O_3   0.143546 0.547115 0.601598 -0.641100
H7    H     H_    0.165619 0.585459 0.543453 0.389622
O8    O     O_3   0.940884 0.414298 0.352501 -0.606746
H8    H     H_    0.985623 0.452593 0.304138 0.348147
Cl25  Cl    Cl    0.505677 0.682138 0.663048 -0.278740
Cl26  Cl    Cl    0.390078 0.262067 0.373609 -0.334383
Cl27  Cl    Cl    0.493302 0.679653 0.338659 -0.278618
Cl28  Cl    Cl    0.610969 0.268909 0.620012 -0.330201
Cl29  Cl    Cl    0.005677 0.182138 0.663048 -0.278740
Cl30  Cl    Cl    0.890078 0.762067 0.373609 -0.334383
Cl31  Cl    Cl    0.993302 0.179653 0.338659 -0.278618
Cl32  Cl    Cl    0.110969 0.768909 0.620012 -0.330201
Cl33  Cl    Cl    0.162403 0.049214 0.591990 -0.243781
Cl34  Cl    Cl    0.731869 0.890012 0.430082 -0.222270
Cl35  Cl    Cl    0.836533 0.050873 0.404529 -0.274962
Cl36  Cl    Cl    0.270860 0.892125 0.568202 -0.217008
Cl37  Cl    Cl    0.662403 0.549214 0.591990 -0.243781
Cl38  Cl    Cl    0.231869 0.390012 0.430082 -0.222270
Cl39  Cl    Cl    0.336533 0.550873 0.404529 -0.274962
Cl40  Cl    Cl    0.770860 0.392125 0.568202 -0.217007
Cl41  Cl    Cl    0.271352 0.190146 0.636974 -0.266624
Cl42  Cl    Cl    0.621642 0.748595 0.394732 -0.246280
Cl43  Cl    Cl    0.731219 0.195373 0.356738 -0.295648
Cl44  Cl    Cl    0.374868 0.746503 0.607572 -0.251270
Cl45  Cl    Cl    0.771352 0.690146 0.636974 -0.266624
Cl46  Cl    Cl    0.121642 0.248595 0.394732 -0.246280
Cl47  Cl    Cl    0.231219 0.695373 0.356738 -0.295648
Cl48  Cl    Cl    0.874868 0.246503 0.607572 -0.251270
Cl49  Cl    Cl    0.138687 0.784409 0.221656 -0.345140
Cl50  Cl    Cl    0.797383 0.245130 0.867914 -0.404303
Cl51  Cl    Cl    0.862551 0.784679 0.777768 -0.348777
Cl52  Cl    Cl    0.201764 0.243505 0.130871 -0.407549
Cl53  Cl    Cl    0.638687 0.284409 0.221656 -0.345140
Cl54  Cl    Cl    0.297383 0.745130 0.867914 -0.404303
Cl55  Cl    Cl    0.362551 0.284679 0.777768 -0.348777
Cl56  Cl    Cl    0.701764 0.743505 0.130871 -0.407549

loop_
_geom_bond_atom_site_label_1
_geom_bond_atom_site_label_2
_ccdc_geom_bond_type
C68   C80   S    
N10   Ni1   S    
C19   Cl51  S    
O3    H3    S    
C23   Cl55  S    
C36   N20   A    
C18   C21   D    
N2    Ni2   S    
C17   Cl49  S    
O6    H6    S    
C8    N8    A    
C7    C55   A    
C72   C76   S    
C75   C83   S    
C78   C86   S    
C76   C84   S    
C47   C62   A    
C79   C87   S    
O5    H5    S    
C48   C61   A    
C40   N24   A    
N16   Ni3   S    
C33   C52   A    
C5    Cl5   S    
C12   C68   S    
C27   N11   A    
C34   C51   A    
O7    H7    S    
N1    Ni1   S    
C4    C52   A    
C11   Cl43  S    
C24   Cl56  S    
C5    C53   A    
C74   C82   S    
N2    N19   A    
C1    Cl1   S    
C11   C76   S    
N31   Ni7   S    
C47   O7    S    
C10   C73   S    
C23   C49   S    
C39   C54   A    
C8    Cl8   S    
C45   N29   A    
C12   Cl44  S    
C39   Cl23  S    
N6    N23   A    
C16   C84   S    
C13   Cl45  S    
C46   N30   A    
C3    N3    A    
N12   Ni1   S    
C14   C77   S    
C64   C86   S    
C2    N2    A    
C45   O5    S    
N24   Ni7   S    
C28   Cl12  S    
C61   C87   S    
C43   C58   A    
C43   N27   A    
C37   C56   A    
C60   C82   S    
C42   N26   A    
C38   C55   A    
O4    H4    S    
C11   C87   S    
C6    N6    A    
C16   C72   S    
C70   C74   S    
C77   Cl29  S    
C57   C83   S    
C69   C73   S    
N20   Ni5   S    
C38   N22   A    
C16   Cl48  S    
C17   C55   S    
C37   N21   A    
C18   C56   S    
C9    C85   S    
C28   N12   A    
C47   N31   A    
C77   C85   S    
C67   C84   S    
N28   Ni6   S    
C63   C85   S    
C14   C70   S    
N3    N18   A    
C8    C56   A    
C25   C57   A    
N11   N26   A    
N15   Ni4   S    
C73   C81   S    
C65   C82   S    
C70   Cl38  S    
C41   O1    S    
C10   C66   S    
C24   C50   S    
C66   C78   S    
C29   C61   A    
N13   Ni4   S    
C65   C77   S    
N8    Ni4   S    
C34   N18   A    
C71   Cl39  S    
C33   N17   A    
C18   Cl50  S    
C72   Cl40  S    
C20   C54   S    
C37   Cl21  S    
O8    H8    S    
N26   Ni5   S    
C3    C51   A    
C15   C83   S    
N25   Ni6   S    
C26   Cl10  S    
C62   C88   S    
C68   Cl36  S    
C27   Cl11  S    
C31   N15   A    
C32   C64   A    
C25   Cl9   S    
C36   C49   A    
C7    Cl7   S    
N9    Ni2   S    
C74   Cl26  S    
N4    Ni2   S    
C4    Cl4   S    
C66   Cl34  S    
C15   C80   S    
C2    Cl2   S    
C20   C23   D    
C38   Cl22  S    
C44   C57   A    
C13   C81   S    
C29   Cl13  S    
C30   N14   A    
C35   C50   A    
C32   N16   A    
C29   N13   A    
C35   Cl19  S    
N5    Ni3   S    
N9    N28   A    
C26   C58   A    
C80   Cl32  S    
C28   C60   A    
C33   Cl17  S    
C26   N10   A    
N11   Ni2   S    
C25   N9    A    
N13   N32   A    
C40   Cl24  S    
C6    C54   A    
C46   O6    S    
C30   C62   A    
C2    C50   A    
C75   Cl27  S    
C3    Cl3   S    
C12   C75   S    
N15   N30   A    
N30   Ni7   S    
C11   C67   S    
C73   Cl25  S    
N14   Ni3   S    
C21   C51   S    
C72   C87   S    
C7    N7    A    
C48   N32   A    
C22   C52   S    
N16   N29   A    
N7    Ni3   S    
C15   Cl47  S    
C13   C78   S    
C10   C86   S    
C1    N1    A    
C68   C83   S    
C22   Cl54  S    
N12   N25   A    
C59   C81   S    
C41   C60   A    
C21   Cl53  S    
C43   O3    S    
N7    N22   A    
N27   Ni5   S    
C42   C59   A    
C5    N5    A    
N32   Ni8   S    
N19   Ni6   S    
C31   C63   A    
C15   C71   S    
N8    N21   A    
N18   Ni6   S    
C45   C64   A    
C9    Cl41  S    
C17   C22   D    
C30   Cl14  S    
N17   Ni5   S    
C46   C63   A    
C16   C79   S    
C13   C69   S    
C19   C24   D    
C6    Cl6   S    
C27   C59   A    
C66   C81   S    
C71   C75   S    
C39   N23   A    
C34   Cl18  S    
C79   Cl31  S    
C19   C53   S    
N10   N27   A    
C48   O8    S    
C65   Cl33  S    
C36   Cl20  S    
N1    N20   A    
C41   N25   A    
N23   Ni8   S    
C10   Cl42  S    
N21   Ni7   S    
C42   O2    S    
N3    Ni1   S    
C31   Cl15  S    
C58   C84   S    
N29   Ni8   S    
C9    C65   S    
C32   Cl16  S    
C35   N19   A    
N14   N31   A    
N5    N24   A    
C71   C88   S    
C14   Cl46  S    
N4    N17   A    
C44   N28   A    
C80   C88   S    
C40   C53   A    
C9    C74   S    
C76   Cl28  S    
C69   Cl37  S    
O2    H2    S    
C78   Cl30  S    
C44   O4    S    
C14   C82   S    
C67   Cl35  S    
O1    H1    S    
C70   C85   S    
C1    C49   A    
C20   Cl52  S    
C67   C79   S    
C12   C88   S    
C69   C86   S    
N22   Ni8   S    
C4    N4    A    
N6    Ni4   S    
