data_mof_unit_11008.cif
_audit_creation_date              2012-12-10T16:53:06-0500
_audit_creation_method            fapswitch 2.2
_symmetry_space_group_name_H-M    P1
_symmetry_Int_Tables_number       1
_space_group_crystal_system       triclinic
_cell_length_a                    10.816001
_cell_length_b                    10.947398
_cell_length_c                    9.695995
_cell_angle_alpha                 90.66171
_cell_angle_beta                  89.679117
_cell_angle_gamma                 89.670539
_cell_volume                      1147.96035764

loop_
_atom_site_label
_atom_site_type_symbol
_atom_type_description
_atom_site_fract_x
_atom_site_fract_y
_atom_site_fract_z
_atom_type_partial_charge
C1    C     C_R   0.505220 0.265799 0.499141 0.856498
C2    C     C_R   0.063204 0.598811 0.584899 0.079396
C3    C     C_R   0.129053 0.512798 0.502011 -0.103099
C4    C     C_R   0.067052 0.429859 0.417377 -0.229927
C5    C     C_R   0.939372 0.426564 0.416250 -0.038515
C6    C     C_R   0.871399 0.510123 0.498466 -0.144468
C7    C     C_2   0.504310 0.932939 0.392347 -0.194216
C8    C     C_2   0.477571 0.866239 0.504558 -0.164597
C9    C     C_2   0.492892 0.066291 0.388811 -0.150516
C10   C     C_2   0.522476 0.135158 0.498330 -0.287242
C11   C     C_2   0.426934 0.431857 0.921705 -0.045321
C12   C     C_R   0.262730 0.505750 0.500708 0.794868
C13   C     C_2   0.429080 0.429638 0.077356 -0.047281
C14   C     C_R   0.495304 0.734697 0.500897 0.780308
C15   C     C_R   0.737371 0.502771 0.499571 0.790877
C16   C     C_R   0.123689 0.686023 0.669717 -0.212210
C17   C     C_R   0.055635 0.769212 0.750663 0.034907
C18   C     C_R   0.927368 0.772119 0.741785 -0.179556
C19   C     C_R   0.866371 0.689823 0.656058 -0.181467
C20   C     C_R   0.932477 0.599060 0.580478 0.091195
Cu1   Cu    Cu3+1 0.500020 0.500020 0.638630 0.952807
Cu2   Cu    Cu3+1 0.499980 0.499980 0.361370 0.963792
H1    H     H_    0.119068 0.364338 0.354921 0.152454
H2    H     H_    0.561645 0.095453 0.590419 0.161203
H3    H     H_    0.361317 0.372688 0.869988 0.163186
H4    H     H_    0.563032 0.552990 0.894210 0.196505
H5    H     H_    0.367465 0.366398 0.128276 0.151050
H6    H     H_    0.555231 0.560821 0.106486 0.196270
H7    H     H_    0.223332 0.691024 0.674198 0.158965
H8    H     H_    0.874045 0.838442 0.801289 0.144490
H9    H     H_    0.767131 0.699304 0.649727 0.156126
H10   H     H_    0.534588 0.888157 0.297328 0.175677
H11   H     H_    0.462697 0.107763 0.293359 0.175640
N1    N     N_2   0.498640 0.498660 0.846910 -0.282886
N2    N     N_2   0.498610 0.498630 0.153040 -0.278098
O1    O     O_R   0.500020 0.321960 0.617040 -0.569606
O2    O     O_R   0.499980 0.321920 0.382900 -0.571226
O3    O     O_R   0.319670 0.500020 0.617100 -0.583354
O4    O     O_R   0.319630 0.499980 0.382950 -0.572883
O5    O     O_R   0.500020 0.678080 0.617100 -0.588265
O6    O     O_R   0.499980 0.678040 0.382960 -0.576485
O7    O     O_R   0.680370 0.500020 0.617050 -0.580405
O8    O     O_R   0.680330 0.499980 0.382900 -0.565619
C21   C     C_1   0.116866 0.851469 0.844535 0.252681
N3    N     N_1   0.165119 0.917416 0.920974 -0.255711
C22   C     C_1   0.880382 0.332743 0.333834 0.262441
N4    N     N_1   0.833153 0.257671 0.268058 -0.270520
C23   C     C_1   0.421092 0.918216 0.628168 0.251909
N5    N     N_1   0.376689 0.959961 0.726884 -0.269772

loop_
_geom_bond_atom_site_label_1
_geom_bond_atom_site_label_2
_ccdc_geom_bond_type
C8    C23   S    
C18   H8    S    
C6    C20   A    
C9    C10   D    
Cu2   O8    S    
Cu1   N1    S    
C1    O2    A    
C19   H9    S    
C12   O4    A    
C17   C18   A    
C6    C15   S    
C17   C21   S    
C15   O8    A    
C7    C8    D    
Cu1   O1    S    
Cu1   Cu2   S    
C9    H11   S    
Cu2   N2    S    
C11   C13   S    
Cu1   O7    S    
Cu1   O5    S    
C14   O6    A    
Cu2   O4    S    
C23   N5    T    
C13   N2    D    
H6    N2    S    
C2    C3    A    
C12   O3    A    
C5    C6    A    
C7    H10   S    
Cu2   O6    S    
C16   C17   A    
C11   H3    S    
C14   O5    A    
C3    C4    A    
Cu1   O3    S    
C2    C16   A    
C21   N3    T    
C1    O1    A    
C18   C19   A    
C5    C22   S    
C7    C9    S    
C4    H1    S    
C22   N4    T    
C13   H5    S    
C8    C14   S    
C3    C12   S    
C10   H2    S    
C16   H7    S    
Cu2   O2    S    
C2    C20   A    
H4    N1    S    
C11   N1    D    
C1    C10   S    
C19   C20   A    
C15   O7    A    
C4    C5    A    
