data_mof_unit_64507.cif
_audit_creation_date              2012-12-10T20:02:18-0500
_audit_creation_method            fapswitch 2.2
_symmetry_space_group_name_H-M    P1
_symmetry_Int_Tables_number       1
_space_group_crystal_system       triclinic
_cell_length_a                    18.344978
_cell_length_b                    18.368286
_cell_length_c                    18.381443
_cell_angle_alpha                 120.120677
_cell_angle_beta                  120.435562
_cell_angle_gamma                 89.619733
_cell_volume                      4357.33122551

loop_
_atom_site_label
_atom_site_type_symbol
_atom_type_description
_atom_site_fract_x
_atom_site_fract_y
_atom_site_fract_z
_atom_type_partial_charge
Br1   Br    Br    0.508767 0.959741 0.215463 -0.315106
Br2   Br    Br    0.492781 0.741204 0.084159 -0.371609
Br3   Br    Br    0.847589 0.560827 0.571162 -0.409416
Br4   Br    Br    0.760140 0.825368 0.868489 -0.437454
Br5   Br    Br    0.287611 0.914763 0.781695 -0.290149
Br6   Br    Br    0.358582 0.986607 0.694496 -0.414877
Br7   Br    Br    0.141141 0.258667 0.114945 -0.435210
Br8   Br    Br    0.380737 0.158791 0.424744 -0.387070
Br9   Br    Br    0.265901 0.516452 0.663296 -0.339271
Br10  Br    Br    0.563552 0.182890 0.270750 -0.344756
C1    C     C_R   0.139973 0.139804 0.779926 0.835006
C2    C     C_R   0.709580 0.795154 0.452034 -0.059964
C3    C     C_R   0.869404 0.829020 0.758507 0.183203
C4    C     C_R   0.860012 0.861353 0.220336 0.877669
C5    C     C_R   0.932226 0.852810 0.858283 -0.107363
C6    C     C_R   0.969333 0.791457 0.873558 -0.191496
C7    C     C_R   0.944506 0.705314 0.789320 0.176468
C8    C     C_R   0.880407 0.679249 0.687439 0.274535
C9    C     C_R   0.843081 0.741986 0.671518 -0.015655
C10   C     C_R   0.735317 0.732603 0.052054 0.054047
C11   C     C_R   0.804098 0.810412 0.109215 -0.156978
C12   C     C_R   0.612992 0.782154 0.286955 -0.207135
C13   C     C_R   0.815615 0.837649 0.054692 0.119544
C14   C     C_R   0.759006 0.782982 0.944683 0.220871
C15   C     C_R   0.694953 0.700259 0.890735 -0.131768
C16   C     C_R   0.859880 0.139796 0.499423 0.847537
C17   C     C_R   0.683730 0.679930 0.948113 0.027340
C18   C     C_3   0.633190 0.610410 0.940559 -0.435795
C19   C     C_3   0.692182 0.670948 0.059845 0.008622
C20   C     C_R   0.252505 0.804729 0.582745 -0.019324
C21   C     C_R   0.187363 0.795875 0.492263 -0.135551
C22   C     C_R   0.166894 0.722096 0.396593 0.122175
C23   C     C_R   0.566627 0.818039 0.232338 0.265649
C24   C     C_R   0.221614 0.667159 0.396606 0.131161
C25   C     C_R   0.296227 0.687622 0.492283 -0.139633
C26   C     C_R   0.305640 0.752310 0.582845 -0.047993
C27   C     C_3   0.384773 0.823692 0.690343 0.190233
C28   C     C_R   0.138207 0.858308 0.498288 0.889297
C29   C     C_3   0.324312 0.883250 0.690043 0.374592
C30   C     C_R   0.208566 0.161375 0.947254 0.087595
C31   C     C_R   0.201480 0.194714 0.891398 -0.108293
C32   C     C_R   0.259461 0.279811 0.944235 -0.184976
C33   C     C_R   0.315900 0.334725 0.052380 0.166888
C34   C     C_R   0.573440 0.908321 0.286579 0.307381
C35   C     C_R   0.312194 0.304391 0.108210 -0.099202
C36   C     C_R   0.261531 0.215911 0.053546 0.027491
C37   C     C_3   0.195732 0.176169 0.059852 0.042388
C38   C     C_3   0.137143 0.115759 0.942070 -0.061338
C39   C     C_R   0.213444 0.286888 0.552524 0.021121
C40   C     C_R   0.140249 0.140094 0.500280 0.866925
C41   C     C_R   0.201556 0.196130 0.506156 -0.098436
C42   C     C_R   0.254836 0.161382 0.471856 -0.201138
C43   C     C_R   0.310784 0.214217 0.472992 0.279305
C44   C     C_R   0.312869 0.303522 0.508281 -0.165540
C45   C     C_R   0.657353 0.748459 0.460108 0.143648
C46   C     C_R   0.268734 0.339614 0.554790 0.027737
C47   C     C_3   0.209017 0.394209 0.541048 0.079729
C48   C     C_3   0.147286 0.335498 0.537561 -0.057025
C49   C     C_R   0.825842 0.272756 0.590397 0.025888
C50   C     C_R   0.802879 0.194313 0.498876 -0.123543
C51   C     C_R   0.720037 0.165247 0.406424 -0.212529
C52   C     C_R   0.859255 0.857535 0.497375 0.846429
C53   C     C_R   0.666194 0.219401 0.404262 0.294999
C54   C     C_R   0.693685 0.301879 0.497167 -0.107999
C55   C     C_R   0.770657 0.323940 0.590091 -0.016190
C56   C     C_R   0.696605 0.707953 0.512188 -0.147326
C57   C     C_3   0.847318 0.409023 0.676605 -0.446898
C58   C     C_3   0.908799 0.353094 0.674807 0.310983
C59   C     C_R   0.358388 0.638228 0.498155 0.865297
C60   C     C_R   0.639779 0.359772 0.498405 0.857232
C61   C     C_R   0.639799 0.640107 0.779596 0.869822
C62   C     C_R   0.361816 0.360230 0.219935 0.874950
C63   C     C_R   0.361537 0.359597 0.501320 0.839487
C64   C     C_R   0.626958 0.961901 0.394858 -0.200208
C65   C     C_R   0.640217 0.644963 0.505040 0.885660
C66   C     C_R   0.672345 0.925646 0.449231 -0.134939
C67   C     C_R   0.790299 0.725306 0.567682 0.004527
C68   C     C_R   0.665318 0.835447 0.395424 0.136989
C69   C     C_R   0.838748 0.759377 0.546337 0.149807
C70   C     C_R   0.801174 0.801044 0.495585 -0.163296
H1    H     H_    0.018842 0.811578 0.951607 0.202139
H2    H     H_    0.251690 0.092608 0.442009 0.208093
H3    H     H_    0.180307 0.387691 0.467514 0.160048
H4    H     H_    0.143592 0.371252 0.604761 0.213223
H5    H     H_    0.699957 0.103356 0.334769 0.211582
H6    H     H_    0.850559 0.452542 0.652272 0.254179
H7    H     H_    0.607001 0.712362 0.245040 0.184730
H8    H     H_    0.849153 0.442202 0.747643 0.217002
H9    H     H_    0.953000 0.919649 0.924605 0.211444
H10   H     H_    0.561423 0.605080 0.904981 0.236218
H11   H     H_    0.645754 0.546282 0.906528 0.217390
H12   H     H_    0.654793 0.700652 0.093295 0.184768
H13   H     H_    0.632522 0.031497 0.436959 0.185423
H14   H     H_    0.259918 0.304303 0.901696 0.196613
H15   H     H_    0.223028 0.140688 0.096897 0.195809
H16   H     H_    0.712396 0.967381 0.532937 0.167831
H17   H     H_    0.072995 0.127915 0.904827 0.177049
I1    I     I_    0.014010 0.622892 0.824737 -0.164742
I2    I     I_    0.019769 0.256463 0.389216 -0.205229
I3    I     I_    0.986446 0.378067 0.628105 -0.162911
I4    I     I_    0.987204 0.357102 0.812165 -0.209655
I5    I     I_    0.524448 0.757683 0.410624 -0.171934
I6    I     I_    0.967635 0.741962 0.591001 -0.124751
I7    I     I_    0.821071 0.930825 0.746551 -0.264147
I8    I     I_    0.913061 0.962268 0.136623 -0.182463
I9    I     I_    0.782420 0.614986 0.129210 -0.261866
I10   I     I_    0.053196 0.691932 0.252964 -0.164299
I11   I     I_    0.189490 0.552340 0.253217 -0.120267
I12   I     I_    0.420945 0.781506 0.790867 -0.031053
I13   I     I_    0.500055 0.861963 0.696514 -0.139779
I14   I     I_    0.402507 0.460391 0.121128 -0.186967
I15   I     I_    0.124437 0.978376 0.880754 -0.154486
O1    O     O_3   0.000000 0.000000 0.500000 -0.521798
O2    O     O_R   0.384160 0.323450 0.268320 -0.614977
O3    O     O_R   0.384130 0.444860 0.560610 -0.621918
O4    O     O_R   0.115780 0.055050 0.731580 -0.603591
O5    O     O_R   0.555060 0.615780 0.439210 -0.611533
O6    O     O_R   0.384140 0.323430 0.439180 -0.593349
O7    O     O_R   0.676490 0.615760 0.560640 -0.621578
O8    O     O_R   0.676470 0.615740 0.731500 -0.624929
O9    O     O_R   0.384180 0.444900 0.268330 -0.610024
O10   O     O_R   0.384150 0.615750 0.560620 -0.614236
O11   O     O_R   0.555030 0.323430 0.439190 -0.595353
O12   O     O_R   0.823480 0.055090 0.439280 -0.650209
O13   O     O_R   0.823490 0.884220 0.268410 -0.640752
O14   O     O_R   0.944920 0.176520 0.560720 -0.614197
O15   O     O_R   0.115810 0.884200 0.439290 -0.617177
O16   O     O_R   0.115820 0.176530 0.560730 -0.628314
O17   O     O_R   0.944890 0.884180 0.560700 -0.607897
O18   O     O_R   0.115830 0.055100 0.439300 -0.629394
O19   O     O_R   0.823460 0.884190 0.439270 -0.649343
O20   O     O_R   0.115790 0.884180 0.560710 -0.599645
O21   O     O_R   0.115790 0.176500 0.731590 -0.634813
O22   O     O_R   0.944940 0.884220 0.268420 -0.607885
O23   O     O_3   0.499960 0.499960 0.499910 -0.533543
O24   O     O_R   0.384170 0.615770 0.439200 -0.608164
O25   O     O_R   0.676480 0.444870 0.560630 -0.634522
O26   O     O_R   0.555020 0.615730 0.731490 -0.620846
Zn1   Zn    Zn3+2 0.869870 0.956630 0.413250 0.991613
Zn2   Zn    Zn3+2 0.043380 0.130130 0.586750 1.028709
Zn3   Zn    Zn3+2 0.043390 0.956630 0.413260 1.051908
Zn4   Zn    Zn3+2 0.043360 0.956610 0.586740 1.064743
Zn5   Zn    Zn3+2 0.630090 0.543330 0.586660 1.023358
Zn6   Zn    Zn3+2 0.456570 0.543320 0.586650 1.044129
Zn7   Zn    Zn3+2 0.456580 0.369830 0.413160 1.069598
Zn8   Zn    Zn3+2 0.456590 0.543350 0.413170 1.069158

loop_
_geom_bond_atom_site_label_1
_geom_bond_atom_site_label_2
_ccdc_geom_bond_type
C69   C70   A    
C62   O9    A    
O7    Zn5   S    
C31   C32   A    
O12   Zn1   S    
C25   C26   A    
C65   O5    A    
O10   Zn6   S    
Br10  C53   S    
C28   O15   A    
C21   C22   A    
C43   C44   A    
O13   Zn1   S    
C30   C36   A    
C38   H17   S    
C45   I5    S    
O14   Zn2   S    
C57   H8    S    
C4    O13   A    
C64   C66   A    
C61   O8    A    
C4    C11   S    
C52   C70   S    
C26   C27   S    
C66   C68   A    
C24   C25   A    
C1    O21   A    
C16   O14   A    
C20   C21   A    
Br4   C14   S    
C55   C57   S    
O1    Zn4   S    
C5    C6    A    
C13   I8    S    
C62   O2    A    
C46   C47   S    
Br3   C8    S    
C51   C53   A    
C8    C9    A    
O15   Zn3   S    
C9    C67   S    
O18   Zn3   S    
C40   O18   A    
C64   H13   S    
C36   C37   S    
C60   O11   A    
O11   Zn7   S    
C6    C7    A    
O23   Zn7   S    
C22   I10   S    
C2    C68   S    
C13   C14   A    
C47   H3    S    
C15   C61   S    
C54   C60   S    
C7    I1    S    
C27   I12   S    
O23   Zn5   S    
O25   Zn5   S    
C49   C50   A    
C35   C62   S    
C52   O17   A    
C69   I6    S    
O8    Zn5   S    
C16   O12   A    
C40   C41   S    
C61   O26   A    
C10   C19   S    
C67   C69   A    
C11   C13   A    
O20   Zn4   S    
C44   C46   A    
C3    C9    A    
C57   C58   S    
C65   O7    A    
C58   I4    S    
C12   C68   A    
O17   Zn4   S    
C4    O22   A    
C39   C41   A    
C35   C36   A    
C39   C48   S    
C41   C42   A    
C50   C51   A    
C22   C24   A    
C42   H2    S    
C58   I3    S    
C48   H4    S    
C49   C58   S    
C5    H9    S    
C44   C63   S    
Br1   C34   S    
C37   C38   S    
O23   Zn8   S    
Br6   C29   S    
O1    Zn1   S    
C7    C8    A    
O1    Zn2   S    
C12   H7    S    
C14   C15   A    
C3    I7    S    
C34   C64   A    
C1    O4    A    
C33   C35   A    
C27   I13   S    
C51   H5    S    
O21   Zn2   S    
O4    Zn4   S    
Br2   C23   S    
C30   C31   A    
C38   I15   S    
C59   O24   A    
Br5   C29   S    
C19   I9    S    
C40   O16   A    
C32   C33   A    
C45   C56   A    
C42   C43   A    
C30   C38   S    
C12   C23   A    
O3    Zn6   S    
C18   C19   S    
C57   H6    S    
C63   O6    A    
C32   H14   S    
C23   C34   A    
C52   O19   A    
O6    Zn7   S    
C48   I2    S    
O2    Zn7   S    
Br8   C43   S    
C10   C17   A    
C15   C17   A    
C39   C46   A    
Br7   C37   S    
C63   O3    A    
C21   C28   S    
C20   C26   A    
C24   I11   S    
C54   C55   A    
C3    C5    A    
O16   Zn2   S    
C27   C29   S    
O26   Zn6   S    
C66   H16   S    
O22   Zn3   S    
C47   C48   S    
C59   O10   A    
C56   C65   S    
C2    C70   A    
C6    H1    S    
O1    Zn3   S    
C20   C29   S    
C1    C31   S    
C18   H11   S    
Br9   C47   S    
C56   C67   A    
O24   Zn8   S    
O23   Zn6   S    
C2    C45   A    
O19   Zn1   S    
C53   C54   A    
C33   I14   S    
C10   C11   A    
C25   C59   S    
C60   O25   A    
C17   C18   S    
C37   H15   S    
O9    Zn8   S    
O5    Zn8   S    
C18   H10   S    
C16   C50   S    
C19   H12   S    
C49   C55   A    
C28   O20   A    
