data_mof_unit_31476.cif
_audit_creation_date              2012-12-11T16:48:32-0500
_audit_creation_method            fapswitch 2.2
_symmetry_space_group_name_H-M    P1
_symmetry_Int_Tables_number       1
_space_group_crystal_system       triclinic
_cell_length_a                    17.318909
_cell_length_b                    24.763764
_cell_length_c                    15.010836
_cell_angle_alpha                 89.652453
_cell_angle_beta                  125.34592
_cell_angle_gamma                 89.970074
_cell_volume                      5251.0420795

loop_
_atom_site_label
_atom_site_type_symbol
_atom_type_description
_atom_site_fract_x
_atom_site_fract_y
_atom_site_fract_z
_atom_type_partial_charge
C1    C     C_R   0.356583 0.347289 0.911708 0.710887
C2    C     C_R   0.436913 0.499746 0.634471 -0.266624
C3    C     C_R   0.091490 0.867897 0.907346 0.503139
C4    C     C_R   0.385335 0.315453 0.000556 -0.222405
C5    C     C_R   0.670030 0.345446 0.998668 -0.107167
C6    C     C_R   0.884467 0.815167 0.995363 -0.288368
C7    C     C_R   0.181103 0.852131 0.997704 -0.183133
C8    C     C_3   0.981986 0.530794 0.370517 0.054167
C9    C     C_3   0.059738 0.573892 0.784807 -0.047723
C10   C     C_3   0.472309 0.016553 0.359225 -0.018506
C11   C     C_3   0.541384 0.072968 0.776875 0.032771
C12   C     C_3   0.605174 0.212276 0.031542 -0.090770
C13   C     C_R   0.948043 0.999012 0.274885 -0.224786
C14   C     C_3   0.531533 0.203145 0.245045 0.069931
C15   C     C_3   0.158663 0.801135 0.720739 0.233185
C16   C     C_3   0.039813 0.712580 0.086392 -0.055279
C17   C     C_3   0.763385 0.359094 0.843731 -0.006565
C18   C     C_3   0.222816 0.316397 0.064002 -0.252333
C19   C     C_3   0.416981 0.899761 0.087826 -0.241726
C20   C     C_3   0.709099 0.816754 0.032433 -0.308129
C21   C     C_3   0.420222 0.336513 0.380784 -0.014701
C22   C     C_3   0.629856 0.501854 0.632257 -0.081085
C23   C     C_3   0.849017 0.842228 0.315840 0.004418
C24   C     C_R   0.924137 0.998484 0.628387 -0.321720
C25   C     C_3   0.112586 0.965783 0.639036 -0.097052
C26   C     C_3   0.219477 0.440078 0.907728 -0.026086
C27   C     C_3   0.874318 0.385897 0.358782 0.198692
C28   C     C_3   0.719371 0.940542 0.907547 -0.088429
C29   C     C_3   0.352007 0.880934 0.411592 0.251408
C30   C     C_3   0.355013 0.666232 0.759801 0.379572
C31   C     C_3   0.708101 0.688885 0.210169 0.121956
C32   C     C_3   0.856312 0.168086 0.760665 0.263585
C33   C     C_3   0.203436 0.187438 0.209428 0.062683
C34   C     C_3   0.591113 0.335170 0.256459 0.173256
C35   C     C_R   0.174117 0.503482 0.726095 -0.341502
C36   C     C_3   0.454257 0.317061 0.777647 0.284391
C37   C     C_3   0.089415 0.834976 0.251519 0.256583
C38   C     C_3   0.011251 0.796365 0.800471 0.086681
C39   C     C_R   0.817506 0.500425 0.348456 -0.415097
C40   C     C_R   0.674136 0.004257 0.726175 -0.316419
C41   C     C_R   0.312877 0.998509 0.355046 -0.414548
C42   C     C_2   0.918865 0.479613 0.542202 0.595876
C43   C     C_2   0.014455 0.467887 0.638465 0.499300
C44   C     C_2   0.418096 0.985124 0.551036 0.539345
C45   C     C_R   0.677645 0.363722 0.089091 0.631078
C46   C     C_2   0.513482 0.971324 0.645638 0.484960
C47   C     C_2   0.909449 0.502950 0.454942 0.392897
C48   C     C_2   0.075083 0.508844 0.690984 0.379132
C49   C     C_2   0.407734 0.999833 0.458226 0.434506
C50   C     C_2   0.576480 0.011470 0.694618 0.373904
C51   C     C_R   0.392825 0.760683 0.109754 -0.243479
C52   C     C_R   0.704158 0.708688 0.899306 -0.214704
C53   C     C_R   0.879002 0.272615 0.057498 -0.174184
C54   C     C_R   0.200826 0.212551 0.909507 -0.222202
C55   C     C_R   0.380579 0.742985 0.014679 -0.039692
C56   C     C_R   0.857690 0.847660 0.908635 0.806616
C57   C     C_R   0.748157 0.672076 0.986673 -0.156685
C58   C     C_R   0.838063 0.224008 0.007272 -0.119314
C59   C     C_R   0.246589 0.172431 0.988991 -0.077289
C60   C     C_R   0.327700 0.775358 0.921590 0.611675
C61   C     C_R   0.847011 0.674812 0.064000 0.680507
C62   C     C_R   0.746927 0.210785 0.976007 0.646432
C63   C     C_R   0.345425 0.173358 0.063343 0.599741
C64   C     C_R   0.691563 0.250138 0.978333 0.477211
C65   C     C_R   0.396487 0.219961 0.069446 0.393277
C66   C     C_R   0.257419 0.810447 0.908982 0.309606
C67   C     C_R   0.183795 0.869104 0.088050 0.614116
C68   C     C_R   0.897707 0.718650 0.061318 0.458852
C69   C     C_R   0.726327 0.303089 0.003498 -0.081119
C70   C     C_R   0.344712 0.263746 0.996898 -0.042313
C71   C     C_R   0.257235 0.821458 0.002086 -0.097634
C72   C     C_R   0.846410 0.761848 0.986997 -0.098733
C73   C     C_R   0.447027 0.650823 0.092258 0.765810
C74   C     C_R   0.602058 0.619633 0.910331 0.666740
C75   C     C_R   0.946525 0.150700 0.091382 0.754150
C76   C     C_R   0.102327 0.118863 0.910352 0.659362
C77   C     C_R   0.821864 0.312731 0.051417 -0.287968
C78   C     C_R   0.392293 0.684880 0.005608 -0.210059
C79   C     C_R   0.248245 0.258148 0.917589 -0.262366
C80   C     C_R   0.333399 0.801043 0.103876 -0.203023
C81   C     C_R   0.751233 0.754131 0.904378 -0.271784
C82   C     C_3   0.876733 0.355816 0.039226 0.974011
C83   C     C_3   0.162854 0.293566 0.878806 1.102830
C84   C     C_3   0.417906 0.829865 0.200748 1.038395
C85   C     C_3   0.663933 0.789111 0.854625 1.118775
C86   C     C_3   0.480863 0.786968 0.203080 1.207289
C87   C     C_3   0.610586 0.738025 0.842822 1.156418
C88   C     C_3   0.941443 0.310530 0.048437 1.181165
C89   C     C_R   0.688443 0.635979 0.998088 -0.100763
C90   C     C_3   0.109393 0.242171 0.864797 1.148729
C91   C     C_R   0.447062 0.452368 0.501660 -0.265837
C92   C     C_R   0.439749 0.448409 0.406329 -0.340303
C93   C     C_R   0.910121 0.948105 0.479158 -0.256346
C94   C     C_R   0.911849 0.946704 0.388569 -0.367544
C95   C     C_R   0.412173 0.496576 0.524604 -0.124163
C96   C     C_R   0.410930 0.493831 0.337684 -0.102502
C97   C     C_R   0.891979 0.995432 0.513862 -0.099929
C98   C     C_R   0.904248 0.994922 0.334361 -0.095813
C99   C     C_R   0.361109 0.536381 0.442543 0.693872
C100  C     C_R   0.891962 0.183164 0.004083 -0.152542
C101  C     C_R   0.362678 0.535711 0.349876 0.647625
C102  C     C_R   0.856594 0.039831 0.440282 0.679922
C103  C     C_R   0.864000 0.039820 0.351410 0.632514
C104  C     C_3   0.526752 0.411682 0.460141 1.079176
C105  C     C_3   0.537769 0.419888 0.567795 1.013749
C106  C     C_3   0.981424 0.899477 0.434985 1.069092
C107  C     C_3   0.981903 0.903465 0.536682 1.019587
C108  C     C_R   0.469742 0.455729 0.236236 0.708630
C109  C     C_R   0.450567 0.455380 0.696476 0.742121
C110  C     C_R   0.972699 0.955285 0.240287 0.700131
C111  C     C_R   0.189010 0.134469 0.998733 -0.117540
C112  C     C_R   0.940963 0.954551 0.693923 0.806843
C113  C     C_R   0.231341 0.545901 0.744289 0.708771
C114  C     C_R   0.761386 0.544512 0.294939 0.798523
C115  C     C_R   0.731824 0.046279 0.744315 0.725673
C116  C     C_R   0.260568 0.043469 0.297970 0.777884
C117  C     C_R   0.480348 0.544282 0.250249 0.738602
C118  C     C_R   0.450530 0.544114 0.695621 0.774004
C119  C     C_R   0.982786 0.044039 0.253414 0.749802
C120  C     C_R   0.945972 0.043300 0.693107 0.766764
C121  C     C_R   0.232304 0.457766 0.766426 0.641051
C122  C     C_R   0.444728 0.499319 0.269465 -0.228140
C123  C     C_R   0.765299 0.454718 0.292120 0.502188
C124  C     C_R   0.732011 0.958075 0.766263 0.667932
C125  C     C_R   0.259158 0.953316 0.298287 0.553439
C126  C     C_R   0.358795 0.653795 0.913323 0.458914
C127  C     C_R   0.689291 0.626114 0.089637 0.444086
C128  C     C_R   0.859942 0.153388 0.913169 0.570237
C129  C     C_R   0.189714 0.125189 0.090219 0.465742
C130  C     C_R   0.448267 0.345563 0.089981 0.525656
C131  C     C_R   0.586064 0.363262 0.907755 0.416388
C132  C     C_R   0.945714 0.845056 0.086969 0.509252
F1    F     F_    0.299143 0.331579 0.806062 -0.632780
F2    F     F_    0.129214 0.317772 0.779250 -0.518461
F3    F     F_    0.418342 0.824574 0.292602 -0.622684
F4    F     F_    0.635914 0.810054 0.754331 -0.524462
F5    F     F_    0.541781 0.804500 0.177345 -0.736773
F6    F     F_    0.570167 0.737957 0.899919 -0.742766
F7    F     F_    0.940737 0.302404 0.956748 -0.670220
F8    F     F_    0.076526 0.238659 0.929616 -0.735854
F9    F     F_    0.526790 0.755686 0.297338 -0.537770
F10   F     F_    0.547604 0.722625 0.735046 -0.562021
F11   F     F_    0.032110 0.311977 0.143838 -0.648611
F12   F     F_    0.726507 0.336892 0.184803 -0.720461
F13   F     F_    0.040629 0.230041 0.756478 -0.574786
F14   F     F_    0.314774 0.576960 0.453592 -0.573762
F15   F     F_    0.323097 0.577250 0.277046 -0.602363
F16   F     F_    0.819370 0.083909 0.455629 -0.582049
F17   F     F_    0.836911 0.084488 0.287011 -0.598678
F18   F     F_    0.600889 0.433574 0.461154 -0.685253
F19   F     F_    0.527280 0.372499 0.608917 -0.650373
F20   F     F_    0.067930 0.911868 0.454432 -0.699106
F21   F     F_    0.942101 0.858614 0.550355 -0.656388
F22   F     F_    0.512243 0.667297 0.195314 -0.599531
F23   F     F_    0.813892 0.831560 0.803736 -0.599038
F24   F     F_    0.574334 0.622698 0.806217 -0.627685
F25   F     F_    0.007124 0.168580 0.194796 -0.611532
F26   F     F_    0.072946 0.124230 0.805737 -0.615206
F27   F     F_    0.431712 0.406969 0.223524 -0.705211
F28   F     F_    0.408728 0.408008 0.650010 -0.652227
F29   F     F_    0.933238 0.906615 0.223649 -0.694601
F30   F     F_    0.893335 0.907489 0.655093 -0.579326
F31   F     F_    0.202214 0.597677 0.719756 -0.627543
F32   F     F_    0.772766 0.592277 0.344321 -0.631996
F33   F     F_    0.703973 0.098297 0.721452 -0.597620
F34   F     F_    0.249881 0.854932 0.191698 -0.678150
F35   F     F_    0.274202 0.092142 0.345081 -0.639028
F36   F     F_    0.481378 0.594942 0.283764 -0.559372
F37   F     F_    0.420939 0.594519 0.654114 -0.586579
F38   F     F_    0.983786 0.094909 0.285762 -0.559989
F39   F     F_    0.920010 0.094245 0.653959 -0.581034
F40   F     F_    0.844349 0.455009 0.533082 -0.619581
F41   F     F_    0.045404 0.416406 0.647455 -0.596713
F42   F     F_    0.342139 0.972834 0.552332 -0.667679
F43   F     F_    0.541911 0.919499 0.651445 -0.618993
F44   F     F_    0.346027 0.773848 0.845191 -0.650285
F45   F     F_    0.893347 0.636678 0.143741 -0.644025
F46   F     F_    0.711121 0.160425 0.940769 -0.692241
F47   F     F_    0.389605 0.129756 0.129380 -0.709147
F48   F     F_    0.922718 0.389111 0.129537 -0.656250
H1    H     H_    0.051674 0.543708 0.390600 0.193498
H2    H     H_    0.519793 0.115501 0.773883 0.210857
H3    H     H_    0.612475 0.067032 0.855107 0.139416
H4    H     H_    0.488385 0.046546 0.774786 0.076464
H5    H     H_    0.631470 0.240490 0.100754 0.178829
H6    H     H_    0.649526 0.175018 0.060031 0.185441
H7    H     H_    0.532497 0.199851 0.001506 0.185924
H8    H     H_    0.547160 0.159333 0.250188 0.190760
H9    H     H_    0.484823 0.211967 0.271901 0.132727
H10   H     H_    0.600338 0.222904 0.303862 0.132638
H11   H     H_    0.158469 0.757820 0.741469 0.071032
H12   H     H_    0.928923 0.561470 0.313652 0.190488
H13   H     H_    0.197825 0.806582 0.683383 0.171730
H14   H     H_    0.084223 0.811107 0.657565 0.182684
H15   H     H_    0.025833 0.746476 0.029857 0.064421
H16   H     H_    0.018669 0.673476 0.042071 0.124060
H17   H     H_    0.117358 0.710966 0.149583 0.197607
H18   H     H_    0.691137 0.369815 0.817808 0.210676
H19   H     H_    0.771083 0.314516 0.848747 0.110149
H20   H     H_    0.770648 0.372965 0.778539 0.232065
H21   H     H_    0.293984 0.334151 0.103425 0.188834
H22   H     H_    0.229671 0.272334 0.079976 0.115183
H23   H     H_    0.966155 0.490628 0.330778 0.086076
H24   H     H_    0.191494 0.333854 0.104308 0.242811
H25   H     H_    0.343333 0.915441 0.036270 0.159735
H26   H     H_    0.427743 0.867437 0.045308 0.158367
H27   H     H_    0.463770 0.933610 0.099302 0.203843
H28   H     H_    0.780931 0.834221 0.078798 0.187758
H29   H     H_    0.715198 0.773144 0.051976 0.137367
H30   H     H_    0.670394 0.835746 0.062630 0.223808
H31   H     H_    0.366221 0.357292 0.303185 0.162349
H32   H     H_    0.399918 0.339271 0.438396 0.172712
H33   H     H_    0.418899 0.293184 0.361634 0.147365
H34   H     H_    0.030997 0.614856 0.778669 0.170511
H35   H     H_    0.605993 0.527006 0.672894 0.148400
H36   H     H_    0.591054 0.513730 0.545051 0.143561
H37   H     H_    0.705493 0.511379 0.671089 0.211326
H38   H     H_    0.813679 0.871844 0.247451 0.143186
H39   H     H_    0.818724 0.845384 0.363530 0.173069
H40   H     H_    0.832201 0.801416 0.279390 0.139491
H41   H     H_    0.119228 0.991648 0.703187 0.132256
H42   H     H_    0.074651 0.989159 0.561491 0.124767
H43   H     H_    0.185114 0.957497 0.662533 0.224211
H44   H     H_    0.259232 0.478805 0.939324 -0.000253
H45   H     H_    0.137460 0.575168 0.848785 0.116658
H46   H     H_    0.256868 0.411739 0.977718 0.176781
H47   H     H_    0.146440 0.445860 0.884546 0.170788
H48   H     H_    0.934568 0.401623 0.437441 0.103970
H49   H     H_    0.882379 0.396429 0.292257 0.109718
H50   H     H_    0.879301 0.341301 0.368052 0.211568
H51   H     H_    0.757947 0.979680 0.938053 0.024603
H52   H     H_    0.758044 0.912763 0.978274 0.175899
H53   H     H_    0.646439 0.945645 0.885070 0.172151
H54   H     H_    0.379067 0.883525 0.498567 0.161175
H55   H     H_    0.403905 0.897597 0.397634 0.136335
H56   H     H_    0.025420 0.545465 0.809588 0.097641
H57   H     H_    0.345061 0.837089 0.394233 0.218593
H58   H     H_    0.351332 0.623289 0.739325 0.110215
H59   H     H_    0.429178 0.680471 0.811975 0.143679
H60   H     H_    0.318567 0.689580 0.682213 0.169259
H61   H     H_    0.664712 0.670152 0.234124 0.223482
H62   H     H_    0.663958 0.716559 0.138968 0.092116
H63   H     H_    0.762798 0.713610 0.279886 0.158097
H64   H     H_    0.853988 0.125132 0.740840 0.132380
H65   H     H_    0.930077 0.183075 0.812819 0.150051
H66   H     H_    0.819067 0.191242 0.682810 0.180469
H67   H     H_    0.541218 0.022169 0.371061 0.183283
H68   H     H_    0.163032 0.166696 0.235598 0.224837
H69   H     H_    0.155292 0.213750 0.137223 0.136385
H70   H     H_    0.255932 0.213996 0.277056 0.150133
H71   H     H_    0.609774 0.377897 0.257955 0.145817
H72   H     H_    0.621728 0.308540 0.225386 0.143296
H73   H     H_    0.623171 0.323119 0.342457 0.174453
H74   H     H_    0.401883 0.348668 0.758554 0.166933
H75   H     H_    0.462740 0.291129 0.843272 0.083131
H76   H     H_    0.425096 0.291897 0.703924 0.166423
H77   H     H_    0.102372 0.878027 0.273218 0.151942
H78   H     H_    0.427825 0.052509 0.313869 0.173104
H79   H     H_    0.119839 0.821895 0.207222 0.080361
H80   H     H_    0.126043 0.811611 0.329092 0.162669
H81   H     H_    0.965856 0.796027 0.830702 0.115059
H82   H     H_    0.070997 0.767341 0.848723 0.031124
H83   H     H_    0.967461 0.782219 0.714759 0.201486
H84   H     H_    0.440239 0.979038 0.311100 0.134450
N1    N     N_R   0.395410 0.396350 0.944340 -0.157883
N2    N     N_R   0.474920 0.471030 0.794350 -0.175375
N3    N     N_R   0.025080 0.971030 0.205650 -0.168066
N4    N     N_R   0.974920 0.971030 0.794350 -0.178661
N5    N     N_R   0.320260 0.527820 0.794570 -0.189344
N6    N     N_R   0.679740 0.527820 0.205430 -0.158661
N7    N     N_R   0.820260 0.027820 0.794570 -0.202397
N8    N     N_R   0.179740 0.027820 0.205430 -0.161303
N9    N     N_R   0.524590 0.527840 0.205200 -0.161219
N10   N     N_R   0.475410 0.527840 0.794800 -0.185476
N11   N     N_R   0.024590 0.027840 0.205200 -0.166101
N12   N     N_R   0.604590 0.396350 0.055660 -0.169973
N13   N     N_R   0.975410 0.027840 0.794800 -0.193372
N14   N     N_R   0.320750 0.471000 0.795020 -0.154158
N15   N     N_R   0.679250 0.471000 0.204980 -0.141971
N16   N     N_R   0.820750 0.971000 0.795020 -0.150088
N17   N     N_R   0.179250 0.971000 0.204980 -0.140137
N18   N     N_R   0.393620 0.602490 0.942710 -0.175997
N19   N     N_R   0.606380 0.602490 0.057290 -0.166252
N20   N     N_R   0.893620 0.102490 0.942710 -0.175480
N21   N     N_R   0.106380 0.102490 0.057290 -0.170101
N22   N     N_R   0.451720 0.396350 0.057510 -0.159453
N23   N     N_R   0.895410 0.896350 0.944340 -0.156936
N24   N     N_R   0.548280 0.396350 0.942490 -0.171443
N25   N     N_R   0.951720 0.896350 0.057510 -0.164330
N26   N     N_R   0.048280 0.896350 0.942490 -0.163049
N27   N     N_R   0.104590 0.896350 0.055660 -0.180720
N28   N     N_R   0.449930 0.602500 0.055880 -0.176023
N29   N     N_R   0.550070 0.602500 0.944120 -0.180347
N30   N     N_R   0.949930 0.102500 0.055880 -0.175116
N31   N     N_R   0.050070 0.102500 0.944120 -0.182761
N32   N     N_R   0.525080 0.471030 0.205650 -0.159108
Ni1   Ni    Ni4+2 0.435420 0.434270 0.870230 0.223339
Ni2   Ni    Ni4+2 0.564580 0.434270 0.129770 0.219738
Ni3   Ni    Ni4+2 0.935420 0.934270 0.870230 0.286106
Ni4   Ni    Ni4+2 0.064580 0.934270 0.129770 0.204559
Ni5   Ni    Ni4+2 0.563430 0.564580 0.128740 0.268035
Ni6   Ni    Ni4+2 0.436570 0.564580 0.871260 0.204203
Ni7   Ni    Ni4+2 0.063430 0.064580 0.128740 0.256015
Ni8   Ni    Ni4+2 0.936570 0.064580 0.871260 0.204437
O1    O     O_3   0.987875 0.528134 0.468227 -0.625761
O2    O     O_3   0.164863 0.331108 0.951966 -0.621513
O3    O     O_3   0.440421 0.884184 0.191423 -0.632782
O4    O     O_3   0.660597 0.829448 0.919844 -0.614035
O5    O     O_3   0.512516 0.356571 0.425923 -0.583032
O6    O     O_3   0.623119 0.446409 0.650636 -0.657626
O7    O     O_3   0.948742 0.848335 0.382013 -0.566582
O8    O     O_3   0.070646 0.916082 0.636446 -0.621759
O9    O     O_3   0.216335 0.417832 0.818383 -0.504613
O10   O     O_3   0.785836 0.402834 0.334699 -0.572904
O11   O     O_3   0.716036 0.918078 0.818168 -0.513760
O12   O     O_3   0.038943 0.560094 0.682149 -0.553513
O13   O     O_3   0.261064 0.904635 0.345937 -0.645386
O14   O     O_3   0.307498 0.675132 0.808744 -0.586991
O15   O     O_3   0.753798 0.648636 0.190296 -0.574732
O16   O     O_3   0.808688 0.176082 0.809624 -0.577773
O17   O     O_3   0.252464 0.149411 0.189713 -0.588673
O18   O     O_3   0.493097 0.327032 0.196368 -0.584133
O19   O     O_3   0.539958 0.340232 0.805569 -0.577302
O20   O     O_3   0.992431 0.823995 0.191749 -0.545578
O21   O     O_3   0.044401 0.848678 0.802507 -0.517265
O22   O     O_3   0.489047 0.012257 0.462866 -0.632129
O23   O     O_3   0.543853 0.063699 0.686049 -0.559705
O24   O     O_3   0.600937 0.237913 0.944818 -0.638116
O25   O     O_3   0.494716 0.223267 0.139171 -0.661614
O26   O     O_3   0.194423 0.836733 0.810235 -0.568890
O27   O     O_3   0.994459 0.720846 0.138667 -0.547503
O28   O     O_3   0.830113 0.387119 0.940867 -0.638023

loop_
_geom_bond_atom_site_label_1
_geom_bond_atom_site_label_2
_ccdc_geom_bond_type
C50   O23   S    
C63   C65   A    
C61   F45   S    
N3    N11   A    
N15   Ni2   S    
C34   H73   S    
C10   O22   S    
C84   C86   S    
N4    Ni3   S    
C38   H82   S    
N5    Ni6   S    
C95   C99   A    
C106  O7    S    
C106  C107  S    
C67   N27   A    
C18   O2    S    
C104  F18   S    
C51   C80   A    
C62   C64   A    
C14   H9    S    
C123  N15   A    
C27   H49   S    
C27   O10   S    
C59   C111  S    
N23   N25   A    
C20   H30   S    
C115  F33   S    
C112  N4    A    
C9    O12   S    
C75   F25   S    
N10   Ni6   S    
C41   C49   S    
C110  N3    A    
C44   C46   S    
C74   N29   A    
C105  F19   S    
C23   H39   S    
C24   C120  A    
C36   H75   S    
C106  F20   S    
C41   C125  A    
C58   C100  S    
C6    C132  A    
C4    C130  A    
N4    N13   A    
N9    N32   A    
N6    N15   A    
C25   O8    S    
C26   H47   S    
C68   C72   A    
N21   N31   A    
C123  O10   S    
C36   O19   S    
C74   F24   S    
N30   Ni7   S    
C57   C89   S    
N18   N28   A    
C99   C101  A    
C26   H44   S    
C60   F44   S    
C39   C47   S    
C54   C79   A    
C89   C127  A    
C132  O20   S    
C15   H11   S    
C70   C79   A    
C37   H79   S    
C30   H60   S    
C84   O3    S    
C90   F8    S    
C53   C58   A    
C57   C61   A    
C45   N12   A    
C59   C63   A    
C129  N21   A    
C12   O24   S    
C16   H15   S    
C43   F41   S    
C77   C82   S    
C8    H12   S    
C12   H5    S    
C17   H19   S    
C73   N28   A    
C51   C55   A    
C33   H70   S    
N18   Ni6   S    
C132  N25   A    
C86   F9    S    
C130  O18   S    
C8    H1    S    
C2    C109  A    
C91   C105  S    
C31   H62   S    
C69   C77   A    
C24   C112  A    
C130  N22   A    
C124  N16   A    
C44   F42   S    
C54   C90   S    
C75   N30   A    
C49   O22   S    
C30   O14   S    
C115  N7    A    
C117  F36   S    
C65   C70   A    
C92   C96   A    
C33   H68   S    
C28   O11   S    
C29   H55   S    
C15   H14   S    
C45   F12   S    
C5    C69   S    
C35   C113  A    
C18   H21   S    
C28   H52   S    
N13   Ni8   S    
C22   H35   S    
C32   H64   S    
C30   H58   S    
C1    F1    S    
N17   Ni4   S    
N6    Ni5   S    
C54   C59   A    
C40   C124  A    
C19   O3    S    
N28   Ni5   S    
C15   O26   S    
C76   N31   A    
C91   C92   A    
C55   C78   S    
C92   C104  S    
C118  F37   S    
C12   H7    S    
C36   H74   S    
C124  O11   S    
C129  O17   S    
C117  C122  A    
C113  F31   S    
C16   O27   S    
C114  F32   S    
N20   N30   A    
C25   H42   S    
C47   O1    S    
C64   C69   A    
C68   O27   S    
C82   O28   S    
N27   Ni4   S    
C107  F21   S    
C22   H37   S    
C125  N17   A    
C21   H33   S    
C128  N20   A    
C87   F6    S    
C93   C97   A    
C118  N10   A    
C65   O25   S    
C101  F15   S    
C100  C128  A    
C11   H4    S    
C97   C102  A    
C17   O28   S    
N12   Ni2   S    
C120  F39   S    
C21   H32   S    
C32   H65   S    
C38   H83   S    
N19   Ni5   S    
C120  N13   A    
N19   N29   A    
C76   C111  A    
C82   C88   S    
C48   O12   S    
C102  C103  A    
C85   F4    S    
C7    C67   A    
C14   H10   S    
C14   O25   S    
C46   F43   S    
C18   H24   S    
C10   H67   S    
C3    N26   A    
C96   C101  A    
C81   C85   S    
C58   C62   A    
C80   C84   S    
C4    C70   S    
C2    C118  A    
C84   F3    S    
C108  F27   S    
C6    C72   S    
C36   H76   S    
N23   Ni3   S    
N21   Ni7   S    
C31   H63   S    
C90   F13   S    
C3    C7    A    
C131  N24   A    
C40   C115  A    
C94   C98   A    
C98   C103  A    
C39   C123  A    
N26   N27   A    
C104  C105  S    
C83   F2    S    
C125  O13   S    
C86   F5    S    
C111  C129  A    
C127  O15   S    
C128  O16   S    
C73   F22   S    
C19   H26   S    
N24   Ni1   S    
C34   H71   S    
C88   F11   S    
C72   C81   A    
N32   Ni2   S    
C60   C66   A    
C20   O4    S    
C55   C60   A    
N2    Ni1   S    
C21   O5    S    
C11   H2    S    
N7    Ni8   S    
C35   C48   S    
C114  N6    A    
C51   C86   S    
C64   O24   S    
C26   O9    S    
C24   C97   S    
C35   C121  A    
C121  N14   A    
C38   H81   S    
C108  C122  A    
C83   O2    S    
C5    C45   A    
C53   C77   A    
C16   H16   S    
C14   H8    S    
C27   H50   S    
C66   C71   A    
C12   H6    S    
C34   O18   S    
C17   H18   S    
C18   H22   S    
C20   H29   S    
C33   H69   S    
C85   O4    S    
C117  N9    A    
N7    N16   A    
N2    N10   A    
C42   C43   S    
C78   C126  A    
C37   O20   S    
N12   N24   A    
N8    N17   A    
C8    O1    S    
C23   H40   S    
C37   H77   S    
C31   H61   S    
C8    H23   S    
C113  N5    A    
C9    H34   S    
N1    Ni1   S    
C96   C122  S    
C38   O21   S    
C79   C83   S    
C26   H46   S    
C40   C50   S    
C126  N18   A    
C87   F10   S    
C29   H54   S    
C52   C57   A    
C103  F17   S    
C119  N11   A    
C15   H13   S    
C5    C131  A    
N16   Ni3   S    
C116  N8    A    
C131  O19   S    
C16   H17   S    
C44   C49   D    
C93   C94   A    
C22   H36   S    
C37   H80   S    
C30   H59   S    
C108  N32   A    
C76   F26   S    
C74   C89   A    
C2    C95   S    
N9    Ni5   S    
C7    C71   S    
N11   Ni7   S    
C27   H48   S    
N14   Ni1   S    
N20   Ni8   S    
C121  O9    S    
C63   F47   S    
C17   H20   S    
C127  N19   A    
C13   C98   S    
C102  F16   S    
C73   C78   A    
C10   H78   S    
C116  F35   S    
C25   H41   S    
C56   N23   A    
C43   C48   D    
C28   H53   S    
C23   H38   S    
C9    H56   S    
C19   H27   S    
C52   C81   A    
C56   F23   S    
N8    Ni7   S    
C29   H57   S    
C71   C80   A    
C13   C119  A    
C110  F29   S    
C85   C87   S    
C33   O17   S    
C11   H3    S    
C126  O14   S    
C91   C95   A    
C21   H31   S    
C32   H66   S    
C88   F7    S    
C13   C110  A    
C105  O6    S    
C107  O8    S    
C39   C114  A    
C104  O5    S    
N3    Ni4   S    
C22   O6    S    
C23   O7    S    
C28   H51   S    
C42   F40   S    
N1    N22   A    
C67   F34   S    
C99   F14   S    
C11   O23   S    
C20   H28   S    
C41   C116  A    
C66   O26   S    
C83   C90   S    
C94   C106  S    
C3    O21   S    
N25   Ni4   S    
C52   C87   S    
N26   Ni3   S    
C6    C56   A    
C109  N2    A    
C62   F46   S    
C9    H45   S    
C112  F30   S    
C46   C50   D    
C1    C4    A    
C93   C107  S    
C61   C68   A    
C75   C100  A    
C10   H84   S    
N5    N14   A    
C25   H43   S    
C53   C88   S    
C42   C47   D    
C29   O13   S    
C119  F38   S    
C31   O15   S    
C1    N1    A    
C32   O16   S    
C82   F48   S    
C19   H25   S    
N22   Ni2   S    
C34   H72   S    
N29   Ni6   S    
C109  F28   S    
N31   Ni8   S    
