data_mof_unit_7390.cif
_audit_creation_date              2012-12-11T15:28:37-0500
_audit_creation_method            fapswitch 2.2
_symmetry_space_group_name_H-M    P1
_symmetry_Int_Tables_number       1
_space_group_crystal_system       triclinic
_cell_length_a                    6.958621
_cell_length_b                    19.585577
_cell_length_c                    23.415227
_cell_angle_alpha                 96.139412
_cell_angle_beta                  91.17657
_cell_angle_gamma                 88.651072
_cell_volume                      3171.52537082

loop_
_atom_site_label
_atom_site_type_symbol
_atom_type_description
_atom_site_fract_x
_atom_site_fract_y
_atom_site_fract_z
_atom_type_partial_charge
O1    O     O_R   0.617180 0.809390 0.808140 -0.515552
O2    O     O_R   0.382820 0.190610 0.191860 -0.515552
O3    O     O_R   0.293300 0.672410 0.795490 -0.539466
O4    O     O_R   0.706700 0.327590 0.204510 -0.539466
O5    O     O_R   0.117220 0.690610 0.691850 -0.525661
O6    O     O_R   0.882780 0.309390 0.308150 -0.525661
C1    C     C_R   0.464972 0.648184 0.805839 0.709693
C2    C     C_R   0.535028 0.351816 0.194161 0.709694
O7    O     O_R   0.287840 0.807750 0.814460 -0.525882
O8    O     O_R   0.712160 0.192250 0.185540 -0.525882
O9    O     O_R   0.111720 0.826910 0.710960 -0.527789
O10   O     O_R   0.888280 0.173090 0.289040 -0.527789
C3    C     C_R   0.456508 0.830769 0.833164 0.739198
C4    C     C_R   0.543492 0.169230 0.166836 0.739197
O11   O     O_R   0.622680 0.673080 0.789040 -0.535554
O12   O     O_R   0.377320 0.326920 0.210960 -0.535554
O13   O     O_3   0.448820 0.756130 0.716020 -0.358729
O14   O     O_3   0.551180 0.243870 0.283980 -0.358729
V1    V     V_3+5 0.176220 0.748860 0.756300 1.512405
V2    V     V_3+5 0.823780 0.251140 0.243700 1.512405
O15   O     O_R   0.781670 0.827580 0.704500 -0.522108
O16   O     O_R   0.218330 0.172420 0.295500 -0.522109
C5    C     C_R   0.947847 0.852058 0.694671 0.842010
C6    C     C_R   0.052153 0.147942 0.305329 0.842010
O17   O     O_R   0.787130 0.692240 0.685530 -0.527231
O18   O     O_R   0.212870 0.307760 0.314470 -0.527232
C7    C     C_R   0.956116 0.669234 0.666798 0.738842
C8    C     C_R   0.043884 0.330766 0.333202 0.738842
V3    V     V_3+5 0.675510 0.751130 0.743690 1.529083
V4    V     V_3+5 0.324490 0.248870 0.256310 1.529084
O19   O     O_3   0.952780 0.743870 0.783980 -0.363882
O20   O     O_3   0.047220 0.256130 0.216020 -0.363882
C9    C     C_1   0.966670 0.617202 0.614728 -0.155170
C10   C     C_1   0.033329 0.382798 0.385272 -0.155170
C11   C     C_1   0.978229 0.573693 0.571906 0.039970
C12   C     C_1   0.021771 0.426307 0.428093 0.039970
C13   C     C_1   0.993433 0.521872 0.521310 0.035336
C14   C     C_1   0.006567 0.478128 0.478689 0.035336
C15   C     C_R   0.947539 0.913422 0.663175 -0.161397
C16   C     C_R   0.052460 0.086578 0.336825 -0.161397
C17   C     C_R   0.861243 0.033598 0.662258 -0.141646
C18   C     C_R   0.138757 0.966402 0.337741 -0.141646
C19   C     C_R   0.895867 0.977196 0.692573 0.211697
C20   C     C_R   0.104132 0.022804 0.307426 0.211697
C21   C     C_R   0.976370 0.907603 0.603063 0.143336
C22   C     C_R   0.023630 0.092397 0.396937 0.143336
C23   C     C_R   0.968749 0.968031 0.573218 0.041925
C24   C     C_R   0.031252 0.031969 0.426782 0.041925
C25   C     C_R   0.891207 0.029041 0.603072 0.030146
C26   C     C_R   0.108793 0.970959 0.396928 0.030146
C27   C     C_R   0.025184 0.970616 0.514717 0.071414
C28   C     C_R   0.974816 0.029384 0.485283 0.071414
C29   C     C_R   0.861101 0.081607 0.514431 -0.108277
C30   C     C_R   0.138899 0.918393 0.485569 -0.108276
C31   C     C_R   0.832711 0.083960 0.573059 -0.134516
C32   C     C_R   0.167290 0.916040 0.426941 -0.134516
C33   C     C_R   0.484664 0.585809 0.835991 -0.111401
C34   C     C_R   0.515336 0.414190 0.164009 -0.111401
C35   C     C_R   0.560611 0.464097 0.831851 0.303572
C36   C     C_R   0.439389 0.535903 0.168149 0.303572
C37   C     C_R   0.542122 0.524195 0.805044 -0.183402
C38   C     C_R   0.457877 0.475805 0.194956 -0.183402
C39   C     C_R   0.459297 0.588082 0.895545 -0.137884
C40   C     C_R   0.540703 0.411918 0.104455 -0.137884
C41   C     C_R   0.501984 0.529846 0.925417 0.068252
C42   C     C_R   0.498016 0.470154 0.074583 0.068252
C43   C     C_R   0.533871 0.466074 0.891758 0.000764
C44   C     C_R   0.466129 0.533925 0.108242 0.000764
C45   C     C_R   0.502672 0.531724 0.987038 -0.021156
C46   C     C_R   0.497328 0.468276 0.012962 -0.021156
C47   C     C_R   0.486945 0.405952 0.975884 0.247922
C48   C     C_R   0.513055 0.594048 0.024116 0.247922
C49   C     C_R   0.523093 0.405258 0.917612 -0.123788
C50   C     C_R   0.476906 0.594742 0.082388 -0.123788
C51   C     C_1   0.467248 0.882839 0.885213 -0.131571
C52   C     C_1   0.532752 0.117161 0.114786 -0.131571
C53   C     C_1   0.478693 0.926354 0.928039 0.071245
C54   C     C_1   0.521307 0.073646 0.071961 0.071246
C55   C     C_1   0.493586 0.978146 0.978670 0.058924
C56   C     C_1   0.506414 0.021854 0.021329 0.058924
H1    H     H_    0.756380 0.127921 0.594657 0.154845
H2    H     H_    0.243621 0.872079 0.405343 0.154845
Br1   Br    Br    0.379136 0.322051 0.996112 -0.522669
Br2   Br    Br    0.620864 0.677949 0.003888 -0.522670
Br3   Br    Br    0.034604 0.184466 0.436542 -0.572475
Br4   Br    Br    0.965397 0.815534 0.563458 -0.572475
Br5   Br    Br    0.147474 0.012023 0.226133 -0.512499
Br6   Br    Br    0.852526 0.987977 0.773867 -0.512499
H3    H     H_    0.807903 0.081140 0.685061 0.176574
H4    H     H_    0.192097 0.918860 0.314939 0.176574
H5    H     H_    0.789545 0.120787 0.492409 0.185255
H6    H     H_    0.210456 0.879213 0.507591 0.185255
H7    H     H_    0.524026 0.356159 0.891631 0.214058
H8    H     H_    0.475974 0.643841 0.108369 0.214058
H9    H     H_    0.599639 0.365080 0.082693 0.164995
H10   H     H_    0.400361 0.634919 0.917307 0.164995
H11   H     H_    0.434133 0.477667 0.240703 0.141178
H12   H     H_    0.565867 0.522333 0.759297 0.141178
Br7   Br    Br    0.624495 0.381044 0.783940 -0.472935
Br8   Br    Br    0.375505 0.618956 0.216060 -0.472935

loop_
_geom_bond_atom_site_label_1
_geom_bond_atom_site_label_2
_ccdc_geom_bond_type
C34   C38   A    
C17   H3    S    
C39   C41   A    
C35   Br7   S    
C50   H8    S    
C42   C44   A    
C37   H12   S    
C49   H7    S    
O4    C2    A    
V1    O19   S    
C23   C25   A    
C7    C9    S    
C16   C22   A    
O9    V1    S    
C19   Br6   S    
C11   C13   S    
C52   C54   T    
O3    C1    A    
C9    C11   T    
C54   C56   S    
O12   V4    S    
O13   V3    S    
C36   C38   A    
C21   C23   A    
O7    C3    A    
C35   C43   A    
O5    C7    A    
O7    V1    S    
O6    C8    A    
C3    C51   S    
O8    V2    S    
C41   C43   A    
C29   H5    S    
O3    V1    S    
C46   C47   A    
O14   V4    S    
C31   H1    S    
C20   Br5   S    
C10   C12   T    
C15   C21   A    
C22   Br3   S    
C2    C34   S    
C24   C26   A    
C8    C10   S    
C2    O12   A    
C34   C40   A    
C17   C19   A    
C18   C20   A    
C17   C25   A    
O11   V3    S    
C47   Br1   S    
C29   C31   A    
O17   V3    S    
C22   C24   A    
C35   C37   A    
C27   C28   A    
C48   C50   A    
O8    C4    A    
C33   C39   A    
C47   C49   A    
C15   C19   A    
C1    O11   A    
C25   C31   A    
O15   V3    S    
C39   H10   S    
C26   C32   A    
C18   H4    S    
C40   C42   A    
C45   C48   A    
C30   H6    S    
C13   C14   T    
C38   H11   S    
C16   C20   A    
O10   V2    S    
O1    V3    S    
C53   C55   S    
C33   C37   A    
C51   C53   T    
C48   Br2   S    
C18   C26   A    
C43   C49   A    
O18   V4    S    
O15   C5    A    
O16   C6    A    
O1    C3    A    
C28   C29   A    
V2    O20   S    
C6    C16   S    
O16   V4    S    
C40   H9    S    
C36   Br8   S    
C23   C27   A    
C30   C32   A    
C32   H2    S    
O5    V1    S    
O17   C7    A    
O6    V2    S    
O10   C6    A    
O18   C8    A    
O2    V4    S    
C27   C30   A    
C12   C14   S    
C21   Br4   S    
V3    O19   S    
V4    O20   S    
C42   C46   A    
C41   C45   A    
O9    C5    A    
O13   V1    S    
C1    C33   S    
O14   V2    S    
C45   C46   A    
O2    C4    A    
C55   C56   T    
O4    V2    S    
C24   C28   A    
C36   C44   A    
C44   C50   A    
C5    C15   S    
C4    C52   S    
