data_mof_unit_29698.cif
_audit_creation_date              2013-03-05T15:47:37-0500
_audit_creation_method            fapswitch 2.2
_symmetry_space_group_name_H-M    P1
_symmetry_Int_Tables_number       1
_space_group_crystal_system       triclinic
_cell_length_a                    18.269966
_cell_length_b                    18.244583
_cell_length_c                    18.274333
_cell_angle_alpha                 119.905092
_cell_angle_beta                  90.545885
_cell_angle_gamma                 119.370953
_cell_volume                      4333.55447804

loop_
_atom_site_label
_atom_site_type_symbol
_atom_site_description
_atom_site_fract_x
_atom_site_fract_y
_atom_site_fract_z
_atom_type_partial_charge
Zn1   Zn    Zn3+2 0.457160 0.413230 0.543930 1.101663
Zn2   Zn    Zn3+2 0.456070 0.586770 0.542830 1.111054
Zn3   Zn    Zn3+2 0.456070 0.413260 0.369320 1.113970
Zn4   Zn    Zn3+2 0.630700 0.586740 0.543930 1.075740
O1    O     O_3   0.500000 0.500000 0.500000 -0.548513
O2    O     O_R   0.676930 0.731590 0.616180 -0.644177
O3    O     O_R   0.384570 0.268390 0.445310 -0.628879
O4    O     O_R   0.383800 0.560730 0.615410 -0.635164
O5    O     O_R   0.554710 0.439290 0.323100 -0.584697
O6    O     O_R   0.382720 0.560770 0.443450 -0.621925
O7    O     O_R   0.678010 0.560670 0.617270 -0.622738
O8    O     O_R   0.382720 0.439330 0.322010 -0.555649
O9    O     O_R   0.556550 0.439230 0.617270 -0.587271
O10   O     O_R   0.384570 0.439270 0.616180 -0.596833
O11   O     O_R   0.676930 0.560710 0.445310 -0.634548
O12   O     O_R   0.554710 0.731610 0.615410 -0.569121
O13   O     O_R   0.383800 0.268410 0.323100 -0.629612
C1    C     C_R   0.639324 0.779805 0.643173 0.904345
C2    C     C_R   0.364096 0.219921 0.359998 0.838195
C3    C     C_R   0.365921 0.506644 0.645872 0.848635
C4    C     C_R   0.639983 0.499230 0.359876 0.842895
C5    C     C_R   0.359598 0.500789 0.358868 0.913351
C6    C     C_R   0.641235 0.500738 0.642256 0.970307
C7    C     C_3   0.735510 0.435537 0.664999 0.264270
C8    C     C_3   0.709861 0.406651 0.730423 0.194258
C9    C     C_3   0.801733 0.500179 0.801205 -0.236031
C10   C     C_3   0.828321 0.529752 0.734959 -0.239989
C11   C     C_3   0.790194 0.596120 0.770246 -0.156054
C12   C     C_3   0.763430 0.564645 0.834766 0.284518
C13   C     C_3   0.670034 0.470393 0.765252 -0.230236
C14   C     C_3   0.697736 0.500401 0.699295 -0.170480
H1    H     H_    0.892096 0.555657 0.721856 0.291647
H2    H     H_    0.825803 0.675354 0.787958 0.267320
H3    H     H_    0.605608 0.446625 0.777980 0.252261
H4    H     H_    0.283698 0.093058 0.181078 0.196715
C15   C     C_R   0.359066 0.095329 0.426464 0.224710
C16   C     C_R   0.325949 0.049650 0.473040 0.198130
C17   C     C_R   0.239059 0.958749 0.433149 -0.169068
C18   C     C_R   0.191583 0.908731 0.343850 -0.176771
H5    H     H_    0.124376 0.841035 0.315408 0.222791
C19   C     C_R   0.226949 0.949788 0.294737 0.062824
C20   C     C_R   0.301674 0.052356 0.342595 -0.040612
C21   C     C_R   0.315424 0.107321 0.304193 -0.038140
C22   C     C_R   0.272413 0.053250 0.212573 -0.154854
H6    H     H_    0.186163 0.906772 0.088626 0.196040
C23   C     C_R   0.214340 0.946954 0.160184 -0.155968
C24   C     C_R   0.190496 0.893620 0.199953 -0.055912
C25   C     C_R   0.781722 0.472656 0.385790 -0.198598
H7    H     H_    0.748643 0.482117 0.434932 0.206045
C26   C     C_R   0.845606 0.453870 0.395361 0.340158
C27   C     C_R   0.881466 0.427062 0.327138 -0.208044
H8    H     H_    0.924148 0.402506 0.329743 0.228506
C28   C     C_R   0.859403 0.426661 0.253391 -0.055856
C29   C     C_R   0.808485 0.466064 0.253049 0.000502
C30   C     C_R   0.762026 0.479247 0.314961 0.037464
C31   C     C_R   0.696158 0.496567 0.303156 -0.154137
C32   C     C_R   0.683824 0.511210 0.236141 -0.167976
C33   C     C_R   0.740130 0.514592 0.184922 0.232826
C34   C     C_R   0.802427 0.493050 0.193760 -0.153408
H9    H     H_    0.593684 0.902677 0.656099 0.231495
C35   C     C_R   0.807039 0.906617 0.797965 -0.125914
C36   C     C_R   0.899143 0.952777 0.831900 0.215531
C37   C     C_R   0.961253 0.035722 0.828498 -0.245992
C38   C     C_R   0.932099 0.083214 0.805745 0.233298
C39   C     C_R   0.840815 0.047887 0.789079 -0.035249
C40   C     C_R   0.779472 0.947504 0.764358 -0.051118
C41   C     C_R   0.693083 0.891857 0.705620 -0.070425
C42   C     C_R   0.661142 0.944294 0.698608 -0.114428
C43   C     C_R   0.714707 0.050760 0.747011 0.275143
C44   C     C_R   0.806184 0.105350 0.794078 -0.148109
C45   C     C_R   0.445551 0.673587 0.338775 0.212692
C46   C     C_R   0.481249 0.756439 0.330791 0.213693
C47   C     C_R   0.425734 0.759082 0.281505 -0.239437
H10   H     H_    0.453460 0.823247 0.275961 0.237740
C48   C     C_R   0.335675 0.679898 0.236533 0.281961
C49   C     C_R   0.297108 0.593368 0.241540 -0.058537
C50   C     C_R   0.351974 0.590759 0.294821 -0.088909
C51   C     C_R   0.310213 0.505945 0.302724 -0.094717
C52   C     C_R   0.219068 0.424209 0.256529 -0.072634
H11   H     H_    0.099859 0.362554 0.163874 0.179497
C53   C     C_R   0.169290 0.426355 0.201851 -0.177873
C54   C     C_R   0.205796 0.509220 0.196026 -0.032683
C55   C     C_R   0.304033 0.650967 0.716956 0.347523
C56   C     C_R   0.241465 0.669964 0.703363 -0.248523
H12   H     H_    0.261148 0.731785 0.695955 0.218576
C57   C     C_R   0.154552 0.612326 0.701603 -0.117378
C58   C     C_R   0.131723 0.539337 0.721373 -0.083046
C59   C     C_R   0.200757 0.534384 0.750348 -0.014974
C60   C     C_R   0.277509 0.570244 0.727266 -0.056009
C61   C     C_R   0.322272 0.521704 0.714514 -0.142598
C62   C     C_R   0.315167 0.476148 0.760014 0.238376
C63   C     C_R   0.258084 0.471818 0.810761 -0.156865
C64   C     C_R   0.197711 0.497801 0.803639 -0.127641
Zn5   Zn    Zn3+2 0.042810 0.586720 0.956040 1.080469
Zn6   Zn    Zn3+2 0.043900 0.586680 0.130650 1.092339
Zn7   Zn    Zn3+2 0.043900 0.413170 0.957150 1.110442
Zn8   Zn    Zn3+2 0.869280 0.413210 0.956040 1.142369
O14   O     O_3   0.999970 0.499940 0.999970 -0.551578
O15   O     O_R   0.823040 0.439240 0.054670 -0.571082
O16   O     O_R   0.115410 0.560680 0.883790 -0.645386
O17   O     O_R   0.116170 0.731530 0.176870 -0.615773
O18   O     O_R   0.945270 0.268330 0.884560 -0.622781
O19   O     O_R   0.117250 0.560610 0.177960 -0.592621
O20   O     O_R   0.821970 0.439270 0.882700 -0.593194
O21   O     O_R   0.117250 0.439170 0.056520 -0.616876
O22   O     O_R   0.943420 0.560710 0.882700 -0.618267
O23   O     O_R   0.115410 0.731560 0.054670 -0.629205
O24   O     O_R   0.823040 0.268350 0.883790 -0.579751
O25   O     O_R   0.945270 0.560650 0.176870 -0.642970
O26   O     O_R   0.116170 0.439210 0.884560 -0.581825
C65   C     C_R   0.860070 0.499304 0.139660 0.875475
C66   C     C_R   0.140145 0.499150 0.859592 0.890975
C67   C     C_R   0.136864 0.780387 0.140875 0.881102
C68   C     C_R   0.860427 0.219200 0.856057 0.843979
C69   C     C_R   0.143908 0.502762 0.140981 0.883445
C70   C     C_R   0.858604 0.499525 0.857974 0.927656
N1    N     N_R   0.668444 0.303232 0.707501 0.272494
O27   O     O_R   0.592718 0.257545 0.718484 -0.210812
O28   O     O_R   0.708700 0.257465 0.678318 -0.279806
C71   C     C_2   0.197159 0.912047 0.481598 1.020825
O29   O     O_2   0.224758 0.963546 0.563484 -0.507423
O30   O     O_R   0.124427 0.808754 0.433219 -0.782947
H13   H     H_    0.101357 0.785876 0.473349 0.363716
C72   C     C_2   0.617917 0.532558 0.223487 1.047886
O31   O     O_2   0.538065 0.465248 0.193931 -0.544722
O32   O     O_R   0.647696 0.627846 0.240061 -0.689346
H14   H     H_    0.596773 0.631770 0.224879 0.382466
N2    N     N_R   0.871417 0.458524 0.472937 0.242795
O33   O     O_R   0.862196 0.513477 0.547333 -0.378020
O34   O     O_R   0.911518 0.415875 0.472405 -0.307306
C73   C     C_2   0.879053 0.369986 0.173586 0.907297
O35   O     O_2   0.821751 0.308354 0.099398 -0.602148
O36   O     O_R   0.961001 0.382389 0.183596 -0.793413
H15   H     H_    0.964938 0.337940 0.123976 0.317639
N3    N     N_R   0.734239 0.540277 0.123342 0.226265
O37   O     O_R   0.802792 0.621103 0.133317 -0.317936
O38   O     O_R   0.660289 0.483447 0.057742 -0.292106
N4    N     N_R   0.719581 0.362647 0.571238 0.281798
O39   O     O_R   0.754480 0.310677 0.550800 -0.253440
O40   O     O_R   0.674365 0.352825 0.507749 -0.335013
C74   C     C_2   0.740176 0.824065 0.806496 0.973532
O41   O     O_2   0.749020 0.757333 0.794784 -0.606755
O42   O     O_R   0.666338 0.822692 0.827647 -0.753074
H16   H     H_    0.625206 0.762502 0.830793 0.374601
N5    N     N_R   0.929285 0.912336 0.865285 0.241560
O43   O     O_R   0.916554 0.917807 0.937279 -0.289841
O44   O     O_R   0.970082 0.870721 0.824212 -0.341425
C75   C     C_2   0.056171 0.072315 0.849492 1.068385
O45   O     O_2   0.093682 0.075072 0.794933 -0.517557
O46   O     O_R   0.102117 0.101771 0.931155 -0.742980
H17   H     H_    0.166229 0.124758 0.937643 0.365461
N6    N     N_R   0.990183 0.152371 0.783949 0.251466
O47   O     O_R   0.959410 0.144179 0.713809 -0.306739
O48   O     O_R   0.071548 0.228797 0.837767 -0.329703
N7    N     N_R   0.676130 0.100253 0.740904 0.231649
O49   O     O_R   0.646320 0.138708 0.803804 -0.262513
O50   O     O_R   0.644654 0.076355 0.662450 -0.237754
C76   C     C_2   0.171516 0.336538 0.265635 0.924363
O51   O     O_2   0.092947 0.297942 0.259764 -0.556233
O52   O     O_R   0.214431 0.296052 0.278520 -0.798721
H18   H     H_    0.174130 0.236696 0.282967 0.352339
N8    N     N_R   0.505048 0.678840 0.395625 0.203738
O53   O     O_R   0.536687 0.623798 0.360370 -0.408381
O54   O     O_R   0.544168 0.755901 0.479744 -0.365321
N9    N     N_R   0.574686 0.839395 0.373022 0.260291
O55   O     O_R   0.634926 0.821058 0.374457 -0.263774
O56   O     O_R   0.600316 0.932137 0.401413 -0.263386
N10   N     N_R   0.285827 0.692149 0.188039 0.193126
O57   O     O_R   0.267250 0.643190 0.101689 -0.375132
O58   O     O_R   0.284000 0.773076 0.231457 -0.377328
N11   N     N_R   0.373391 0.445501 0.763304 0.224934
O59   O     O_R   0.341255 0.348404 0.722327 -0.255065
O60   O     O_R   0.459369 0.513432 0.798190 -0.352638
N12   N     N_R   0.396397 0.724919 0.735993 0.236738
O61   O     O_R   0.418094 0.780348 0.704703 -0.337766
O62   O     O_R   0.459052 0.743984 0.791457 -0.350817
C77   C     C_2   0.093316 0.637410 0.685414 1.063514
O63   O     O_2   0.055408 0.659982 0.738781 -0.567581
O64   O     O_R   0.085016 0.643852 0.613050 -0.752892
H19   H     H_    0.044477 0.666232 0.611058 0.374791
C78   C     C_2   0.036638 0.454773 0.694771 0.961810
O65   O     O_2   0.017948 0.371197 0.674206 -0.579635
O66   O     O_R   0.968261 0.468085 0.690724 -0.763299
H20   H     H_    0.907824 0.404910 0.673228 0.372233
C79   C     C_2   0.267129 0.446099 0.874110 1.045880
O67   O     O_2   0.291178 0.509975 0.954649 -0.564784
O68   O     O_R   0.250562 0.350160 0.841911 -0.664421
H21   H     H_    0.260596 0.342710 0.891802 0.374101
N13   N     N_R   0.778843 0.637821 0.928069 0.259084
O69   O     O_R   0.740920 0.686515 0.947112 -0.264091
O70   O     O_R   0.833186 0.658242 0.992537 -0.326120
N14   N     N_R   0.453304 0.172080 0.455202 0.235926
O71   O     O_R   0.502567 0.235708 0.539324 -0.293328
O72   O     O_R   0.491906 0.172469 0.395771 -0.336972
N15   N     N_R   0.381497 0.092648 0.558458 0.272534
O73   O     O_R   0.410587 0.043642 0.566185 -0.249234
O74   O     O_R   0.394194 0.174204 0.629991 -0.224825

loop_
_geom_bond_atom_site_label_1
_geom_bond_atom_site_label_2
_geom_bond_distance
_ccdc_geom_bond_type
C25   C30   1.417067 A    
N11   O59   1.300875 A    
C19   C20   1.403514 A    
N9    O55   1.301242 A    
C45   N8    1.430767 S    
Zn7   O18   1.943699 S    
N7    O50   1.300508 A    
O17   C67   1.276317 A    
C46   N9    1.440925 S    
C15   C20   1.424066 A    
C7    C10   1.540360 S    
C30   C31   1.424996 A    
N2    O33   1.301077 A    
C52   C76   1.498646 S    
C53   C54   1.383671 A    
C79   O67   1.221669 D    
Zn6   O14   1.949546 S    
N3    O37   1.300903 A    
C18   C19   1.410937 A    
C73   O36   1.395507 S    
C28   C29   1.429210 A    
C44   C68   1.480888 S    
N11   O60   1.301273 A    
C9    C10   1.548559 S    
C43   N7    1.431033 S    
C38   N6    1.439620 S    
Zn1   O1    1.956275 S    
C16   N15   1.431712 S    
C11   C12   1.539400 S    
O7    C6    1.280052 A    
C75   O46   1.398014 S    
C54   C69   1.426065 S    
C74   O42   1.398666 S    
N5    O43   1.301022 A    
C17   C18   1.399941 A    
C79   O68   1.396980 S    
C9    C70   1.469672 S    
Zn5   O14   1.956425 S    
O42   H16   1.014006 S    
O8    C5    1.267431 A    
C31   C32   1.414908 A    
O9    C6    1.278319 A    
N3    O38   1.301207 A    
C47   H10   1.083897 S    
O24   C68   1.296833 A    
N13   O70   1.299870 A    
N12   O61   1.301737 A    
O23   C67   1.294331 A    
Zn3   O8    1.944931 S    
O25   C65   1.284540 A    
Zn8   O15   1.938278 S    
O20   C70   1.280619 A    
Zn8   O24   1.936759 S    
C35   C40   1.416620 A    
Zn5   O22   1.947547 S    
Zn6   O19   1.944933 S    
C42   C43   1.385195 A    
C77   O64   1.397908 S    
C36   N5    1.435574 S    
Zn7   O14   1.945694 S    
C34   C65   1.453957 S    
C48   N10   1.430570 S    
C28   C73   1.481682 S    
C12   C13   1.544222 S    
Zn2   O12   1.943747 S    
C35   C36   1.412322 A    
C62   C63   1.401625 A    
C17   C71   1.490386 S    
N10   O58   1.300526 A    
C40   C41   1.408295 A    
N9    O56   1.301656 A    
Zn1   O3    1.938513 S    
C76   O52   1.397787 S    
C47   C48   1.388683 A    
N13   O69   1.300204 A    
O2    C1    1.286782 A    
N5    O44   1.301133 A    
C2    C21   1.467249 S    
Zn8   O14   1.959627 S    
N8    O54   1.299568 A    
C29   C34   1.418308 A    
C78   O66   1.392412 S    
C55   C60   1.420454 A    
Zn5   O23   1.938560 S    
C13   H3    1.110278 S    
C41   C42   1.393081 A    
Zn8   O20   1.945723 S    
O10   C3    1.292565 A    
C56   H12   1.084020 S    
C5    C51   1.427404 S    
Zn4   O2    1.936657 S    
Zn6   O25   1.943082 S    
C49   C54   1.421214 A    
C18   H5    1.078601 S    
C52   C53   1.372456 A    
C59   C64   1.417646 A    
C57   C58   1.419721 A    
H11   C53   1.083980 S    
N15   O73   1.300914 A    
C22   C23   1.383553 A    
C7    N4    1.458690 S    
C8    C9    1.533127 S    
C50   C51   1.436761 A    
C3    C61   1.474876 S    
C57   C77   1.476340 S    
O6    C5    1.269877 A    
C27   H8    1.083669 S    
O22   C70   1.280003 A    
C27   C28   1.398460 A    
C6    C14   1.464327 S    
C76   O51   1.223974 D    
C78   O65   1.224045 D    
O19   C69   1.267717 A    
C48   C49   1.432216 A    
O66   H20   1.013586 S    
C16   C17   1.411335 A    
Zn3   O5    1.943231 S    
C55   C56   1.399147 A    
Zn5   O16   1.937609 S    
O15   C65   1.275316 A    
C36   C37   1.411477 A    
C26   C27   1.394520 A    
C19   C24   1.425688 A    
O4    C3    1.274898 A    
C7    C8    1.524296 S    
Zn4   O7    1.945874 S    
O18   C68   1.278149 A    
H4    C22   1.083251 S    
N4    O40   1.299966 A    
C9    C12   1.531497 S    
C35   C74   1.489295 S    
C25   H7    1.076858 S    
N6    O48   1.301075 A    
C11   H2    1.106639 S    
O16   C66   1.290902 A    
O3    C2    1.281469 A    
C21   C22   1.400537 A    
O36   H15   1.013693 S    
C33   N3    1.438933 S    
C12   N13   1.456407 S    
N10   O57   1.300020 A    
Zn2   O1    1.945695 S    
C26   N2    1.437806 S    
C20   C21   1.420966 A    
C61   C62   1.408673 A    
C73   O35   1.223337 D    
Zn2   O6    1.946838 S    
C37   C75   1.482028 S    
C45   C50   1.442544 A    
C71   O29   1.222797 D    
C71   O30   1.399538 S    
Zn7   O21   1.946689 S    
C72   O32   1.397905 S    
N8    O53   1.299626 A    
C8    N1    1.453803 S    
C8    C13   1.545259 S    
C24   C67   1.470981 S    
C29   C30   1.416192 A    
C15   C16   1.416871 A    
C63   C79   1.483831 S    
C10   H1    1.102858 S    
C15   N14   1.444142 S    
O21   C69   1.269403 A    
C11   C14   1.546312 S    
Zn2   O4    1.942849 S    
C56   C57   1.398442 A    
C46   C47   1.384237 A    
Zn3   O1    1.949549 S    
N2    O34   1.301589 A    
C58   C78   1.497160 S    
C4    C31   1.465955 S    
Zn1   O10   1.937461 S    
O64   H19   1.013700 S    
Zn6   O17   1.941905 S    
C62   N11   1.436512 S    
C38   C39   1.424698 A    
Zn4   O11   1.938026 S    
N1    O28   1.299385 A    
C33   C34   1.405202 A    
C7    C14   1.529505 S    
C45   C46   1.409355 A    
N1    O27   1.300027 A    
N14   O71   1.300070 A    
C32   C72   1.483122 S    
C49   C50   1.424614 A    
C51   C52   1.411188 A    
O5    C4    1.284799 A    
C32   C33   1.397070 A    
C13   C14   1.551289 S    
O11   C4    1.281537 A    
Zn7   O26   1.942998 S    
O32   H14   1.013851 S    
C25   C26   1.399487 A    
C63   C64   1.424778 A    
O13   C2    1.286057 A    
N12   O62   1.301695 A    
Zn3   O13   1.941905 S    
C75   O45   1.222910 D    
C43   C44   1.417939 A    
O52   H18   1.013992 S    
O26   C66   1.275707 A    
C23   C24   1.400063 A    
N4    O39   1.299815 A    
C77   O63   1.221697 D    
C64   C66   1.474127 S    
C37   C38   1.419544 A    
H6    C23   1.083285 S    
Zn4   O1    1.959777 S    
Zn1   O9    1.947651 S    
C59   C60   1.399569 A    
H9    C42   1.083783 S    
C58   C59   1.423390 A    
O12   C1    1.275625 A    
C39   C40   1.402229 A    
C55   N12   1.440983 S    
N7    O49   1.301038 A    
O30   H13   1.014011 S    
C1    C41   1.459132 S    
O46   H17   1.013836 S    
O68   H21   1.013978 S    
N6    O47   1.301609 A    
N15   O74   1.301077 A    
C60   C61   1.419761 A    
C74   O41   1.219844 D    
C39   C44   1.436688 A    
N14   O72   1.301665 A    
C72   O31   1.222442 D    
C10   C11   1.557110 S    
