data_mof_unit_58563.cif
_audit_creation_date              2012-12-10T19:07:37-0500
_audit_creation_method            fapswitch 2.2
_symmetry_space_group_name_H-M    P1
_symmetry_Int_Tables_number       1
_space_group_crystal_system       triclinic
_cell_length_a                    10.811611
_cell_length_b                    10.838192
_cell_length_c                    9.539476
_cell_angle_alpha                 90.307934
_cell_angle_beta                  89.861224
_cell_angle_gamma                 90.223059
_cell_volume                      1117.79189432

loop_
_atom_site_label
_atom_site_type_symbol
_atom_type_description
_atom_site_fract_x
_atom_site_fract_y
_atom_site_fract_z
_atom_type_partial_charge
C1    C     C_R   0.503707 0.262365 0.499149 0.857204
C2    C     C_R   0.936248 0.480902 0.622669 0.028016
C3    C     C_3   0.930388 0.368709 0.714052 -0.197664
C4    C     C_3   0.071359 0.370345 0.714100 -0.514896
C5    C     C_R   0.449739 0.064588 0.607760 0.048746
C6    C     C_R   0.502023 0.128810 0.495410 -0.139096
C7    C     C_R   0.542640 0.061335 0.376080 0.245165
C8    C     C_R   0.538278 0.932952 0.378027 -0.236481
C9    C     C_R   0.497611 0.870356 0.497938 -0.135406
C10   C     C_R   0.448262 0.937593 0.609347 0.110974
C11   C     C_3   0.475449 0.932329 0.762498 -0.428766
C12   C     C_R   0.262415 0.501343 0.500256 0.791506
C13   C     C_3   0.476246 0.072419 0.761354 -0.389789
C14   C     C_R   0.556688 0.593078 0.073964 0.256031
C15   C     C_R   0.433675 0.415258 0.074114 -0.023245
C16   C     C_R   0.433657 0.415255 0.925174 -0.060231
C17   C     C_R   0.556160 0.593458 0.926521 0.250235
C18   C     C_3   0.689283 0.628904 0.919657 -0.483938
C19   C     C_3   0.690421 0.626525 0.078510 -0.502865
C20   C     C_R   0.500500 0.737434 0.500148 0.809937
C21   C     C_R   0.737646 0.501985 0.500026 0.807061
C22   C     C_R   0.063533 0.481948 0.623153 0.116563
C23   C     C_R   0.129430 0.511145 0.501948 -0.060065
C24   C     C_R   0.065305 0.556040 0.385041 -0.195200
C25   C     C_R   0.936255 0.556954 0.385391 -0.178222
C26   C     C_R   0.870880 0.511506 0.501725 -0.059047
Cu1   Cu    Cu3+1 0.499990 0.499980 0.640670 0.957288
Cu2   Cu    Cu3+1 0.500010 0.500020 0.359330 0.976239
H1    H     H_    0.114369 0.586757 0.292361 0.159270
H2    H     H_    0.567579 0.891980 0.785156 0.206014
H3    H     H_    0.397997 0.113282 0.821165 0.185212
H4    H     H_    0.568439 0.113133 0.784786 0.259350
H5    H     H_    0.381911 0.345234 0.129681 0.154331
H6    H     H_    0.381626 0.345472 0.869041 0.132871
H7    H     H_    0.748154 0.556265 0.871898 0.218663
H8    H     H_    0.703000 0.722786 0.875961 0.194157
H9    H     H_    0.747992 0.550469 0.119928 0.223359
H10   H     H_    0.706600 0.718645 0.126995 0.196876
H11   H     H_    0.888390 0.589618 0.293709 0.147242
H12   H     H_    0.890240 0.389068 0.819067 0.147724
H13   H     H_    0.111095 0.392787 0.818588 0.187455
H14   H     H_    0.115878 0.290859 0.659855 0.209560
H15   H     H_    0.573589 0.882241 0.288357 0.183469
H16   H     H_    0.397219 0.892650 0.823419 0.195832
N1    N     N_R   0.500790 0.500930 0.147930 -0.184309
N2    N     N_R   0.500790 0.500890 0.852020 -0.186022
O1    O     O_R   0.500000 0.319640 0.618810 -0.579620
O2    O     O_R   0.500010 0.319680 0.381230 -0.544461
O3    O     O_R   0.319650 0.499970 0.618810 -0.584609
O4    O     O_R   0.319660 0.500010 0.381230 -0.591272
O5    O     O_R   0.499990 0.680320 0.618770 -0.583739
O6    O     O_R   0.500000 0.680360 0.381190 -0.591932
O7    O     O_R   0.680340 0.499990 0.618770 -0.589659
O8    O     O_R   0.680350 0.500030 0.381190 -0.569385
C27   C     C_2   0.874795 0.256744 0.643310 0.893216
O9    O     O_2   0.795043 0.197185 0.704024 -0.609278
O10   O     O_R   0.913527 0.221674 0.508901 -0.749712
H17   H     H_    0.867919 0.146067 0.472781 0.343681
Br1   Br    Br    0.619117 0.134071 0.213519 -0.524339

loop_
_geom_bond_atom_site_label_1
_geom_bond_atom_site_label_2
_ccdc_geom_bond_type
C2    C22   A    
C12   O4    A    
C23   C24   A    
Cu1   O7    S    
C1    O2    A    
C6    C7    A    
C19   H10   S    
C20   O5    A    
C4    C22   S    
C18   H7    S    
C25   H11   S    
C9    C20   S    
C5    C13   S    
Cu1   O1    S    
C14   C17   A    
C8    H15   S    
C21   C26   S    
C27   O9    D    
C12   O3    A    
C11   H16   S    
C2    C26   A    
C4    H13   S    
C24   C25   A    
C21   O7    A    
Cu2   O6    S    
C12   C23   S    
C18   H8    S    
O10   H17   S    
C21   O8    A    
C4    H14   S    
Cu1   N2    S    
C7    Br1   S    
Cu1   O5    S    
C3    H12   S    
C17   C18   S    
C14   N1    A    
C2    C3    S    
C27   O10   S    
C5    C6    A    
Cu2   N1    S    
C7    C8    A    
C10   C11   S    
C15   N1    A    
C5    C10   A    
C1    C6    S    
Cu1   O3    S    
C11   C13   S    
C17   N2    A    
C20   O6    A    
C18   C19   S    
C9    C10   A    
C16   N2    A    
Cu1   Cu2   S    
Cu2   O8    S    
C24   H1    S    
Cu2   O2    S    
C19   H9    S    
C16   H6    S    
C25   C26   A    
C22   C23   A    
C13   H4    S    
Cu2   O4    S    
C14   C19   S    
C13   H3    S    
C1    O1    A    
C3    C4    S    
C15   C16   A    
C11   H2    S    
C15   H5    S    
C8    C9    A    
C3    C27   S    
