data_mof_unit_49852.cif
_audit_creation_date              2013-03-05T16:22:14-0500
_audit_creation_method            fapswitch 2.2
_symmetry_space_group_name_H-M    P1
_symmetry_Int_Tables_number       1
_space_group_crystal_system       triclinic
_cell_length_a                    10.527784
_cell_length_b                    10.50369
_cell_length_c                    9.772025
_cell_angle_alpha                 90.151082
_cell_angle_beta                  89.97075
_cell_angle_gamma                 90.730049
_cell_volume                      1080.50459075

loop_
_atom_site_label
_atom_site_type_symbol
_atom_site_description
_atom_site_fract_x
_atom_site_fract_y
_atom_site_fract_z
_atom_type_partial_charge
O1    O     O_R   0.500010 0.313960 0.616610 -0.598827
O2    O     O_R   0.499990 0.686040 0.383390 -0.598832
O3    O     O_R   0.500060 0.313950 0.383350 -0.641251
O4    O     O_R   0.499940 0.686050 0.616650 -0.641254
C1    C     C_R   0.499131 0.257506 0.499698 0.885032
C2    C     C_R   0.500872 0.742494 0.500302 0.885008
O5    O     O_R   0.313930 0.499970 0.616610 -0.592924
O6    O     O_R   0.686070 0.500030 0.383390 -0.592919
O7    O     O_R   0.313980 0.499960 0.383350 -0.631043
O8    O     O_R   0.686020 0.500040 0.616650 -0.631043
C3    C     C_R   0.257795 0.496934 0.500043 0.940188
C4    C     C_R   0.742205 0.503072 0.499957 0.940164
Zn1   Zn    Zn3+2 0.499970 0.500010 0.655740 0.974555
Zn2   Zn    Zn3+2 0.500030 0.499990 0.344260 0.974558
C5    C     C_3   0.035773 0.403766 0.575809 0.391037
C6    C     C_3   0.964226 0.596248 0.424191 0.391034
C7    C     C_3   0.953022 0.389674 0.447422 -0.295591
C8    C     C_3   0.046977 0.610339 0.552578 -0.295594
H1    H     H_    0.911734 0.299447 0.406699 0.176905
H2    H     H_    0.088266 0.700566 0.593302 0.176914
C9    C     C_3   0.876853 0.503738 0.499677 -0.126547
C10   C     C_3   0.123146 0.496275 0.500323 -0.126551
C11   C     C_3   0.958136 0.515529 0.629990 -0.245031
C12   C     C_3   0.041863 0.484485 0.370010 -0.245025
H3    H     H_    0.921939 0.526472 0.736076 0.182709
H4    H     H_    0.078060 0.473542 0.263923 0.182700
C13   C     C_3   0.603698 0.044646 0.565484 -0.183822
C14   C     C_3   0.396310 0.955353 0.434514 -0.183818
C15   C     C_3   0.605389 0.959930 0.436187 -0.144022
C16   C     C_3   0.394619 0.040068 0.563812 -0.144015
H5    H     H_    0.691723 0.924809 0.384216 0.207351
H6    H     H_    0.308283 0.075181 0.615783 0.207363
H7    H     H_    0.688049 0.085673 0.618645 0.171242
H8    H     H_    0.311959 0.914326 0.381354 0.171250
C17   C     C_3   0.501049 0.877661 0.501020 0.012052
C18   C     C_3   0.498960 0.122338 0.498978 0.012051
C19   C     C_3   0.499372 0.959746 0.630502 -0.145825
C20   C     C_3   0.500636 0.040252 0.369497 -0.145814
H9    H     H_    0.498933 0.923217 0.737061 0.152443
H10   H     H_    0.501076 0.076782 0.262938 0.152442
C21   C     C_3   0.462106 0.391091 0.048299 -0.071568
C22   C     C_3   0.537894 0.608909 0.951701 -0.071565
C23   C     C_3   0.574685 0.413846 0.951004 -0.081809
C24   C     C_3   0.425316 0.586154 0.048996 -0.081807
H11   H     H_    0.637607 0.341317 0.904902 0.143508
H12   H     H_    0.362393 0.658683 0.095098 0.143500
H13   H     H_    0.430116 0.299315 0.093625 0.133132
H14   H     H_    0.569883 0.700685 0.906375 0.133131
N1    N     N_3   0.499910 0.500030 0.863290 -0.082313
N2    N     N_3   0.500090 0.499970 0.136710 -0.082312
C25   C     C_3   0.387321 0.477281 0.951513 -0.050902
C26   C     C_3   0.612679 0.522719 0.048487 -0.050894
H15   H     H_    0.292296 0.458131 0.906156 0.167229
H16   H     H_    0.707704 0.541870 0.093845 0.167245
N3    N     N_R   0.072490 0.296671 0.660967 0.197592
O9    O     O_R   0.985133 0.223846 0.714716 -0.406418
O10   O     O_R   0.191128 0.276331 0.688884 -0.437082
N4    N     N_R   0.927507 0.703346 0.339039 0.197577
O11   O     O_R   0.014867 0.776228 0.285374 -0.406426
O12   O     O_R   0.808873 0.723640 0.311047 -0.437070

loop_
_geom_bond_atom_site_label_1
_geom_bond_atom_site_label_2
_geom_bond_distance
_ccdc_geom_bond_type
C15   C20   1.542743 S    
O5    C3    1.283676 A    
O7    Zn2   1.995400 S    
C6    C9    1.521428 S    
C14   C20   1.543547 S    
C13   C18   1.526644 S    
C13   C15   1.543699 S    
C8    C10   1.536244 S    
O7    C3    1.284625 A    
C6    C12   1.532061 S    
C3    C10   1.417483 S    
N2    C26   1.482610 S    
C16   C18   1.527333 S    
N3    O9    1.300196 A    
C10   C12   1.538436 S    
C18   C20   1.529476 S    
C21   H13   1.110280 S    
C14   H8    1.110721 S    
C14   C16   1.543694 S    
C19   H9    1.110679 S    
C5    N3    1.457272 S    
C22   H14   1.110280 S    
C13   H7    1.110721 S    
C16   H6    1.107781 S    
C23   H11   1.110357 S    
O2    C2    1.285781 A    
O3    Zn2   1.992084 S    
C22   C24   1.535778 S    
C13   C19   1.543549 S    
Zn1   N1    2.028182 S    
O8    C4    1.284625 A    
C24   C25   1.535643 S    
C5    C11   1.532058 S    
C20   H10   1.110679 S    
C26   H16   1.110218 S    
C8    H2    1.110479 S    
N3    O10   1.299040 A    
C9    C11   1.538435 S    
O2    Zn2   1.990287 S    
O6    C4    1.283675 A    
O1    C1    1.285783 A    
C23   C26   1.535644 S    
C7    C12   1.555086 S    
O1    Zn1   1.990287 S    
Zn2   N2    2.028182 S    
C22   N1    1.482463 S    
N4    O12   1.299076 A    
C8    C11   1.555078 S    
C1    C18   1.419736 S    
C21   N2    1.482463 S    
O5    Zn1   1.995754 S    
C11   H3    1.110504 S    
C2    C17   1.419729 S    
C17   C19   1.529472 S    
C16   C19   1.542739 S    
C6    C8    1.533540 S    
O4    C2    1.283608 A    
N1    C25   1.482611 S    
C24   N2    1.482164 S    
O4    Zn1   1.992084 S    
C5    C7    1.533535 S    
C15   C17   1.527334 S    
C23   N1    1.482164 S    
C6    N4    1.457274 S    
O6    Zn2   1.995753 S    
C24   H12   1.110357 S    
C7    H1    1.110479 S    
N4    O11   1.300226 A    
C15   H5    1.107790 S    
C4    C9    1.417480 S    
C21   C25   1.535396 S    
C5    C10   1.521426 S    
C7    C9    1.536240 S    
C21   C23   1.535779 S    
C25   H15   1.110217 S    
C14   C17   1.526640 S    
C12   H4    1.110503 S    
O3    C1    1.283609 A    
O8    Zn1   1.995399 S    
C22   C26   1.535396 S    
