data_mof_unit_7152.cif
_audit_creation_date              2012-12-10T19:27:37-0500
_audit_creation_method            fapswitch 2.2
_symmetry_space_group_name_H-M    P1
_symmetry_Int_Tables_number       1
_space_group_crystal_system       triclinic
_cell_length_a                    23.425828
_cell_length_b                    10.517823
_cell_length_c                    9.787224
_cell_angle_alpha                 90.818557
_cell_angle_beta                  89.689245
_cell_angle_gamma                 89.135067
_cell_volume                      2410.90233934

loop_
_atom_site_label
_atom_site_type_symbol
_atom_type_description
_atom_site_fract_x
_atom_site_fract_y
_atom_site_fract_z
_atom_type_partial_charge
C1    C     C_R   0.500077 0.257957 0.498879 1.021064
C2    C     C_R   0.499716 0.742072 0.501090 1.023521
C3    C     C_R   0.238291 0.550610 0.385105 0.348609
C4    C     C_R   0.761380 0.426034 0.386379 0.343038
C5    C     C_R   0.297704 0.553061 0.388150 0.473383
C6    C     C_R   0.701882 0.431058 0.388087 0.474851
C7    C     C_R   0.327317 0.502286 0.500016 -0.478658
C8    C     C_R   0.672639 0.486400 0.500435 -0.469781
C9    C     C_R   0.296940 0.452356 0.610589 0.504593
C10   C     C_R   0.703262 0.527561 0.615600 0.487225
C11   C     C_R   0.237775 0.454307 0.609803 0.520451
C12   C     C_R   0.762272 0.516698 0.616537 0.540878
C13   C     C_R   0.208441 0.503160 0.497516 -0.121027
C14   C     C_R   0.791468 0.468163 0.501583 -0.123156
C15   C     C_3   0.544993 0.042044 0.569896 0.460153
C16   C     C_3   0.454496 0.958017 0.429789 0.454029
C17   C     C_3   0.547756 0.955214 0.442475 0.224825
C18   C     C_3   0.451708 0.044922 0.557238 0.221289
C19   C     C_3   0.499570 0.876585 0.503282 -0.445603
C20   C     C_3   0.499929 0.123506 0.496506 -0.445158
C21   C     C_3   0.496636 0.963653 0.631051 0.446936
C22   C     C_3   0.502839 0.036493 0.368679 0.444672
C23   C     C_R   0.389529 0.500575 0.500232 1.022170
C24   C     C_R   0.610480 0.497008 0.499839 1.023396
C25   C     C_3   0.472802 0.403948 0.046636 0.247034
C26   C     C_3   0.527168 0.596207 0.953284 0.242299
C27   C     C_3   0.524257 0.398346 0.950523 0.246880
C28   C     C_3   0.475765 0.601773 0.049441 0.243424
C29   C     C_3   0.448354 0.505683 0.953096 0.444466
C30   C     C_3   0.551650 0.494580 0.046839 0.447540
C31   C     C_R   0.877695 0.587515 0.500493 0.633255
C32   C     C_R   0.122461 0.383037 0.486708 0.643081
C33   C     C_R   0.883143 0.360388 0.496569 0.683158
C34   C     C_R   0.116810 0.609550 0.505459 0.689706
C35   C     C_R   0.942951 0.362975 0.495061 -0.230722
C36   C     C_R   0.057055 0.606815 0.506219 -0.229081
C37   C     C_R   0.970012 0.482133 0.500839 -0.144478
C38   C     C_R   0.030020 0.487713 0.500124 -0.152860
C39   C     C_R   0.937158 0.595750 0.507956 -0.218384
C40   C     C_R   0.062935 0.374195 0.494205 -0.202681
C41   C     C_R   0.976214 0.250367 0.492193 0.548352
C42   C     C_R   0.023876 0.719066 0.517069 0.571968
C43   C     C_R   0.035650 0.255586 0.497806 0.398463
C44   C     C_R   0.964538 0.713832 0.523798 0.399053
N1    N     N_R   0.852291 0.471550 0.498451 -0.308233
N2    N     N_R   0.147703 0.498836 0.495441 -0.306681
N3    N     N_3   0.499960 0.500030 0.863290 -0.195231
N4    N     N_3   0.500040 0.499970 0.136710 -0.195113
O1    O     O_R   0.500000 0.313960 0.616610 -0.559108
O2    O     O_R   0.500000 0.686040 0.383390 -0.559533
O3    O     O_R   0.500030 0.313950 0.383350 -0.576582
O4    O     O_R   0.499970 0.686050 0.616650 -0.579696
O5    O     O_R   0.416140 0.499970 0.616650 -0.551270
O6    O     O_R   0.583860 0.500030 0.383350 -0.549448
O7    O     O_R   0.416170 0.499960 0.383400 -0.537065
O8    O     O_R   0.583830 0.500040 0.616600 -0.537040
O9    O     O_2   0.845072 0.694122 0.493384 -0.505464
O10   O     O_2   0.155289 0.277558 0.468427 -0.512514
O11   O     O_2   0.855757 0.248448 0.497622 -0.456868
O12   O     O_2   0.144185 0.721178 0.515762 -0.480355
Zn1   Zn    Zn3+2 0.499980 0.500010 0.655740 1.133886
Zn2   Zn    Zn3+2 0.500020 0.499990 0.344260 1.135621
F1    F     F_    0.951772 0.134291 0.484870 -0.584815
F2    F     F_    0.048384 0.834935 0.523560 -0.606273
O13   O     O_3   0.549575 0.289618 0.887763 -0.552141
C45   C     C_3   0.578376 0.214349 0.985108 0.183590
H1    H     H_    0.563871 0.114884 0.972887 0.184046
H2    H     H_    0.569762 0.242212 0.093805 0.194053
C46   C     C_3   0.642458 0.216823 0.958130 -0.664796
H3    H     H_    0.657935 0.315984 0.961515 0.312269
H4    H     H_    0.665285 0.161144 0.036995 0.195421
H5    H     H_    0.652326 0.174684 0.855931 0.276903
O14   O     O_3   0.449954 0.710154 0.111886 -0.528178
C47   C     C_3   0.423210 0.787811 0.013291 0.164536
H6    H     H_    0.432705 0.760078 0.904986 0.174617
H7    H     H_    0.438648 0.886367 0.027452 0.188691
C48   C     C_3   0.358803 0.788921 0.035523 -0.618610
H8    H     H_    0.348122 0.830022 0.137748 0.310677
H9    H     H_    0.337672 0.847154 0.956202 0.150032
H10   H     H_    0.342128 0.690945 0.028536 0.316641
O15   O     O_3   0.442980 0.304310 0.108402 -0.536146
C49   C     C_3   0.421393 0.220840 0.007882 0.198362
H11   H     H_    0.456016 0.156556 0.968720 0.185041
H12   H     H_    0.401810 0.271824 0.920492 0.211678
C50   C     C_3   0.375353 0.140687 0.072608 -0.730028
H13   H     H_    0.339941 0.202978 0.111316 0.261961
H14   H     H_    0.358164 0.073302 0.995742 0.179661
H15   H     H_    0.393331 0.085979 0.158871 0.314126
O16   O     O_3   0.557009 0.695843 0.891404 -0.508826
C51   C     C_3   0.578724 0.779326 0.991806 0.203404
H16   H     H_    0.599150 0.728225 0.077980 0.178001
H17   H     H_    0.544021 0.842354 0.032812 0.175946
C52   C     C_3   0.623867 0.861466 0.926263 -0.690735
H18   H     H_    0.605167 0.915374 0.840296 0.312421
H19   H     H_    0.640745 0.929677 0.002755 0.162795
H20   H     H_    0.659694 0.800770 0.886966 0.298634
F3    F     F_    0.394169 0.512342 0.898805 -0.600355
F4    F     F_    0.605903 0.490725 0.100839 -0.598828
O17   O     O_3   0.066949 0.143890 0.511042 -0.499294
C53   C     C_3   0.069164 0.111990 0.651173 0.212350
H21   H     H_    0.033385 0.047632 0.675034 0.188541
H22   H     H_    0.066192 0.196130 0.722147 0.077001
C54   C     C_3   0.125496 0.043805 0.680629 -0.625531
H23   H     H_    0.161349 0.111240 0.673141 0.265259
H24   H     H_    0.124600 0.005026 0.785540 0.179253
H25   H     H_    0.133017 0.964619 0.606483 0.325104
O18   O     O_3   0.933823 0.825374 0.548238 -0.486905
C55   C     C_3   0.926096 0.839861 0.691146 0.152228
H26   H     H_    0.967551 0.859970 0.741611 0.120315
H27   H     H_    0.907436 0.753130 0.736884 0.142325
C56   C     C_3   0.885062 0.950397 0.721065 -0.615850
H28   H     H_    0.844195 0.935796 0.666400 0.287290
H29   H     H_    0.876228 0.956901 0.832559 0.176393
H30   H     H_    0.904026 0.041031 0.688381 0.282133
O19   O     O_3   0.209116 0.600508 0.275356 -0.537194
C57   C     C_3   0.205122 0.505185 0.173000 0.122203
H31   H     H_    0.182259 0.420778 0.211966 0.144263
H32   H     H_    0.248269 0.475005 0.135218 0.197259
C58   C     C_3   0.171638 0.557666 0.053107 -0.705406
H33   H     H_    0.194124 0.640087 0.009390 0.267696
H34   H     H_    0.167499 0.482913 0.972683 0.251256
H35   H     H_    0.128282 0.588615 0.087499 0.242726
O20   O     O_3   0.790230 0.374713 0.274580 -0.539848
C59   C     C_3   0.796801 0.470747 0.176688 0.130115
H36   H     H_    0.820627 0.552771 0.220070 0.138122
H37   H     H_    0.754520 0.504759 0.139036 0.207557
C60   C     C_3   0.830655 0.416978 0.055517 -0.713784
H38   H     H_    0.807220 0.337228 0.007194 0.268747
H39   H     H_    0.836971 0.492299 0.978798 0.248647
H40   H     H_    0.873087 0.381840 0.089908 0.243192
F5    F     F_    0.326070 0.605953 0.282370 -0.596351
F6    F     F_    0.673154 0.379161 0.281510 -0.592300
F7    F     F_    0.324281 0.398351 0.717458 -0.569623
F8    F     F_    0.676387 0.580342 0.726391 -0.578690
F9    F     F_    0.208652 0.406581 0.717342 -0.641211
F10   F     F_    0.791536 0.557048 0.727963 -0.637749
O21   O     O_3   0.597406 0.896431 0.387197 -0.578031
C61   C     C_3   0.631836 0.988814 0.326091 0.158951
H41   H     H_    0.639048 0.071549 0.395902 0.198537
H42   H     H_    0.611854 0.022713 0.230271 0.160719
C62   C     C_3   0.689693 0.929241 0.290619 -0.762078
H43   H     H_    0.684257 0.845311 0.222025 0.246973
H44   H     H_    0.716610 0.999793 0.238152 0.230914
H45   H     H_    0.711539 0.898406 0.385272 0.284286
O22   O     O_3   0.402050 0.103658 0.612661 -0.557335
C63   C     C_3   0.367121 0.010789 0.671311 0.133934
H46   H     H_    0.386681 0.975163 0.766899 0.154591
H47   H     H_    0.359973 0.929223 0.599900 0.185727
C64   C     C_3   0.309195 0.070323 0.706441 -0.723785
H48   H     H_    0.288333 0.105638 0.612328 0.282711
H49   H     H_    0.281451 0.998373 0.754008 0.194514
H50   H     H_    0.314357 0.151062 0.779374 0.291326
F11   F     F_    0.591132 0.090059 0.640150 -0.644290
F12   F     F_    0.408443 0.909928 0.359239 -0.626983
F13   F     F_    0.493921 0.923826 0.764768 -0.674473
F14   F     F_    0.505533 0.076600 0.235023 -0.671703

loop_
_geom_bond_atom_site_label_1
_geom_bond_atom_site_label_2
_ccdc_geom_bond_type
C45   H2    S    
C52   H18   S    
C18   C21   S    
C33   N1    A    
O14   C47   S    
C36   C42   A    
C56   H28   S    
C34   O12   S    
C32   O10   S    
C18   O22   S    
O22   C63   S    
O20   C59   S    
C56   H29   S    
C22   F14   S    
C50   H13   S    
C57   H31   S    
C26   O16   S    
C47   H7    S    
C29   N3    S    
C30   N4    S    
C28   C29   S    
C35   C37   A    
C43   O17   S    
O4    Zn1   S    
C64   H49   S    
C13   N2    S    
C50   H15   S    
C45   C46   S    
C24   O6    A    
O19   C57   S    
O7    Zn2   S    
C55   H26   S    
C7    C9    A    
C46   H4    S    
C2    O2    A    
C8    C24   S    
O5    Zn1   S    
C40   C43   A    
C57   H32   S    
C47   C48   S    
C12   F10   S    
O18   C55   S    
C34   N2    A    
C56   H30   S    
C18   C20   S    
C3    C13   A    
C32   N2    A    
C48   H9    S    
C45   H1    S    
C33   O11   S    
C27   C30   S    
C25   O15   S    
C41   C43   A    
O3    Zn2   S    
C42   C44   A    
C28   O14   S    
C10   C12   A    
C23   O5    A    
C14   N1    S    
C63   H47   S    
C50   H14   S    
C25   C29   S    
C15   C20   S    
O1    Zn1   S    
C47   H6    S    
C4    C6    A    
C62   H45   S    
C5    C7    A    
C17   C19   S    
C6    C8    A    
O6    Zn2   S    
C48   H8    S    
C53   C54   S    
O15   C49   S    
C4    O20   S    
C46   H5    S    
C60   H39   S    
C37   C38   A    
C27   O13   S    
C11   F9    S    
C63   C64   S    
C1    O3    A    
N4    Zn2   S    
O17   C53   S    
C5    F5    S    
C53   H22   S    
C21   F13   S    
C54   H24   S    
C16   C18   S    
C9    C11   A    
C25   N4    S    
C58   H34   S    
C2    O4    A    
C26   N3    S    
C59   C60   S    
C6    F6    S    
C20   C22   S    
C26   C30   S    
C52   H20   S    
C49   H12   S    
C16   F12   S    
O2    Zn2   S    
C64   H50   S    
C24   O8    A    
O13   C45   S    
C41   F1    S    
C60   H38   S    
C42   F2    S    
C51   C52   S    
C59   H37   S    
C63   H46   S    
C44   O18   S    
C27   N3    S    
C15   C17   S    
C28   N4    S    
C1    C20   S    
C16   C22   S    
C19   C21   S    
C2    C19   S    
C58   H35   S    
C8    C10   A    
C10   F8    S    
C12   C14   A    
C3    C5    A    
C61   C62   S    
N3    Zn1   S    
C58   H33   S    
C55   C56   S    
C23   O7    A    
C39   C44   A    
C61   H42   S    
C25   C27   S    
C49   C50   S    
O21   C61   S    
C30   F4    S    
C26   C28   S    
C17   C22   S    
C57   C58   S    
C29   F3    S    
C31   O9    S    
C62   H44   S    
C51   H17   S    
C60   H40   S    
C37   C39   A    
C3    O19   S    
C64   H48   S    
C38   C40   A    
C11   C13   A    
C51   H16   S    
C55   H27   S    
C48   H10   S    
C16   C19   S    
C7    C23   S    
C36   C38   A    
C53   H21   S    
C33   C35   A    
C31   C39   A    
C54   H25   S    
C34   C36   A    
C32   C40   A    
C4    C14   A    
C46   H3    S    
C35   C41   A    
C15   F11   S    
C61   H41   S    
C15   C21   S    
C52   H19   S    
C49   H11   S    
C31   N1    A    
C54   H23   S    
O8    Zn1   S    
C17   O21   S    
O16   C51   S    
C62   H43   S    
C1    O1    A    
C59   H36   S    
C9    F7    S    
