data_mof_unit_29453.cif
_audit_creation_date              2012-12-10T20:34:50-0500
_audit_creation_method            fapswitch 2.2
_symmetry_space_group_name_H-M    P1
_symmetry_Int_Tables_number       1
_space_group_crystal_system       triclinic
_cell_length_a                    10.634825
_cell_length_b                    10.667396
_cell_length_c                    9.860305
_cell_angle_alpha                 90.005814
_cell_angle_beta                  89.85495
_cell_angle_gamma                 89.994672
_cell_volume                      1118.60747789

loop_
_atom_site_label
_atom_site_type_symbol
_atom_type_description
_atom_site_fract_x
_atom_site_fract_y
_atom_site_fract_z
_atom_type_partial_charge
C1    C     C_R   0.503925 0.259951 0.500060 0.875452
C2    C     C_3   0.878676 0.501435 0.500884 0.091074
C3    C     C_3   0.928526 0.620072 0.425993 0.225675
C4    C     C_3   0.927649 0.382610 0.427051 -0.483301
C5    C     C_R   0.519386 0.063878 0.623493 0.149091
C6    C     C_R   0.524074 0.128578 0.501024 -0.117440
C7    C     C_R   0.552953 0.064807 0.380498 -0.226096
C8    C     C_R   0.553099 0.935131 0.380506 -0.168027
C9    C     C_R   0.524269 0.871372 0.501022 -0.083133
C10   C     C_R   0.519544 0.936076 0.623501 0.164503
C11   C     C_3   0.425563 0.928817 0.736313 -0.492987
C12   C     C_R   0.257630 0.499744 0.500330 0.847441
C13   C     C_3   0.425277 0.070925 0.736199 -0.496478
C14   C     C_R   0.437401 0.408778 0.071528 0.222075
C15   C     C_R   0.571076 0.582978 0.071806 -0.138074
C16   C     C_R   0.571088 0.582988 0.927763 -0.139616
C17   C     C_R   0.437127 0.408992 0.928899 0.220712
C18   C     C_3   0.299281 0.384196 0.924483 -0.525722
C19   C     C_3   0.299930 0.382822 0.078281 -0.515670
C20   C     C_R   0.504017 0.740031 0.500022 0.914016
C21   C     C_R   0.742295 0.500005 0.500123 0.898372
C22   C     C_3   0.070957 0.498420 0.648981 -0.400732
C23   C     C_3   0.928331 0.499618 0.649150 -0.359145
C24   C     C_3   0.073267 0.620416 0.429387 -0.421560
C25   C     C_3   0.071962 0.382788 0.425706 -0.408208
C26   C     C_3   0.121227 0.500324 0.501032 0.121462
H1    H     H_    0.105915 0.581381 0.706247 0.185820
H2    H     H_    0.892594 0.379637 0.320790 0.185346
H3    H     H_    0.109820 0.624900 0.323573 0.153223
H4    H     H_    0.897748 0.617168 0.318179 0.120760
H5    H     H_    0.566677 0.113992 0.285476 0.169463
H6    H     H_    0.566992 0.885918 0.285512 0.166036
H7    H     H_    0.334523 0.887213 0.703965 0.203936
H8    H     H_    0.466502 0.887852 0.830018 0.209490
H9    H     H_    0.334111 0.112081 0.703587 0.198532
H10   H     H_    0.465877 0.112186 0.829929 0.207147
H11   H     H_    0.626499 0.651552 0.126068 0.151786
H12   H     H_    0.103980 0.412303 0.701812 0.176384
H13   H     H_    0.626511 0.651566 0.873217 0.157819
H14   H     H_    0.245762 0.464561 0.882316 0.214759
H15   H     H_    0.277116 0.291503 0.879047 0.197119
H16   H     H_    0.245632 0.461451 0.123700 0.215445
H17   H     H_    0.279577 0.288935 0.122015 0.199672
H18   H     H_    0.893468 0.414732 0.703311 0.173366
H19   H     H_    0.894360 0.582937 0.706530 0.217259
H20   H     H_    0.109366 0.704648 0.483400 0.199180
H21   H     H_    0.105828 0.382095 0.318851 0.181697
H22   H     H_    0.107620 0.296086 0.475358 0.173121
H23   H     H_    0.892886 0.296687 0.479181 0.189757
N1    N     N_R   0.499150 0.499140 0.142800 -0.108357
N2    N     N_R   0.499150 0.499180 0.857150 -0.108296
O1    O     O_R   0.500020 0.316790 0.614690 -0.616865
O2    O     O_R   0.500000 0.316760 0.385350 -0.624095
O3    O     O_R   0.314800 0.500000 0.614670 -0.629922
O4    O     O_R   0.314790 0.499960 0.385330 -0.626441
O5    O     O_R   0.500000 0.683240 0.614650 -0.613652
O6    O     O_R   0.499980 0.683210 0.385310 -0.623418
O7    O     O_R   0.685210 0.500040 0.614670 -0.620439
O8    O     O_R   0.685200 0.500000 0.385330 -0.631497
Zn1   Zn    Zn3+2 0.500010 0.500020 0.653130 0.946029
Zn2   Zn    Zn3+2 0.499990 0.499980 0.346870 0.942297
Cl1   Cl    Cl    0.867081 0.763048 0.496325 -0.686144

loop_
_geom_bond_atom_site_label_1
_geom_bond_atom_site_label_2
_ccdc_geom_bond_type
C3    H4    S    
C2    C4    S    
C16   N2    A    
O6    Zn2   S    
C6    C7    A    
C23   H19   S    
C9    C10   A    
C25   H21   S    
C9    C20   S    
C5    C13   S    
C25   H22   S    
C19   H16   S    
C4    H23   S    
C20   O5    A    
C24   H20   S    
C17   N2    A    
C2    C21   S    
C17   C18   S    
C20   O6    A    
C5    C10   A    
C21   O8    A    
O3    Zn1   S    
O5    Zn1   S    
C11   C13   S    
C14   C17   A    
C3    C24   S    
C14   N1    A    
O4    Zn2   S    
C4    H2    S    
C19   H17   S    
C13   H9    S    
C2    C3    S    
C22   H1    S    
C5    C6    A    
C1    O1    A    
O8    Zn2   S    
C12   O4    A    
C7    C8    A    
C10   C11   S    
C18   H15   S    
C16   H13   S    
O7    Zn1   S    
C1    C6    S    
C22   H12   S    
C4    C25   S    
C11   H7    S    
C7    H5    S    
C3    Cl1   S    
C13   H10   S    
C18   C19   S    
C22   C26   S    
C15   N1    A    
C12   C26   S    
C2    C23   S    
N1    Zn2   S    
C18   H14   S    
C22   C23   S    
C15   H11   S    
C1    O2    A    
N2    Zn1   S    
O1    Zn1   S    
C25   C26   S    
C24   H3    S    
O2    Zn2   S    
C14   C19   S    
C11   H8    S    
C12   O3    A    
C21   O7    A    
C15   C16   A    
C24   C26   S    
C8    C9    A    
C23   H18   S    
C8    H6    S    
