data_mof_unit_48628.cif
_audit_creation_date              2012-12-10T17:04:21-0500
_audit_creation_method            fapswitch 2.2
_symmetry_space_group_name_H-M    P1
_symmetry_Int_Tables_number       1
_space_group_crystal_system       triclinic
_cell_length_a                    11.694008
_cell_length_b                    11.076301
_cell_length_c                    9.860389
_cell_angle_alpha                 111.835009
_cell_angle_beta                  98.203492
_cell_angle_gamma                 90.657504
_cell_volume                      1170.52320688

loop_
_atom_site_label
_atom_site_type_symbol
_atom_type_description
_atom_site_fract_x
_atom_site_fract_y
_atom_site_fract_z
_atom_type_partial_charge
C1    C     C_R   0.494371 0.254250 0.440204 0.845769
C2    C     C_R   0.506599 0.745856 0.559733 0.846516
C3    C     C_R   0.284102 0.499967 0.500980 0.793032
C4    C     C_R   0.715897 0.499819 0.498964 0.798538
C5    C     C_1   0.162648 0.500146 0.502470 -0.178573
C6    C     C_1   0.837355 0.499475 0.497411 -0.180269
C7    C     C_1   0.060025 0.499929 0.501210 -0.006810
C8    C     C_1   0.939979 0.499591 0.498640 -0.006481
C9    C     C_2   0.487386 0.115080 0.407013 -0.462166
C10   C     C_2   0.517312 0.884917 0.592479 -0.444271
C11   C     C_2   0.522507 0.067056 0.511994 0.379908
C12   C     C_2   0.482322 0.933252 0.488142 0.398768
C13   C     C_2   0.516424 0.502104 0.079412 0.122196
C14   C     C_2   0.490666 0.489712 0.919016 0.119507
Cu1   Cu    Cu3+1 0.519790 0.521810 0.644910 0.966330
Cu2   Cu    Cu3+1 0.480210 0.478190 0.355090 0.964884
H1    H     H_    0.417678 0.425296 0.847312 0.136179
H2    H     H_    0.594912 0.557132 0.148122 0.135392
N1    N     N_2   0.450460 0.445430 0.137370 -0.024757
N2    N     N_2   0.549540 0.554570 0.862630 -0.031736
O1    O     O_R   0.510560 0.332330 0.577400 -0.540271
O2    O     O_R   0.489440 0.667670 0.422600 -0.521620
O3    O     O_R   0.477140 0.295500 0.332650 -0.609090
O4    O     O_R   0.522860 0.704500 0.667350 -0.621638
O5    O     O_R   0.353910 0.518430 0.622380 -0.588838
O6    O     O_R   0.646090 0.481570 0.377620 -0.597804
O7    O     O_R   0.320490 0.481600 0.377630 -0.570395
O8    O     O_R   0.679510 0.518400 0.622370 -0.552113
O9    O     O_3   0.415619 0.855496 0.354369 -0.600828
C15   C     C_3   0.297959 0.884953 0.355415 0.032068
H3    H     H_    0.262118 0.882415 0.243700 0.161503
H4    H     H_    0.285134 0.984344 0.435547 0.118544
C16   C     C_3   0.229049 0.782218 0.386165 -0.287422
H5    H     H_    0.239708 0.683931 0.303799 0.259886
H6    H     H_    0.262458 0.784908 0.498592 0.196922
C17   C     C_3   0.100476 0.806412 0.376975 -0.938026
H7    H     H_    0.087821 0.904130 0.458823 0.255603
H8    H     H_    0.053035 0.731505 0.401563 0.266661
H9    H     H_    0.063953 0.800548 0.264166 0.259422
O10   O     O_3   0.587224 0.144064 0.647864 -0.619484
C18   C     C_3   0.703428 0.164900 0.631039 0.114249
H10   H     H_    0.740065 0.257068 0.722566 0.183859
H11   H     H_    0.711087 0.178953 0.526345 0.117444
C19   C     C_3   0.776015 0.053692 0.642424 -0.400947
H12   H     H_    0.769208 0.041958 0.748212 0.221633
H13   H     H_    0.742844 0.961124 0.549219 0.214479
C20   C     C_3   0.903131 0.080696 0.636820 -0.914751
H14   H     H_    0.912418 0.088565 0.529764 0.256168
H15   H     H_    0.953380 0.999413 0.647590 0.256733
H16   H     H_    0.939167 0.172601 0.729169 0.259186
H17   H     H_    0.562494 0.947089 0.700883 0.152621
H18   H     H_    0.444518 0.052126 0.297738 0.147039
O11   O     O_3   0.647852 0.620311 0.949410 -0.545438
C21   C     C_3   0.642880 0.751907 0.965213 0.204107
H19   H     H_    0.552122 0.781447 0.952854 0.146299
H20   H     H_    0.688791 0.768002 0.881502 0.159191
C22   C     C_3   0.703750 0.838784 0.119778 -0.411415
H21   H     H_    0.660103 0.820927 0.204386 0.234887
H22   H     H_    0.795381 0.814103 0.134767 0.228834
C23   C     C_3   0.700793 0.982969 0.143511 -0.925226
H23   H     H_    0.745569 0.003802 0.061662 0.253407
H24   H     H_    0.745420 0.043242 0.256640 0.257639
H25   H     H_    0.609840 0.010393 0.131770 0.265120
O12   O     O_3   0.343292 0.404912 0.058297 -0.546284
C24   C     C_3   0.315604 0.276701 0.046561 0.177374
H26   H     H_    0.226621 0.247646 0.983163 0.125213
H27   H     H_    0.310684 0.272368 0.155727 0.176966
C25   C     C_3   0.397516 0.178581 0.961945 -0.378864
H28   H     H_    0.400258 0.186481 0.853300 0.231203
H29   H     H_    0.486635 0.200283 0.025771 0.232949
C26   C     C_3   0.357365 0.039018 0.935956 -0.938230
H30   H     H_    0.351704 0.029280 0.042919 0.250350
H31   H     H_    0.420241 0.970987 0.880089 0.261761
H32   H     H_    0.271236 0.011434 0.864581 0.257408

loop_
_geom_bond_atom_site_label_1
_geom_bond_atom_site_label_2
_ccdc_geom_bond_type
C2    O2    A    
C26   H32   S    
C4    O6    A    
C11   C12   S    
C5    C7    T    
C1    O1    A    
O9    C15   S    
C12   O9    S    
Cu2   O3    S    
C9    C11   D    
C18   H10   S    
C2    O4    A    
C20   H14   S    
C19   C20   S    
Cu1   O1    S    
N1    O12   S    
C3    C5    S    
C24   C25   S    
O12   C24   S    
Cu2   O7    S    
C17   H8    S    
C16   H5    S    
Cu1   O8    S    
C26   H30   S    
C20   H15   S    
Cu1   O4    S    
O11   C21   S    
C15   H4    S    
C18   H11   S    
C14   H1    S    
C22   H21   S    
C15   H3    S    
C9    H18   S    
C10   C12   D    
C13   H2    S    
C25   C26   S    
C6    C8    T    
C10   H17   S    
C25   H29   S    
C17   H7    S    
C16   H6    S    
C19   H13   S    
C1    O3    A    
C20   H16   S    
C21   H20   S    
C3    O7    A    
Cu2   N1    S    
Cu2   O6    S    
Cu1   N2    S    
C18   C19   S    
C23   H25   S    
Cu1   O5    S    
C4    C6    S    
C22   H22   S    
C24   H26   S    
C13   N1    D    
C11   O10   S    
C2    C10   S    
C14   N2    D    
C3    O5    A    
C16   C17   S    
C1    C9    S    
C19   H12   S    
C23   H24   S    
C7    C8    S    
C26   H31   S    
C21   H19   S    
N2    O11   S    
C22   C23   S    
O10   C18   S    
C15   C16   S    
C4    O8    A    
C13   C14   S    
C25   H28   S    
C17   H9    S    
Cu1   Cu2   S    
Cu2   O2    S    
C23   H23   S    
C24   H27   S    
C21   C22   S    
