data_mof_unit_26620.cif
_audit_creation_date              2012-12-11T17:29:38-0500
_audit_creation_method            fapswitch 2.2
_symmetry_space_group_name_H-M    P1
_symmetry_Int_Tables_number       1
_space_group_crystal_system       triclinic
_cell_length_a                    8.436522
_cell_length_b                    16.566342
_cell_length_c                    18.707043
_cell_angle_alpha                 100.337384
_cell_angle_beta                  90.388981
_cell_angle_gamma                 94.404039
_cell_volume                      2563.94230859

loop_
_atom_site_label
_atom_site_type_symbol
_atom_type_description
_atom_site_fract_x
_atom_site_fract_y
_atom_site_fract_z
_atom_type_partial_charge
Ba1   Ba    Ba6+2 0.845660 0.536000 0.465120 1.785164
Ba2   Ba    Ba6+2 0.344160 0.464070 0.534880 1.700206
C1    C     C_3   0.670308 0.800688 0.336927 -0.293924
C2    C     C_R   0.930603 0.408261 0.094031 -0.088804
C3    C     C_R   0.794420 0.415322 0.949732 -0.101082
C4    C     C_3   0.089539 0.699362 0.266025 0.203240
C5    C     C_R   0.944374 0.454796 0.974678 0.039827
C6    C     C_R   0.734790 0.417129 0.880382 -0.036450
C7    C     C_R   0.821385 0.457405 0.831727 -0.014384
C8    C     C_R   0.971391 0.498090 0.854960 0.005657
C9    C     C_R   0.030573 0.498814 0.927199 0.081414
C10   C     C_R   0.764934 0.456174 0.759815 0.034923
C11   C     C_R   0.866574 0.487858 0.710325 -0.319065
C12   C     C_3   0.577122 0.735957 0.281079 0.402062
C13   C     C_R   0.014060 0.529894 0.732127 -0.010867
C14   C     C_R   0.062382 0.538929 0.806387 -0.068381
C15   C     C_R   0.158075 0.496628 0.068661 0.037823
C16   C     C_3   0.045447 0.714572 0.190344 -0.216918
C17   C     C_R   0.220920 0.496181 0.140205 0.013187
C18   C     C_R   0.126400 0.459320 0.190915 -0.022659
C19   C     C_R   0.984870 0.413390 0.165142 -0.012417
C20   C     C_R   0.193319 0.591892 0.835114 0.027269
C21   C     C_R   0.241180 0.598645 0.907290 -0.035657
C22   C     C_R   0.175600 0.544219 0.951312 0.022407
C23   C     C_3   0.449026 0.200837 0.319277 0.214259
C24   C     C_R   0.248050 0.536200 0.019054 -0.016910
C25   C     C_R   0.412762 0.557817 0.035046 -0.032996
C26   C     C_R   0.379716 0.528760 0.159671 -0.091645
C27   C     C_R   0.477648 0.553147 0.104238 -0.024253
C28   C     C_3   0.266609 0.729439 0.663003 0.260498
C29   C     C_R   0.439537 0.525446 0.231096 -0.072659
C30   C     C_R   0.346990 0.483175 0.276934 -0.243228
C31   C     C_R   0.183575 0.460767 0.263164 -0.008800
C32   C     C_R   0.395763 0.731991 0.465027 -0.316873
C33   C     C_R   0.530947 0.761690 0.509347 -0.048251
C34   C     C_3   0.525379 0.122570 0.278552 -0.246700
C35   C     C_R   0.568346 0.848381 0.527178 -0.120679
C36   C     C_R   0.477795 0.902567 0.495095 0.214224
C37   C     C_R   0.337612 0.870404 0.455561 -0.120528
C38   C     C_R   0.293022 0.785865 0.442785 -0.029064
C39   C     C_R   0.607827 0.151340 0.496416 -0.155617
C40   C     C_3   0.346074 0.781019 0.731334 -0.326448
C41   C     C_R   0.662222 0.233457 0.497551 -0.039955
C42   C     C_R   0.706209 0.097425 0.522674 0.306637
C43   C     C_R   0.808784 0.264393 0.530405 -0.284630
C44   C     C_R   0.908244 0.212194 0.556523 -0.024598
C45   C     C_3   0.088427 0.288823 0.738054 0.207156
C46   C     C_R   0.857587 0.128625 0.552033 -0.109540
C47   C     C_3   0.980119 0.284059 0.379711 0.188904
C48   C     C_3   0.928515 0.192198 0.356352 -0.230942
C49   C     C_3   0.738771 0.687046 0.691847 0.174686
C50   C     C_3   0.826946 0.754220 0.751460 -0.195349
C51   C     C_2   0.053035 0.137326 0.371123 0.476514
C52   C     C_2   0.634725 0.623755 0.721348 0.377644
C53   C     C_2   0.915987 0.720214 0.808202 0.531001
C54   C     C_2   0.720259 0.817356 0.788326 0.598755
C55   C     C_2   0.513127 0.777473 0.223178 0.591882
C56   C     C_3   0.119758 0.264299 0.813658 -0.221471
C57   C     C_2   0.347708 0.234988 0.266912 0.486165
C58   C     C_2   0.555073 0.063431 0.328512 0.416704
C59   C     C_2   0.423744 0.074130 0.216214 0.494182
C60   C     C_2   0.139114 0.787978 0.171321 0.549067
C61   C     C_2   0.913075 0.293559 0.728086 0.497569
C62   C     C_2   0.285938 0.287429 0.842492 0.503521
C63   C     C_2   0.077061 0.173981 0.812739 0.568960
C64   C     C_2   0.599470 0.131344 0.731470 0.561538
C65   C     C_2   0.651030 0.549525 0.109930 0.592066
C66   C     C_2   0.435341 0.445733 0.328656 0.498744
C67   C     C_3   0.522736 0.250025 0.674400 0.324259
C68   C     C_2   0.523474 0.565151 0.974204 0.496565
C69   C     C_2   0.680026 0.883755 0.588079 0.559109
C70   C     C_2   0.347012 0.644620 0.448860 0.635859
C71   C     C_2   0.216475 0.787979 0.616441 0.549662
C72   C     C_3   0.478679 0.161624 0.685812 -0.270553
C73   C     C_R   0.008184 0.453928 0.045821 0.040300
H1    H     H_    0.073741 0.294111 0.423197 0.039619
H2    H     H_    0.363277 0.157269 0.712658 0.074201
H3    H     H_    0.827424 0.482437 0.654371 0.057653
H4    H     H_    0.620143 0.385312 0.865163 0.154452
H5    H     H_    0.256277 0.631413 0.803234 0.120704
H6    H     H_    0.717477 0.383385 0.982959 0.075395
H7    H     H_    0.824576 0.368189 0.078893 0.080936
H8    H     H_    0.935786 0.087834 0.571205 0.118237
H9    H     H_    0.918122 0.725923 0.188225 0.181434
H10   H     H_    0.474278 0.709687 0.308535 -0.273350
H11   H     H_    0.393781 0.740775 0.765986 0.182829
H12   H     H_    0.822478 0.176318 0.386284 0.052940
H13   H     H_    0.443893 0.823103 0.716573 0.050268
H14   H     H_    0.259619 0.819550 0.763041 0.169523
H15   H     H_    0.875559 0.316445 0.400716 0.043705
H16   H     H_    0.105121 0.143812 0.425020 0.016652
H17   H     H_    0.829806 0.654484 0.658021 0.017910
H18   H     H_    0.595220 0.568085 0.684231 0.054515
H19   H     H_    0.709205 0.771695 0.382239 0.144151
H20   H     H_    0.916227 0.788876 0.722710 0.117871
H21   H     H_    0.869044 0.665731 0.827717 0.055179
H22   H     H_    0.701433 0.870657 0.763952 0.006064
H23   H     H_    0.894902 0.178700 0.297667 0.168625
H24   H     H_    0.437517 0.827610 0.238387 -0.083506
H25   H     H_    0.595116 0.851069 0.358783 0.063956
H26   H     H_    0.221313 0.217922 0.262891 0.027505
H27   H     H_    0.457942 0.041000 0.359320 0.014338
H28   H     H_    0.307453 0.046166 0.226196 0.052025
H29   H     H_    0.639865 0.142810 0.255744 0.166742
H30   H     H_    0.775957 0.827731 0.311955 0.158475
H31   H     H_    0.139112 0.847437 0.206916 0.039943
H32   H     H_    0.871144 0.320611 0.683886 -0.128277
H33   H     H_    0.374485 0.242699 0.835330 0.009860
H34   H     H_    0.369594 0.182535 0.361671 -0.053048
H35   H     H_    0.137198 0.127634 0.776960 0.003784
H36   H     H_    0.021829 0.641413 0.273510 0.105378
H37   H     H_    0.605322 0.153238 0.789749 0.089537
H38   H     H_    0.917233 0.376913 0.198422 0.109818
H39   H     H_    0.694600 0.493682 0.121083 -0.060965
H40   H     H_    0.522588 0.402990 0.308737 0.053135
H41   H     H_    0.331648 0.647098 0.927893 0.148263
H42   H     H_    0.218437 0.691136 0.268770 -0.059889
H43   H     H_    0.507578 0.521375 0.923683 0.020036
H44   H     H_    0.492582 0.129168 0.472059 0.092278
H45   H     H_    0.147901 0.351186 0.738329 0.055283
H46   H     H_    0.261308 0.911768 0.435960 0.100136
H47   H     H_    0.641447 0.930023 0.631612 0.031682
H48   H     H_    0.356909 0.611299 0.394232 -0.046997
H49   H     H_    0.849414 0.328274 0.531971 0.063173
H50   H     H_    0.064887 0.658813 0.149479 0.110733
H51   H     H_    0.350718 0.689130 0.632552 0.027474
H52   H     H_    0.299266 0.837347 0.605710 -0.145881
H53   H     H_    0.043990 0.300008 0.854511 0.125448
H54   H     H_    0.640428 0.252084 0.649559 -0.004817
H55   H     H_    0.436277 0.265169 0.635509 0.113415
H56   H     H_    0.465836 0.120434 0.631946 0.099836
N1    N     N_2   0.518640 0.989554 0.503172 -0.241140
N2    N     N_2   0.663057 0.011196 0.515840 -0.202712
O1    O     O_2   0.884010 0.444810 0.325060 -0.460371
O2    O     O_2   0.233937 0.212905 0.544468 -0.515228
O3    O     O_3   0.147717 0.231794 0.680584 -0.640629
O4    O     O_3   0.132090 0.451130 0.414310 -0.421536
O5    O     O_3   0.558660 0.599640 0.536520 -0.457917
O6    O     O_2   0.381010 0.300300 0.465220 -0.456700
O7    O     O_3   0.569284 0.263315 0.347872 -0.633725
O8    O     O_2   0.429369 0.457142 0.759052 -0.448444
O9    O     O_3   0.521563 0.306688 0.740167 -0.598172
O10   O     O_3   0.640770 0.594650 0.368950 -0.471469
O11   O     O_2   0.774495 0.532945 0.247745 -0.498242
O12   O     O_3   0.639587 0.726166 0.650731 -0.681944
O13   O     O_3   0.035613 0.314189 0.318713 -0.650223
O14   O     O_3   0.680789 0.677257 0.249761 -0.570432
O15   O     O_2   0.808690 0.699720 0.534830 -0.367537
O16   O     O_3   0.053760 0.638480 0.405010 -0.474431
O17   O     O_2   0.963593 0.788173 0.454023 -0.393776
O18   O     O_2   0.093039 0.083137 0.323110 -0.588389
O19   O     O_2   0.590760 0.633992 0.784154 -0.583480
O20   O     O_2   0.037780 0.757111 0.836450 -0.555177
O21   O     O_2   0.654253 0.809744 0.844956 -0.497551
O22   O     O_2   0.546162 0.756492 0.159429 -0.466268
O23   O     O_3   0.048932 0.765688 0.319072 -0.621031
O24   O     O_2   0.408250 0.274503 0.223585 -0.585791
O25   O     O_2   0.685264 0.036840 0.332187 -0.544768
O26   O     O_2   0.471729 0.065720 0.154098 -0.483317
O27   O     O_2   0.213647 0.781742 0.115158 -0.493440
O28   O     O_2   0.817731 0.270010 0.769999 -0.602418
O29   O     O_2   0.322022 0.356814 0.875906 -0.598033
O30   O     O_2   0.974120 0.152090 0.852319 -0.512590
O31   O     O_2   0.690994 0.081760 0.703853 -0.577052
O32   O     O_2   0.743879 0.607682 0.103136 -0.501046
O33   O     O_2   0.427005 0.469579 0.393387 -0.508233
O34   O     O_2   0.305690 0.555220 0.674980 -0.474016
O35   O     O_2   0.624260 0.622789 0.977988 -0.459438
O36   O     O_2   0.816654 0.865009 0.588635 -0.496941
O37   O     O_2   0.273907 0.612846 0.493858 -0.520291
O38   O     O_2   0.081536 0.782382 0.591860 -0.484302
O39   O     O_3   0.057610 0.548940 0.585700 -0.430427
O40   O     O_3   0.548930 0.405410 0.631060 -0.506390
O41   O     O_3   0.130955 0.685979 0.683697 -0.641904
O42   O     O_3   0.631040 0.400420 0.463490 -0.412692
O43   O     O_3   0.135930 0.361590 0.595000 -0.480010
P1    P     P_3+3 0.056550 0.421630 0.336220 1.023622
P2    P     P_3+3 0.635450 0.689180 0.556380 1.035058
P3    P     P_3+3 0.090964 0.744886 0.405540 1.018194
P4    P     P_3+3 0.133150 0.578440 0.663790 1.029703
P5    P     P_3+3 0.106524 0.254989 0.593737 0.927230
P6    P     P_3+3 0.630524 0.581407 0.273816 0.981496
P7    P     P_3+3 0.559930 0.295875 0.442969 0.978122
P8    P     P_3+3 0.566056 0.407351 0.724084 0.990497

loop_
_geom_bond_atom_site_label_1
_geom_bond_atom_site_label_2
_ccdc_geom_bond_type
O9    P8    S    
C28   H51   S    
C56   H53   S    
O41   P4    S    
C45   O3    S    
C25   C27   A    
C4    H36   S    
C69   H47   S    
C17   C18   A    
C47   H15   S    
Ba1   O4    S    
C43   C44   A    
C1    H30   S    
C5    C9    A    
C10   C11   A    
C55   O22   D    
C24   C25   A    
C48   C51   S    
C32   C38   A    
Ba2   O6    S    
C44   P5    S    
C26   C27   A    
C59   H28   S    
C65   H39   S    
C58   O25   D    
C32   C33   A    
C59   O26   D    
Ba2   O40   S    
C45   C61   S    
C36   C37   A    
C49   H17   S    
O23   P3    S    
C29   P6    S    
C49   O12   S    
C13   C14   A    
C64   C72   S    
C9    C22   A    
O16   P3    S    
C50   H20   S    
C53   O20   D    
Ba1   Ba2   S    
C52   H18   S    
O15   P2    D    
O4    P1    S    
Ba2   O43   S    
C21   H41   S    
C27   C65   S    
Ba1   P1    S    
C1    H25   S    
O40   P8    S    
C6    C7    A    
C2    C73   A    
C72   H2    S    
O3    P5    S    
C51   H16   S    
C6    H4    S    
C16   H9    S    
C21   C22   A    
C69   O36   D    
Ba1   O16   S    
C40   H11   S    
C71   O38   D    
C49   C52   S    
C7    C8    A    
C4    H42   S    
C50   C53   S    
C23   H34   S    
C30   C66   S    
C65   O32   D    
C33   P2    S    
O34   P4    D    
C51   O18   D    
C13   P4    S    
C39   C41   A    
C54   O21   D    
Ba2   P4    S    
C54   H22   S    
C58   H27   S    
C62   H33   S    
C44   C46   A    
C43   H49   S    
C56   C62   S    
O43   P5    S    
C4    C16   S    
O11   P6    D    
C48   H23   S    
O7    P7    S    
C31   P1    S    
C49   C50   S    
C57   H26   S    
O10   P6    S    
C23   O7    S    
C19   H38   S    
C37   C38   A    
C3    C5    A    
C28   C71   S    
C67   H55   S    
C5    C73   A    
C66   H40   S    
C67   O9    S    
C71   H52   S    
C12   O14   S    
O13   P1    S    
C70   O37   D    
O12   P2    S    
Ba2   O5    S    
C35   C36   A    
Ba1   O10   S    
C68   O35   D    
Ba2   O42   S    
C38   P3    S    
C3    H6    S    
Ba1   P2    S    
C56   C63   S    
C29   C30   A    
C63   O30   D    
C47   H1    S    
C64   O31   D    
C67   C72   S    
C39   H44   S    
C17   C26   A    
C41   C43   A    
C25   C68   S    
C48   H12   S    
C18   C31   A    
O14   P6    S    
C62   O29   D    
C45   H45   S    
C35   C69   S    
C70   H48   S    
C39   C42   A    
C60   O27   D    
C40   H13   S    
O2    P5    D    
C61   H32   S    
C34   C59   S    
O5    P2    S    
C32   C70   S    
O6    P7    D    
O42   P7    S    
C42   N2    S    
C61   O28   D    
C12   C55   S    
C11   H3    S    
Ba1   O42   S    
C66   O33   D    
C14   C20   A    
C33   C35   A    
Ba2   O4    S    
C26   C29   A    
C16   C60   S    
C12   H10   S    
C22   C24   A    
C53   H21   S    
C34   C58   S    
C3    C6    A    
C52   O19   D    
C60   H31   S    
C1    C12   S    
Ba1   O39   S    
C37   H46   S    
C46   H8    S    
C34   H29   S    
O8    P8    D    
C30   C31   A    
C40   H14   S    
C11   C13   A    
C20   H5    S    
C16   H50   S    
C8    C14   A    
C45   C56   S    
C2    C19   A    
C57   O24   D    
O39   P4    S    
C10   P8    S    
C50   C54   S    
C68   H43   S    
C41   P7    S    
C15   C17   A    
C15   C24   A    
C47   O13   S    
N1    N2    D    
C1    H19   S    
O1    P1    D    
C7    C10   A    
C63   H35   S    
C8    C9    A    
C23   C34   S    
C42   C46   A    
C2    H7    S    
C18   C19   A    
C67   H54   S    
C47   C48   S    
Ba2   O39   S    
C15   C73   A    
C20   C21   A    
C28   C40   S    
Ba1   O15   S    
C23   C57   S    
C64   H37   S    
C72   H56   S    
Ba2   O34   S    
C28   O41   S    
C4    O23   S    
Ba1   O5    S    
Ba1   O1    S    
C36   N1    S    
O17   P3    D    
C55   H24   S    
