data_mof_unit_12517.cif
_audit_creation_date              2012-12-10T20:55:05-0500
_audit_creation_method            fapswitch 2.2
_symmetry_space_group_name_H-M    P1
_symmetry_Int_Tables_number       1
_space_group_crystal_system       triclinic
_cell_length_a                    15.880326
_cell_length_b                    15.067547
_cell_length_c                    10.581869
_cell_angle_alpha                 92.217873
_cell_angle_beta                  90.281004
_cell_angle_gamma                 89.840834
_cell_volume                      2530.06811972

loop_
_atom_site_label
_atom_site_type_symbol
_atom_type_description
_atom_site_fract_x
_atom_site_fract_y
_atom_site_fract_z
_atom_type_partial_charge
C1    C     C_R   0.339051 0.500146 0.501361 0.924441
C2    C     C_R   0.660979 0.499855 0.499758 0.926359
C3    C     C_R   0.956278 0.425315 0.547141 -0.089353
C4    C     C_R   0.044719 0.426189 0.549481 -0.092577
C5    C     C_1   0.823615 0.499632 0.502704 0.061001
C6    C     C_1   0.176419 0.500853 0.504763 0.062173
C7    C     C_1   0.251038 0.500547 0.503549 -0.072202
C8    C     C_1   0.748993 0.499606 0.501266 -0.031102
C9    C     C_R   0.424197 0.951953 0.475032 -0.086888
C10   C     C_R   0.575624 0.953145 0.519269 -0.057033
C11   C     C_R   0.499898 0.904985 0.498444 -0.115845
C12   C     C_R   0.575429 0.047693 0.517698 -0.066876
C13   C     C_R   0.423973 0.046689 0.474156 -0.071001
C14   C     C_R   0.499818 0.094805 0.495263 -0.105316
C15   C     C_1   0.500092 0.806933 0.499282 0.252221
C16   C     C_1   0.499935 0.192987 0.498205 0.220761
C17   C     C_R   0.497296 0.497921 0.257477 0.892752
C18   C     C_R   0.517157 0.502014 0.737602 0.913640
C19   C     C_R   0.419772 0.636798 0.102347 -0.011151
C20   C     C_R   0.530021 0.672944 0.903530 -0.010645
C21   C     C_R   0.424127 0.722365 0.055112 -0.179806
C22   C     C_R   0.481830 0.741226 0.961368 -0.172069
C23   C     C_R   0.518576 0.584419 0.942627 0.017358
C24   C     C_R   0.477029 0.570434 0.055663 0.018909
C25   C     C_R   0.499693 0.493288 0.120524 -0.135381
C26   C     C_R   0.541208 0.507643 0.870299 -0.124054
C27   C     C_R   0.544671 0.422570 0.057659 -0.120481
C28   C     C_R   0.563379 0.429070 0.929589 -0.109997
C29   C     C_R   0.955378 0.575414 0.461764 -0.096396
C30   C     C_R   0.043774 0.575293 0.460937 -0.092430
C31   C     C_R   0.912852 0.500134 0.504043 -0.022613
C32   C     C_R   0.087193 0.500885 0.505397 -0.019127
H1    H     H_    0.383014 0.774906 0.091031 0.203227
H2    H     H_    0.487598 0.809126 0.932533 0.204151
N1    N     N_1   0.500000 0.270550 0.500000 -0.056914
N2    N     N_1   0.500000 0.729450 0.500000 -0.058635
O1    O     O_R   0.378020 0.573650 0.500040 -0.578690
O2    O     O_R   0.621980 0.573650 0.499960 -0.607757
O3    O     O_R   0.378020 0.426320 0.500100 -0.584855
O4    O     O_R   0.621980 0.426320 0.499900 -0.592737
O5    O     O_R   0.500000 0.573680 0.316780 -0.624212
O6    O     O_R   0.500000 0.573680 0.683220 -0.632644
O7    O     O_R   0.500000 0.426350 0.316830 -0.593738
O8    O     O_R   0.500000 0.426350 0.683170 -0.615557
Zn1   Zn    Zn3+2 0.500000 0.598370 0.500000 1.062790
Zn2   Zn    Zn3+2 0.500000 0.401630 0.500000 1.083679
C33   C     C_2   0.575475 0.343760 0.124117 1.016044
O9    O     O_2   0.526024 0.285835 0.152611 -0.532598
O10   O     O_R   0.661283 0.335308 0.151049 -0.776080
H3    H     H_    0.674735 0.278828 0.196226 0.375182
C34   C     C_2   0.608197 0.356035 0.857872 0.975710
O11   O     O_2   0.661903 0.374106 0.780593 -0.587305
O12   O     O_R   0.588081 0.267253 0.876820 -0.763857
H4    H     H_    0.622461 0.224435 0.821640 0.369188
C35   C     C_2   0.348702 0.615570 0.186714 0.932902
O13   O     O_2   0.316219 0.673953 0.253806 -0.609538
O14   O     O_R   0.316621 0.529208 0.185401 -0.794442
H5    H     H_    0.265261 0.523983 0.240990 0.345071
C36   C     C_2   0.598068 0.696769 0.814567 0.968022
O15   O     O_2   0.597831 0.769451 0.766962 -0.624275
O16   O     O_R   0.663722 0.637023 0.787513 -0.783331
H6    H     H_    0.706039 0.661050 0.726149 0.355791
C37   C     C_2   0.091049 0.651332 0.409887 0.980342
O17   O     O_2   0.071159 0.680635 0.307732 -0.569015
O18   O     O_R   0.158323 0.688992 0.478516 -0.740260
H7    H     H_    0.185346 0.739773 0.433656 0.386946
C38   C     C_2   0.907573 0.655328 0.422848 0.976253
O19   O     O_2   0.848836 0.647534 0.348081 -0.573054
O20   O     O_R   0.930134 0.739445 0.472059 -0.758877
H8    H     H_    0.893041 0.788341 0.438951 0.375082
C39   C     C_2   0.909044 0.345463 0.585834 0.979191
O21   O     O_2   0.928762 0.271741 0.543207 -0.568489
O22   O     O_R   0.842129 0.354808 0.670698 -0.736911
H9    H     H_    0.815163 0.295868 0.689366 0.367933
C40   C     C_2   0.092971 0.350604 0.601494 0.975754
O23   O     O_2   0.073216 0.321076 0.703211 -0.564899
O24   O     O_R   0.161099 0.313757 0.534467 -0.765873
H10   H     H_    0.189565 0.264134 0.580734 0.359218
C41   C     C_2   0.343446 0.095626 0.455746 0.966798
O25   O     O_2   0.340295 0.157416 0.384224 -0.560204
O26   O     O_R   0.271172 0.070752 0.520404 -0.760630
H11   H     H_    0.220156 0.107810 0.498530 0.369867
C42   C     C_2   0.655047 0.098128 0.534512 0.921122
O27   O     O_2   0.682581 0.140019 0.447134 -0.590550
O28   O     O_R   0.696803 0.100053 0.651080 -0.737561
H12   H     H_    0.749847 0.137321 0.650931 0.360936
C43   C     C_2   0.345697 0.901419 0.445302 0.976974
O29   O     O_2   0.323364 0.842074 0.513203 -0.581984
O30   O     O_R   0.297649 0.921688 0.339097 -0.759280
H13   H     H_    0.245959 0.882719 0.328551 0.369450
C44   C     C_2   0.655839 0.903829 0.536645 0.959322
O31   O     O_2   0.677746 0.847304 0.457378 -0.604720
O32   O     O_R   0.705290 0.920590 0.644440 -0.699187
H14   H     H_    0.757807 0.882200 0.645618 0.364443

loop_
_geom_bond_atom_site_label_1
_geom_bond_atom_site_label_2
_ccdc_geom_bond_type
C6    C32   S    
C35   O13   D    
C37   O18   S    
O32   H14   S    
O22   H9    S    
C18   C26   S    
C43   O29   D    
C13   C41   S    
O26   H11   S    
C33   O10   S    
O12   H4    S    
O4    Zn2   S    
C19   C21   A    
C18   O6    A    
C16   N1    T    
C28   C34   S    
C21   H1    S    
C19   C35   S    
C23   C26   A    
C9    C13   A    
C4    C40   S    
C29   C38   S    
C11   C15   S    
C42   O27   D    
O2    Zn1   S    
C23   C24   A    
C1    O1    A    
C36   O15   D    
C13   C14   A    
O16   H6    S    
O8    Zn2   S    
C22   H2    S    
C36   O16   S    
C38   O19   D    
C24   C25   A    
C44   O31   D    
C41   O26   S    
O28   H12   S    
C34   O11   D    
C12   C42   S    
C34   O12   S    
O6    Zn1   S    
C3    C39   S    
C40   O23   D    
C17   O7    A    
C29   C30   A    
C18   O8    A    
C44   O32   S    
C9    C11   A    
C2    O2    A    
C33   O9    D    
C20   C23   A    
N2    Zn1   S    
C20   C36   S    
C3    C31   A    
C40   O24   S    
C4    C32   A    
C10   C12   A    
O3    Zn2   S    
C42   O28   S    
C20   C22   A    
C10   C44   S    
O18   H7    S    
C35   O14   S    
C14   C16   S    
C41   O25   D    
O1    Zn1   S    
C3    C4    A    
C15   N2    T    
C39   O22   S    
C27   C33   S    
C1    C7    S    
C2    C8    S    
C12   C14   A    
C5    C8    T    
C6    C7    T    
C25   C27   A    
C26   C28   A    
C17   C25   S    
C43   O30   S    
C19   C24   A    
C39   O21   D    
C29   C31   A    
C9    C43   S    
C30   C32   A    
O14   H5    S    
C30   C37   S    
O20   H8    S    
O7    Zn2   S    
C17   O5    A    
C10   C11   A    
C1    O3    A    
C37   O17   D    
C2    O4    A    
O10   H3    S    
C27   C28   A    
O5    Zn1   S    
O24   H10   S    
C38   O20   S    
O30   H13   S    
C21   C22   A    
N1    Zn2   S    
C5    C31   S    
