data_mof_unit_15937.cif
_audit_creation_date              2013-03-05T15:47:02-0500
_audit_creation_method            fapswitch 2.2
_symmetry_space_group_name_H-M    P1
_symmetry_Int_Tables_number       1
_space_group_crystal_system       triclinic
_cell_length_a                    8.187526
_cell_length_b                    17.399156
_cell_length_c                    19.115626
_cell_angle_alpha                 98.69729
_cell_angle_beta                  94.914502
_cell_angle_gamma                 97.197897
_cell_volume                      2655.37155204

loop_
_atom_site_label
_atom_site_type_symbol
_atom_site_description
_atom_site_fract_x
_atom_site_fract_y
_atom_site_fract_z
_atom_type_partial_charge
P1    P     P_3+3 0.992230 0.679190 0.566750 0.591095
O1    O     O_2   0.166667 0.691630 0.546720 -0.337776
O2    O     O_3   0.893830 0.593690 0.541700 -0.376097
O3    O     O_3   0.390350 0.644650 0.417800 -0.362643
O4    O     O_2   0.259429 0.775505 0.447480 -0.396487
O5    O     O_3   0.021261 0.698040 0.659898 -0.483155
O6    O     O_3   0.456972 0.777720 0.348475 -0.552906
H1    H     H_    0.280123 0.686752 0.296067 0.181651
C1    C     C_3   0.420681 0.740091 0.222034 -0.928862
H2    H     H_    0.336737 0.784640 0.215978 0.282628
H3    H     H_    0.549744 0.766016 0.217737 0.254423
P2    P     P_3+3 0.339610 0.439630 0.337240 0.500713
P3    P     P_3+3 0.931435 0.603672 0.288545 0.423911
O7    O     O_2   0.171750 0.463380 0.328050 -0.383611
O8    O     O_3   0.965290 0.605410 0.380210 -0.391623
O9    O     O_2   0.060301 0.557638 0.252659 -0.408276
O10   O     O_3   0.305820 0.337651 0.311017 -0.519533
O11   O     O_3   0.980253 0.699662 0.272140 -0.522064
C2    C     C_3   0.903636 0.749614 0.319846 0.395673
H4    H     H_    0.955120 0.750077 0.375598 0.120777
H5    H     H_    0.767809 0.731237 0.314200 0.048265
C3    C     C_3   0.935885 0.832845 0.303975 -0.887108
H6    H     H_    0.071067 0.853750 0.311232 0.271681
H7    H     H_    0.886440 0.834480 0.248355 0.262350
C4    C     C_3   0.759312 0.366934 0.312335 0.240553
H8    H     H_    0.647522 0.387269 0.332721 0.094712
H9    H     H_    0.866032 0.414397 0.326651 0.048345
C5    C     C_3   0.730731 0.345873 0.231572 0.446771
H10   H     H_    0.715546 0.398870 0.207527 -0.020742
H11   H     H_    0.838777 0.320740 0.210940 0.058847
Ba1   Ba    Ba6+2 0.162080 0.538580 0.468810 1.636406
C6    C     C_3   0.045118 0.629448 0.686633 0.462792
H12   H     H_    0.148984 0.604082 0.663337 0.062522
H13   H     H_    0.931972 0.585758 0.674479 0.120847
C7    C     C_3   0.084349 0.650235 0.767079 -0.937556
H14   H     H_    0.203343 0.690146 0.780513 0.259636
H15   H     H_    0.093308 0.596618 0.790957 0.212113
H16   H     H_    0.985084 0.680232 0.790475 0.289985
C8    C     C_3   0.245052 0.301128 0.365578 0.239511
H17   H     H_    0.123922 0.319317 0.376302 -0.011782
H18   H     H_    0.332712 0.315713 0.414867 0.107552
C9    C     C_3   0.222343 0.212690 0.340921 0.495061
H19   H     H_    0.137377 0.196944 0.290860 0.074236
H20   H     H_    0.168382 0.181485 0.381624 -0.067103
P4    P     P_3+3 0.818060 0.320800 0.433200 0.518231
O12   O     O_2   0.643630 0.308330 0.453260 -0.323975
O13   O     O_3   0.916470 0.406310 0.458240 -0.419138
O14   O     O_3   0.419940 0.355340 0.582140 -0.417856
O15   O     O_3   0.790929 0.299916 0.340120 -0.544343
P5    P     P_3+3 0.865171 0.392495 0.711691 0.482799
O16   O     O_3   0.383960 0.539280 0.585630 -0.296383
O17   O     O_3   0.845010 0.394580 0.619730 -0.338704
O18   O     O_2   0.749786 0.448081 0.745122 -0.410869
O19   O     O_3   0.774950 0.300308 0.727204 -0.523859
Ba2   Ba    Ba6+2 0.648090 0.461410 0.531130 1.659864
P6    P     P_3+3 0.425951 0.747556 0.430426 0.481911
C10   C     C_3   0.409230 0.713264 0.293729 0.450990
H21   H     H_    0.492570 0.668361 0.297829 0.045554
H22   H     H_    0.383709 0.689087 0.178663 0.228131
O20   O     O_3   0.426330 0.460710 0.414310 -0.383422
C11   C     C_3   0.577471 0.683110 0.768620 0.073299
H23   H     H_    0.492621 0.670480 0.809068 -0.003332
H24   H     H_    0.686022 0.651116 0.774475 0.108407
C12   C     C_3   0.640308 0.770756 0.782056 0.922292
H25   H     H_    0.534162 0.804439 0.777995 0.033388
P7    P     P_3+3 0.460807 0.560306 0.676255 0.527427
O21   O     O_2   0.638540 0.536570 0.671920 -0.336103
O22   O     O_3   0.491153 0.662684 0.700166 -0.502616
H26   H     H_    0.873685 0.872543 0.340734 0.224375
C13   C     C_3   0.896311 0.251357 0.737577 0.925156
H27   H     H_    0.017130 0.284281 0.762097 -0.270191
C14   C     C_3   0.841921 0.195949 0.788841 0.065606
H28   H     H_    0.942225 0.160719 0.800311 0.109347
H29   H     H_    0.819217 0.230921 0.839800 0.062374
P8    P     P_3+3 0.388218 0.253511 0.575523 0.536390
C15   C     C_3   0.365871 0.288892 0.709195 0.506348
H30   H     H_    0.238146 0.298086 0.691321 0.035755
O23   O     O_2   0.525929 0.219988 0.534875 -0.320480
O24   O     O_3   0.420751 0.230568 0.661222 -0.437018
H31   H     H_    0.450467 0.345105 0.714555 0.124439
H32   H     H_    0.289600 0.205794 0.778125 0.275313
C16   C     C_3   0.365767 0.264092 0.782130 -0.860064
H33   H     H_    0.313342 0.307626 0.819091 0.192921
H34   H     H_    0.494137 0.261205 0.804267 0.285202
C17   C     C_2   0.709632 0.734807 0.518486 0.118997
C18   C     C_3   0.598314 0.793609 0.501117 0.229935
C19   C     C_2   0.689481 0.869121 0.486392 -0.284518
C20   C     C_2   0.856259 0.885681 0.500127 0.097886
C21   C     C_2   0.950513 0.823330 0.524002 -0.305033
C22   C     C_1   0.873705 0.753284 0.531805 0.202574
C23   C     C_R   0.119358 0.136169 0.517250 -0.149095
C24   C     C_R   0.180366 0.216439 0.530500 0.218906
C25   C     C_R   0.926418 0.246868 0.472586 0.310028
C26   C     C_R   0.864081 0.166018 0.459111 -0.204696
C27   C     C_R   0.957871 0.109689 0.482936 0.140270
C28   C     C_2   0.946421 0.966922 0.500801 -0.079871
C29   C     C_2   0.880547 0.025072 0.472616 -0.141496
C30   C     C_R   0.082042 0.271163 0.510245 -0.473147
H35   H     H_    0.759634 0.011595 0.442341 0.134719
H36   H     H_    0.082001 0.838660 0.540923 0.191854
H37   H     H_    0.198437 0.095985 0.534565 0.137559
H38   H     H_    0.069542 0.978953 0.528962 0.138674
H39   H     H_    0.614195 0.912766 0.473016 0.167201
H40   H     H_    0.742573 0.147129 0.430152 0.170151
H41   H     H_    0.130209 0.333036 0.520674 0.158916
C31   C     C_R   0.615480 0.531516 0.301199 -0.555393
C32   C     C_R   0.458484 0.491141 0.276394 0.328836
C33   C     C_R   0.401118 0.482771 0.203851 -0.208184
C34   C     C_R   0.501625 0.514545 0.155790 0.010777
C35   C     C_R   0.662259 0.552945 0.181810 -0.273481
C36   C     C_R   0.719247 0.559978 0.253979 0.239653
C37   C     C_R   0.482033 0.566618 0.039783 -0.161468
C38   C     C_R   0.431297 0.557526 0.966816 -0.145290
C39   C     C_R   0.339484 0.486903 0.930365 0.149162
C40   C     C_R   0.298122 0.425941 0.969129 -0.171399
C41   C     C_R   0.349204 0.434997 0.042179 -0.140766
C42   C     C_R   0.442577 0.505360 0.078440 0.147224
C43   C     C_R   0.127654 0.439348 0.823624 -0.296820
C44   C     C_R   0.078621 0.431751 0.750475 0.246797
C45   C     C_R   0.341914 0.503536 0.733855 0.215531
C46   C     C_R   0.394000 0.508821 0.806475 -0.272461
C47   C     C_R   0.287232 0.477152 0.852376 0.053949
C48   C     C_R   0.187818 0.461954 0.705903 -0.483175
H42   H     H_    0.516212 0.538776 0.827329 0.133875
H43   H     H_    0.462295 0.606364 0.939090 0.134300
H44   H     H_    0.551042 0.622098 0.066160 0.137611
H45   H     H_    0.278965 0.451192 0.185116 0.144303
H46   H     H_    0.228921 0.370546 0.942673 0.124695
H47   H     H_    0.318650 0.386140 0.069913 0.144370
H48   H     H_    0.040330 0.417651 0.857964 0.136736
H49   H     H_    0.744881 0.575205 0.145929 0.156236
H50   H     H_    0.148224 0.458133 0.649854 0.149982
H51   H     H_    0.660441 0.537047 0.356892 0.182328
F1    F     F_    0.589749 0.291537 0.211711 -0.599943
F2    F     F_    0.373707 0.188476 0.329144 -0.603632
Cl1   Cl    Cl    0.748922 0.798744 0.868848 -0.621692
F3    F     F_    0.745936 0.788516 0.732183 -0.623182
Cl2   Cl    Cl    0.923878 0.195816 0.654443 -0.613842
Cl3   Cl    Cl    0.658072 0.130017 0.753688 -0.468941
Cl4   Cl    Cl    0.603985 0.663165 0.557927 -0.459403

loop_
_geom_bond_atom_site_label_1
_geom_bond_atom_site_label_2
_geom_bond_distance
_ccdc_geom_bond_type
O14   Ba2   2.799744 S    
P7    O22   1.751298 S    
C19   C20   1.354119 D    
C20   C28   1.508154 S    
P1    C22   1.874246 S    
C28   H38   1.081597 S    
C48   H50   1.082128 S    
O4    P6    1.547895 D    
O5    C6    1.396217 S    
C2    H4    1.110475 S    
C15   O24   1.405731 S    
O7    Ba1   2.820621 S    
P4    C25   1.863624 S    
C12   Cl1   1.781818 S    
C39   C40   1.406959 A    
C34   C42   1.494063 S    
C8    H18   1.110592 S    
P4    O12   1.508334 D    
C33   C34   1.412782 A    
C4    C5    1.522497 S    
P5    O19   1.758073 S    
C30   H41   1.081414 S    
P3    O11   1.749313 S    
C5    F1    1.383197 S    
C5    H10   1.106389 S    
C7    H15   1.106435 S    
O11   C2    1.405502 S    
O10   C8    1.396179 S    
C37   C42   1.406845 A    
C38   H43   1.082852 S    
C31   C32   1.392530 A    
C40   C41   1.402334 A    
P1    Ba1   3.367162 S    
C41   C42   1.407752 A    
P1    O1    1.508150 D    
C43   C47   1.412115 A    
C11   H24   1.112706 S    
C35   C36   1.400082 A    
C46   H42   1.081627 S    
C43   C44   1.403039 A    
O2    Ba2   2.831152 S    
C14   Cl3   1.787235 S    
C41   H47   1.082576 S    
C7    H14   1.109514 S    
O12   Ba2   2.842253 S    
P5    O17   1.757784 S    
C32   C33   1.405325 A    
C13   H27   1.106233 S    
C1    H2    1.110667 S    
C3    H26   1.110336 S    
C37   H44   1.082862 S    
O17   Ba2   2.723508 S    
C12   F3    1.384088 S    
P7    O21   1.567142 D    
C26   H40   1.082992 S    
P7    C45   1.845851 S    
Ba2   O20   2.752273 S    
O3    P6    1.753713 S    
O14   P8    1.741773 S    
C11   H23   1.110802 S    
C9    H20   1.105391 S    
O6    P6    1.754268 S    
C23   H37   1.079028 S    
C37   C38   1.400232 A    
C29   H35   1.082866 S    
H32   C16   1.110618 S    
C8    C9    1.522631 S    
C31   C36   1.393895 A    
P4    O13   1.584301 S    
P5    O18   1.543291 D    
C21   H36   1.084912 S    
C24   C30   1.398124 A    
P1    O5    1.750958 S    
C6    C7    1.522091 S    
C7    H16   1.109478 S    
C15   H30   1.110476 S    
C1    C10   1.519667 S    
C14   H29   1.110777 S    
C15   C16   1.520523 S    
C23   C24   1.400259 A    
C18   C19   1.504875 S    
C4    H8    1.102441 S    
C17   C18   1.507393 S    
C40   H46   1.082775 S    
P5    C44   1.842849 S    
C9    F2    1.383472 S    
P1    O2    1.584151 S    
O16   P7    1.759172 S    
C6    H13   1.106019 S    
Ba1   O20   2.880257 S    
P2    O10   1.749382 S    
C11   C12   1.522645 S    
C43   H48   1.082729 S    
H1    C10   1.106481 S    
P6    C18   1.876720 S    
O19   C13   1.407639 S    
P4    O15   1.750365 S    
C28   C29   1.362576 D    
C2    C3    1.519749 S    
C27   C29   1.504820 S    
C35   H49   1.082701 S    
C25   C26   1.411966 A    
O2    Ba1   2.886621 S    
C1    H3    1.110624 S    
C17   Cl4   1.730945 S    
C46   C47   1.412291 A    
P8    C24   1.832752 S    
C19   H39   1.082135 S    
P2    O20   1.549578 S    
P2    O7    1.487745 D    
C13   Cl2   1.778176 S    
C16   H34   1.108930 S    
P3    O8    1.745481 S    
P2    Ba1   3.368413 S    
C3    H7    1.110586 S    
C9    H19   1.110706 S    
C8    H17   1.104370 S    
C45   C46   1.402676 A    
O13   Ba2   2.887458 S    
C38   C39   1.407236 A    
C2    H5    1.109287 S    
C15   H31   1.111136 S    
Ba1   O16   2.752852 S    
C14   H28   1.110944 S    
P2    C32   1.842287 S    
Ba2   O21   2.820743 S    
C17   C22   1.334610 D    
C45   C48   1.392690 A    
O8    Ba1   2.722878 S    
C44   C48   1.396279 A    
C4    H9    1.109147 S    
Ba1   Ba2   4.479576 S    
C12   H25   1.111134 S    
C31   H51   1.082197 S    
C5    H11   1.110808 S    
P3    C36   1.831166 S    
C34   C35   1.410934 A    
C6    H12   1.102630 S    
C11   O22   1.405715 S    
C10   H21   1.106847 S    
O16   Ba2   2.879431 S    
C33   H45   1.082508 S    
C26   C27   1.421746 A    
P8    O23   1.546966 D    
C4    O15   1.395771 S    
O3    Ba1   2.800344 S    
C23   C27   1.413514 A    
C39   C47   1.493428 S    
Ba1   O13   2.830390 S    
C20   C21   1.509944 S    
P4    Ba2   3.367611 S    
C16   H33   1.108497 S    
P3    O9    1.547561 D    
C3    H6    1.110908 S    
O1    Ba1   2.841941 S    
C13   C14   1.529989 S    
C1    H22   1.110718 S    
C21   C22   1.334926 D    
P8    O24   1.750321 S    
C25   C30   1.391498 A    
O6    C10   1.403842 S    
