data_mof_unit_10910.cif
_audit_creation_date              2012-12-10T20:51:27-0500
_audit_creation_method            fapswitch 2.2
_symmetry_space_group_name_H-M    P1
_symmetry_Int_Tables_number       1
_space_group_crystal_system       triclinic
_cell_length_a                    17.548132
_cell_length_b                    8.890421
_cell_length_c                    8.241566
_cell_angle_alpha                 90.086414
_cell_angle_beta                  92.31799
_cell_angle_gamma                 90.00347
_cell_volume                      1284.71547205

loop_
_atom_site_label
_atom_site_type_symbol
_atom_type_description
_atom_site_fract_x
_atom_site_fract_y
_atom_site_fract_z
_atom_type_partial_charge
C1    C     C_R   0.500020 0.218621 0.499926 0.962175
C2    C     C_R   0.842320 0.445075 0.366541 0.370976
C3    C     C_R   0.769422 0.419358 0.651015 0.239837
C4    C     C_R   0.230434 0.418487 0.349590 0.283833
C5    C     C_R   0.229311 0.511667 0.626308 0.344073
C6    C     C_R   0.770855 0.511818 0.374499 0.332657
C7    C     C_R   0.729240 0.476651 0.511335 -0.359976
C8    C     C_R   0.270711 0.477411 0.488725 -0.376084
C9    C     C_R   0.885769 0.454902 0.510671 -0.259868
C10   C     C_R   0.114366 0.452892 0.491425 -0.222525
C11   C     C_1   0.966267 0.450936 0.504129 0.208010
C12   C     C_R   0.500013 0.781375 0.500078 0.940220
C13   C     C_1   0.033913 0.450207 0.499500 0.227460
C14   C     C_1   0.500025 0.065405 0.499894 -0.047287
C15   C     C_1   0.500022 0.934590 0.500115 -0.071265
C16   C     C_R   0.353384 0.495458 0.496480 1.002401
C17   C     C_R   0.646602 0.495182 0.503507 0.998016
C18   C     C_R   0.849431 0.437293 0.658086 0.222572
C19   C     C_R   0.150292 0.434874 0.343484 0.302154
C20   C     C_R   0.158197 0.443794 0.634801 0.287743
H1    H     H_    0.820793 0.579807 0.956497 0.382639
H2    H     H_    0.115605 0.534961 0.929040 0.413737
H3    H     H_    0.165491 0.035241 0.607919 0.418637
H4    H     H_    0.896177 0.128792 0.480097 0.372435
H5    H     H_    0.803189 0.108243 0.772514 0.379223
H6    H     H_    0.198280 0.103437 0.228179 0.383272
H7    H     H_    0.181801 0.845760 0.858738 0.417667
H8    H     H_    0.820051 0.851609 0.154388 0.423770
N1    N     N_1   0.500000 0.500000 0.073640 0.043598
N2    N     N_1   0.500000 0.500000 0.926360 0.043034
O1    O     O_R   0.500000 0.285350 0.636850 -0.598174
O2    O     O_2   0.965598 0.556548 0.836549 -0.263255
O3    O     O_3   0.846739 0.486909 0.994943 -0.409495
O4    O     O_2   0.063730 0.279550 0.130341 -0.142830
O5    O     O_2   0.031248 0.544777 0.168203 -0.243147
O6    O     O_3   0.150963 0.483760 0.007283 -0.437646
O7    O     O_2   0.232128 0.234174 0.815195 -0.174187
O8    O     O_2   0.091906 0.229949 0.810227 -0.166280
O9    O     O_3   0.159581 0.135443 0.556705 -0.571195
O10   O     O_2   0.769093 0.234638 0.185354 -0.145249
O11   O     O_2   0.908849 0.232966 0.187640 -0.148877
O12   O     O_R   0.500000 0.714650 0.363150 -0.607491
O13   O     O_3   0.842156 0.134440 0.440784 -0.537240
O14   O     O_2   0.691185 0.383615 0.921726 -0.189147
O15   O     O_2   0.662713 0.208184 0.699001 -0.304385
O16   O     O_3   0.788740 0.171267 0.865573 -0.401923
O17   O     O_2   0.309594 0.379642 0.080492 -0.161033
O18   O     O_2   0.336994 0.206412 0.304875 -0.321939
O19   O     O_3   0.211785 0.168071 0.135880 -0.403449
O20   O     O_2   0.292737 0.638811 0.893944 -0.205221
O21   O     O_2   0.295324 0.784547 0.642388 -0.302572
O22   O     O_3   0.166652 0.762294 0.784465 -0.549253
O23   O     O_R   0.500000 0.714650 0.636850 -0.606971
O24   O     O_2   0.701355 0.650093 0.120691 -0.253744
O25   O     O_2   0.713330 0.791213 0.375723 -0.274962
O26   O     O_3   0.834827 0.756658 0.210001 -0.493867
O27   O     O_R   0.500000 0.285350 0.363150 -0.597877
O28   O     O_R   0.389120 0.500000 0.636930 -0.575925
O29   O     O_R   0.610880 0.500000 0.363070 -0.576446
O30   O     O_R   0.610880 0.500000 0.636930 -0.580839
O31   O     O_R   0.389120 0.500000 0.363070 -0.580535
O32   O     O_2   0.937909 0.289241 0.872550 -0.138616
S1    S     S_3+6 0.903103 0.441456 0.843569 0.153641
S2    S     S_3+6 0.095809 0.434188 0.159179 0.159558
S3    S     S_3+6 0.160619 0.258194 0.712371 0.097319
S4    S     S_3+6 0.840665 0.259647 0.287642 0.128902
S5    S     S_3+6 0.725097 0.295213 0.787087 0.141660
S6    S     S_3+6 0.274992 0.292747 0.215008 0.157119
S7    S     S_3+6 0.248898 0.677724 0.739492 0.074290
S8    S     S_3+6 0.752292 0.681262 0.267756 0.087645
Zn1   Zn    Zn3+2 0.500000 0.500000 0.682780 1.149641
Zn2   Zn    Zn3+2 0.500000 0.500000 0.317220 1.150862

loop_
_geom_bond_atom_site_label_1
_geom_bond_atom_site_label_2
_ccdc_geom_bond_type
O15   S5    D    
C5    C8    A    
C12   O12   A    
O8    S3    D    
C6    C7    A    
C1    C14   S    
O19   S6    S    
C1    O27   A    
N1    N2    T    
C11   C13   T    
C19   S2    S    
O26   S8    S    
C12   O23   A    
O24   S8    D    
C12   C15   S    
C4    C8    A    
C10   C19   A    
O3    S1    S    
N1    Zn2   S    
O1    Zn1   S    
N2    Zn1   S    
H8    O26   S    
O16   S5    S    
C8    C16   S    
C5    C20   A    
O10   S4    D    
O18   S6    D    
O5    S2    D    
C9    C11   S    
O17   S6    D    
O32   S1    D    
C17   O29   A    
O13   S4    S    
H3    O9    S    
O31   Zn2   S    
O4    S2    D    
C20   S3    S    
O20   S7    D    
O9    S3    S    
C16   O28   A    
C3    C7    A    
O27   Zn2   S    
O28   Zn1   S    
C18   S1    S    
O25   S8    D    
H1    O3    S    
C16   O31   A    
C17   O30   A    
O11   S4    D    
O23   Zn1   S    
C9    C18   A    
C1    O1    A    
C2    C9    A    
H2    O6    S    
H7    O22   S    
C3    C18   A    
C4    S6    S    
H6    O19   S    
C6    S8    S    
H4    O13   S    
C14   C15   T    
O14   S5    D    
C5    S7    S    
O22   S7    S    
O21   S7    D    
O30   Zn1   S    
C2    S4    S    
O12   Zn2   S    
O6    S2    S    
C4    C19   A    
O29   Zn2   S    
H5    O16   S    
C3    S5    S    
C2    C6    A    
O2    S1    D    
C10   C20   A    
C7    C17   S    
C10   C13   S    
O7    S3    D    
