data_mof_unit_49739.cif
_audit_creation_date              2013-03-05T16:42:13-0500
_audit_creation_method            fapswitch 2.2
_symmetry_space_group_name_H-M    P1
_symmetry_Int_Tables_number       1
_space_group_crystal_system       triclinic
_cell_length_a                    14.921725
_cell_length_b                    10.736256
_cell_length_c                    9.88526
_cell_angle_alpha                 90.096072
_cell_angle_beta                  89.249567
_cell_angle_gamma                 90.46333
_cell_volume                      1583.46328874

loop_
_atom_site_label
_atom_site_type_symbol
_atom_site_description
_atom_site_fract_x
_atom_site_fract_y
_atom_site_fract_z
_atom_type_partial_charge
O1    O     O_R   0.500010 0.316790 0.614690 -0.591412
O2    O     O_R   0.500000 0.316760 0.385350 -0.556443
C1    C     C_R   0.499089 0.260337 0.499646 0.961688
O3    O     O_R   0.367850 0.499990 0.614680 -0.570305
O4    O     O_R   0.367840 0.499950 0.385340 -0.612112
C2    C     C_R   0.327281 0.499655 0.500630 0.950095
Zn1   Zn    Zn3+2 0.500010 0.500020 0.653130 1.121179
Zn2   Zn    Zn3+2 0.499990 0.499980 0.346870 1.122449
O5    O     O_R   0.500000 0.683240 0.614650 -0.579868
O6    O     O_R   0.499990 0.683210 0.385310 -0.625726
O7    O     O_R   0.632160 0.500050 0.614660 -0.623386
O8    O     O_R   0.632150 0.500010 0.385320 -0.531683
C3    C     C_R   0.499271 0.739539 0.499984 1.003473
C4    C     C_R   0.672945 0.501233 0.499094 1.009756
C5    C     C_R   0.813735 0.608408 0.552082 0.191158
C6    C     C_R   0.768599 0.506174 0.495968 -0.327964
C7    C     C_R   0.813600 0.406673 0.437180 0.699912
C8    C     C_R   0.906581 0.403855 0.439243 -0.214164
C9    C     C_R   0.953873 0.507448 0.492484 -0.107258
C10   C     C_R   0.907728 0.613909 0.542831 -0.042799
C11   C     C_R   0.952829 0.298793 0.391099 0.686627
C12   C     C_R   0.045989 0.294049 0.397205 0.174745
C13   C     C_R   0.093652 0.397565 0.447862 -0.059063
C14   C     C_R   0.047454 0.504346 0.495436 0.018679
C15   C     C_R   0.095286 0.608461 0.545497 -0.016687
C16   C     C_R   0.050292 0.715134 0.587776 -0.111070
C17   C     C_R   0.957422 0.720834 0.583193 0.294047
C18   C     C_R   0.186839 0.398657 0.449170 -0.154643
C19   C     C_R   0.232311 0.500811 0.501315 -0.155384
C20   C     C_R   0.188113 0.605765 0.548327 0.667793
H1    H     H_    0.225234 0.321348 0.409302 0.204849
H2    H     H_    0.087530 0.796916 0.619791 0.251896
C21   C     C_R   0.536279 0.063935 0.606416 -0.153224
C22   C     C_R   0.502774 0.128692 0.496632 -0.206077
C23   C     C_R   0.478757 0.062955 0.378781 0.705349
C24   C     C_R   0.479509 0.934259 0.379632 -0.176151
H3    H     H_    0.457028 0.884796 0.290461 0.228655
C25   C     C_R   0.503277 0.871026 0.497713 -0.148565
C26   C     C_R   0.536303 0.937666 0.607069 -0.038623
C27   C     C_3   0.530353 0.929713 0.758634 0.694771
C28   C     C_3   0.530620 0.072920 0.758096 0.683195
C29   C     C_R   0.426652 0.537999 0.073239 -0.027608
N1    N     N_R   0.499390 0.499140 0.142800 -0.191362
C30   C     C_R   0.574353 0.466382 0.069729 0.729966
C31   C     C_R   0.574309 0.466771 0.926301 -0.074350
H4    H     H_    0.633700 0.438089 0.871132 0.206015
N2    N     N_R   0.499390 0.499180 0.857150 -0.139634
C32   C     C_R   0.426575 0.539055 0.930336 0.037011
C33   C     C_3   0.334360 0.481597 0.929816 0.673787
C34   C     C_3   0.335661 0.480533 0.083365 0.370109
H5    H     H_    0.335339 0.385972 0.129159 0.146384
N3    N     N_R   0.763760 0.701230 0.624650 0.248152
O9    O     O_R   0.703485 0.766182 0.563173 -0.332516
O10   O     O_R   0.773778 0.714106 0.754485 -0.250508
N4    N     N_R   0.447389 0.873307 0.812085 0.184401
O11   O     O_R   0.441936 0.844550 0.939701 -0.278119
O12   O     O_R   0.375755 0.865867 0.738625 -0.280302
F1    F     F_    0.606459 0.878547 0.814025 -0.520069
N5    N     N_R   0.448107 0.128399 0.812236 0.208403
O13   O     O_R   0.443658 0.158260 0.939708 -0.227905
O14   O     O_R   0.375957 0.134047 0.739867 -0.295252
F2    F     F_    0.607167 0.125769 0.812449 -0.548752
F3    F     F_    0.648809 0.428313 0.134005 -0.565147
N6    N     N_R   0.265031 0.562311 0.875402 0.251258
O15   O     O_R   0.272465 0.682877 0.884305 -0.213898
O16   O     O_R   0.187908 0.513763 0.843971 -0.302479
F4    F     F_    0.332599 0.363627 0.873325 -0.585726
F5    F     F_    0.274790 0.561209 0.143050 -0.580634
F6    F     F_    0.765510 0.310093 0.384788 -0.534358
F7    F     F_    0.907668 0.197767 0.343311 -0.494393
N7    N     N_R   0.090938 0.182526 0.354544 0.240237
O17   O     O_R   0.141463 0.123044 0.438668 -0.302611
O18   O     O_R   0.070933 0.130388 0.239797 -0.213958
F8    F     F_    0.235960 0.705951 0.592609 -0.599053
N8    N     N_R   0.916413 0.839344 0.607370 0.249674
O19   O     O_R   0.872027 0.892205 0.510967 -0.228183
O20   O     O_R   0.940031 0.905780 0.711402 -0.244660
F9    F     F_    0.448848 0.121433 0.266448 -0.581631

loop_
_geom_bond_atom_site_label_1
_geom_bond_atom_site_label_2
_geom_bond_distance
_ccdc_geom_bond_type
N4    O11   1.300601 A    
C7    F6    1.361701 S    
C8    C11   1.406143 A    
C23   C24   1.381893 A    
Zn2   N1    2.017427 S    
N8    O19   1.301273 A    
C31   H4    1.081118 S    
C30   C31   1.417837 A    
Zn1   O7    2.003342 S    
C16   C17   1.388966 A    
C21   C26   1.355685 A    
C24   H3    1.083907 S    
C8    C9    1.416694 A    
C25   C26   1.388882 A    
C20   F8    1.361065 S    
O7    C4    1.287371 A    
C5    C6    1.400658 A    
C22   C23   1.409908 A    
O5    C3    1.285697 A    
C9    C10   1.424816 A    
C6    C7    1.388927 A    
C13   C14   1.418855 A    
N5    O13   1.300695 A    
C33   N6    1.463258 S    
C11   C12   1.393564 A    
C28   F2    1.385598 S    
O3    Zn1   2.013231 S    
C17   N8    1.434650 S    
N3    O10   1.301081 A    
C21   C22   1.390477 A    
C31   N2    1.365723 A    
C30   F3    1.353461 S    
C5    C10   1.405097 A    
N5    O14   1.302268 A    
C27   F1    1.385139 S    
C14   C15   1.413614 A    
C28   N5    1.466519 S    
O3    C2    1.286613 A    
C26   C27   1.502257 S    
N7    O18   1.301205 A    
C16   H2    1.084263 S    
C1    C22   1.415137 S    
C34   H5    1.112221 S    
C15   C16   1.393038 A    
C13   C18   1.390692 A    
O1    C1    1.287950 A    
Zn1   N2    2.016727 S    
N1    C30   1.371493 A    
C19   C20   1.386673 A    
N2    C32   1.368618 A    
Zn2   O8    2.013229 S    
C27   N4    1.466394 S    
C7    C8    1.388430 A    
C29   C32   1.412718 A    
C5    N3    1.435065 S    
N8    O20   1.301348 A    
C3    C25   1.412666 S    
C29   C34   1.489036 S    
C32   C33   1.503465 S    
O8    C4    1.285839 A    
N4    O12   1.301921 A    
C4    C6    1.427820 S    
C29   N1    1.361161 A    
C12   N7    1.437083 S    
N3    O9    1.300156 A    
C15   C20   1.386336 A    
Zn1   O5    2.004164 S    
C18   C19   1.387153 A    
C33   F4    1.383537 S    
O1    Zn1   2.002942 S    
C18   H1    1.083127 S    
O2    Zn2   2.004164 S    
O6    C3    1.283885 A    
O4    Zn2   2.003342 S    
C10   C17   1.421028 A    
C23   F9    1.358783 S    
C11   F7    1.359601 S    
C21   C28   1.503647 S    
N6    O15   1.301215 A    
C24   C25   1.402337 A    
O2    C1    1.282752 A    
N7    O17   1.301433 A    
O4    C2    1.283376 A    
C9    C14   1.397737 A    
C2    C19   1.417191 S    
Zn2   O6    2.002943 S    
C33   C34   1.518316 S    
C12   C13   1.409403 A    
C27   C28   1.537498 S    
C34   F5    1.385752 S    
N6    O16   1.300645 A    
