data_mof_unit_67833.cif
_audit_creation_date              2012-12-10T16:55:43-0500
_audit_creation_method            fapswitch 2.2
_symmetry_space_group_name_H-M    P1
_symmetry_Int_Tables_number       1
_space_group_crystal_system       triclinic
_cell_length_a                    7.895128
_cell_length_b                    8.722427
_cell_length_c                    10.555606
_cell_angle_alpha                 93.185403
_cell_angle_beta                  84.416282
_cell_angle_gamma                 93.172816
_cell_volume                      721.428707271

loop_
_atom_site_label
_atom_site_type_symbol
_atom_type_description
_atom_site_fract_x
_atom_site_fract_y
_atom_site_fract_z
_atom_type_partial_charge
C1    C     C_R   0.544462 0.792227 0.482816 0.840265
C2    C     C_3   0.497591 0.502743 0.876812 -0.103853
C3    C     C_3   0.346055 0.437435 0.047976 -0.303444
C4    C     C_3   0.653066 0.550952 0.949291 -0.230647
C5    C     C_2   0.569004 0.950475 0.447882 0.052024
C6    C     C_2   0.435648 0.043099 0.457230 0.060118
C7    C     C_3   0.586363 0.781606 0.119709 -0.343035
C8    C     C_3   0.605567 0.913473 0.032322 -0.869388
C9    C     C_3   0.406636 0.199389 0.884153 -0.435155
C10   C     C_3   0.542332 0.126482 0.791041 -0.835277
C11   C     C_3   0.239724 0.689633 0.939508 -0.465881
C12   C     C_R   0.456406 0.206063 0.488658 0.845578
C13   C     C_3   0.142143 0.766724 0.054816 -0.698551
C14   C     C_3   0.776744 0.312093 0.047563 -0.345697
C15   C     C_3   0.910674 0.297445 0.933359 -0.883587
C16   C     C_R   0.500608 0.506951 0.742055 0.865460
C17   C     C_R   0.498797 0.487896 0.257548 0.848105
C18   C     C_3   0.377705 0.587566 0.976536 0.198332
C19   C     C_3   0.623459 0.401135 0.020724 0.157861
C20   C     C_3   0.532530 0.633120 0.050648 0.136172
C21   C     C_3   0.467949 0.352990 0.946331 0.159931
C22   C     C_3   0.502072 0.484611 0.121052 -0.136191
H1    H     H_    0.222180 0.390364 0.092489 0.169539
H2    H     H_    0.486811 0.021539 0.743160 0.231118
H3    H     H_    0.592362 0.206909 0.718393 0.287925
H4    H     H_    0.650931 0.094496 0.840256 0.272576
H5    H     H_    0.361528 0.118847 0.959190 0.205133
H6    H     H_    0.295384 0.219810 0.831600 0.232448
H7    H     H_    0.096487 0.681042 0.126068 0.282453
H8    H     H_    0.224949 0.858000 0.097809 0.287515
H9    H     H_    0.030140 0.821462 0.024364 0.237573
H10   H     H_    0.298083 0.778902 0.875669 0.208473
H11   H     H_    0.148452 0.618744 0.884983 0.216351
H12   H     H_    0.775952 0.601121 0.905542 0.167468
H13   H     H_    0.852976 0.283023 0.841713 0.288930
H14   H     H_    0.995746 0.402293 0.930011 0.249108
H15   H     H_    0.989284 0.197962 0.943634 0.254494
H16   H     H_    0.839904 0.371032 0.127510 0.242523
H17   H     H_    0.731400 0.197884 0.076804 0.243500
H18   H     H_    0.928824 0.811444 0.386385 0.420728
H19   H     H_    0.226789 0.128311 0.261525 0.318202
H20   H     H_    0.013176 0.383547 0.400791 0.251647
H21   H     H_    0.986916 0.617701 0.598333 0.198300
H22   H     H_    0.742749 0.943359 0.006944 0.264473
H23   H     H_    0.545655 0.883862 0.943234 0.260485
H24   H     H_    0.541115 0.012304 0.082213 0.254339
H25   H     H_    0.492375 0.806720 0.201030 0.239402
H26   H     H_    0.709649 0.765061 0.157134 0.255651
N1    N     N_2   0.950320 0.457950 0.465730 -0.145028
N2    N     N_2   0.049680 0.542050 0.534270 -0.159466
O1    O     O_R   0.389250 0.738570 0.508410 -0.549953
O2    O     O_2   0.863228 0.083166 0.500518 -0.205298
O3    O     O_3   0.887219 0.866648 0.317465 -0.512476
O4    O     O_2   0.235922 0.835716 0.332508 -0.351140
O5    O     O_2   0.127407 0.947090 0.540879 -0.258786
O6    O     O_3   0.150918 0.118066 0.341406 -0.462867
O7    O     O_R   0.610750 0.261430 0.491590 -0.560515
O8    O     O_R   0.678390 0.711620 0.486450 -0.624478
O9    O     O_R   0.321610 0.288380 0.513550 -0.557362
O10   O     O_R   0.355460 0.513510 0.697030 -0.635653
O11   O     O_R   0.644540 0.486490 0.302970 -0.626792
O12   O     O_R   0.644600 0.486560 0.675070 -0.631910
O13   O     O_R   0.355400 0.513440 0.324930 -0.598353
O14   O     O_2   0.771628 0.131441 0.292560 -0.314570
S1    S     S_3+6 0.777500 0.012455 0.389021 0.066460
S2    S     S_3+6 0.232294 0.979082 0.417810 0.038342
Zn1   Zn    Zn3+2 0.306940 0.517990 0.514670 1.025746
Zn2   Zn    Zn3+2 0.693060 0.482010 0.485330 1.010605

loop_
_geom_bond_atom_site_label_1
_geom_bond_atom_site_label_2
_ccdc_geom_bond_type
C2    C4    S    
C4    C19   S    
H19   O6    S    
O4    S2    D    
N1    Zn2   S    
C14   H16   S    
C2    C16   S    
N2    Zn1   S    
C15   H14   S    
C3    H1    S    
C17   C22   S    
C1    C5    S    
O12   Zn2   S    
C13   H7    S    
O9    Zn1   S    
C7    H26   S    
C10   H4    S    
C2    C21   S    
C9    H6    S    
C7    C8    S    
H21   N2    S    
O1    Zn1   S    
C1    O8    A    
C17   O13   A    
C1    O1    A    
O11   Zn2   S    
C9    C21   S    
C16   O10   A    
C6    S2    S    
C16   O12   A    
O6    S2    S    
C12   O7    A    
C10   H3    S    
O8    Zn2   S    
C19   C21   S    
C20   C22   S    
C11   H10   S    
C7    C20   S    
C18   C20   S    
C11   C18   S    
C4    H12   S    
C6    C12   S    
C5    C6    D    
O13   Zn1   S    
C3    C21   S    
C2    C18   S    
C11   H11   S    
O7    Zn2   S    
C4    C20   S    
C13   H8    S    
C11   C13   S    
C19   C22   S    
O3    S1    S    
C9    H5    S    
C3    C18   S    
C5    S1    S    
H18   O3    S    
C9    C10   S    
C15   H13   S    
N1    N2    D    
C14   C15   S    
C15   H15   S    
C3    C22   S    
H20   N1    S    
C8    H24   S    
C17   O11   A    
C14   H17   S    
C8    H23   S    
C12   O9    A    
C14   C19   S    
C13   H9    S    
C10   H2    S    
O2    S1    D    
C8    H22   S    
O10   Zn1   S    
O5    S2    D    
O14   S1    D    
C7    H25   S    
