data_mof_unit_11373.cif
_audit_creation_date              2012-12-11T16:08:34-0500
_audit_creation_method            fapswitch 2.2
_symmetry_space_group_name_H-M    P1
_symmetry_Int_Tables_number       1
_space_group_crystal_system       triclinic
_cell_length_a                    12.96106
_cell_length_b                    13.275746
_cell_length_c                    27.720475
_cell_angle_alpha                 94.727427
_cell_angle_beta                  89.992068
_cell_angle_gamma                 119.405724
_cell_volume                      4136.67554949

loop_
_atom_site_label
_atom_site_type_symbol
_atom_type_description
_atom_site_fract_x
_atom_site_fract_y
_atom_site_fract_z
_atom_type_partial_charge
C1    C     C_R   0.627773 0.896442 0.426963 0.526365
C2    C     C_R   0.574078 0.291027 0.224043 -0.103322
C3    C     C_R   0.566570 0.278572 0.273582 -0.116116
C4    C     C_R   0.669031 0.314180 0.302909 0.057256
C5    C     C_R   0.684208 0.338591 0.203052 0.026683
C6    C     C_1   0.692957 0.362821 0.153098 -0.036014
C7    C     C_1   0.653300 0.293888 0.353425 0.036055
C8    C     C_1   0.702034 0.392000 0.112576 0.006253
C9    C     C_R   0.202700 0.758775 0.347279 -0.112074
C10   C     C_R   0.195220 0.755320 0.297373 -0.017594
C11   C     C_R   0.185345 0.748895 0.196412 -0.020136
C12   C     C_R   0.601207 0.221889 0.440454 0.546759
C13   C     C_R   0.200614 0.664154 0.218531 0.007352
C14   C     C_R   0.201670 0.666876 0.268967 -0.110788
C15   C     C_R   0.164422 0.739819 0.146475 -0.135238
C16   C     C_R   0.131234 0.813137 0.125869 -0.001020
C17   C     C_R   0.205113 0.943280 0.355766 -0.129011
C18   C     C_R   0.188700 0.937432 0.305225 0.002033
C19   C     C_R   0.188281 0.844366 0.275967 0.046705
C20   C     C_R   0.177342 0.023720 0.282891 -0.018166
C21   C     C_R   0.162959 0.014916 0.232446 -0.134141
C22   C     C_R   0.163177 0.923194 0.203673 -0.000101
C23   C     C_R   0.270087 0.876557 0.425298 0.548067
C24   C     C_R   0.180281 0.839551 0.225342 0.049311
C25   C     C_R   0.138400 0.909266 0.153820 -0.127082
C26   C     C_R   0.216586 0.856228 0.376490 -0.000813
C27   C     C_R   0.713877 0.965255 0.350549 -0.127872
C28   C     C_R   0.713430 0.953319 0.300698 0.004208
C29   C     C_R   0.711757 0.931918 0.199415 0.001102
C30   C     C_R   0.775972 0.041567 0.225775 -0.120254
C31   C     C_R   0.776838 0.051862 0.275891 -0.123341
C32   C     C_R   0.720617 0.918208 0.149090 -0.036725
C33   C     C_R   0.666667 0.805337 0.124888 -0.033146
C34   C     C_R   0.627312 0.898197 0.564805 0.549061
C35   C     C_R   0.585944 0.756046 0.352537 -0.001537
C36   C     C_R   0.578732 0.744159 0.301128 0.031916
C37   C     C_R   0.644665 0.843246 0.275460 0.046501
C38   C     C_R   0.502981 0.637520 0.274589 -0.090464
C39   C     C_R   0.499498 0.627163 0.224322 -0.125077
C40   C     C_R   0.571621 0.723145 0.198667 -0.013070
C41   C     C_R   0.642646 0.832672 0.224458 0.039815
C42   C     C_R   0.578678 0.710946 0.148169 -0.045774
C43   C     C_R   0.646882 0.869226 0.376660 -0.026102
C44   C     C_R   0.742706 0.301951 0.650799 -0.135007
C45   C     C_R   0.603300 0.227629 0.578277 0.547665
C46   C     C_R   0.757353 0.325643 0.701226 -0.021212
C47   C     C_R   0.774592 0.353328 0.803468 -0.027861
C48   C     C_R   0.865462 0.346637 0.776962 0.006761
C49   C     C_R   0.854947 0.332548 0.726012 -0.103963
C50   C     C_R   0.781760 0.373996 0.854354 -0.144611
C51   C     C_R   0.690446 0.380897 0.878977 -0.000299
C52   C     C_R   0.560943 0.312577 0.652413 -0.125732
C53   C     C_R   0.571372 0.330688 0.702512 0.011128
C54   C     C_R   0.668750 0.334865 0.727297 0.057062
C55   C     C_R   0.481505 0.336936 0.728141 -0.133093
C56   C     C_R   0.271263 0.879068 0.563294 0.550358
C57   C     C_R   0.486160 0.344270 0.778319 -0.114420
C58   C     C_R   0.582074 0.348112 0.803307 0.018755
C59   C     C_R   0.675372 0.345273 0.778047 0.048122
C60   C     C_R   0.587967 0.360258 0.853355 -0.103788
C61   C     C_R   0.640961 0.288936 0.626765 -0.000942
C62   C     C_1   0.219388 0.861226 0.609626 -0.007446
C63   C     C_R   0.092305 0.735303 0.718509 -0.108227
C64   C     C_R   0.079203 0.726640 0.768254 -0.119180
C65   C     C_R   0.207422 0.935474 0.783903 0.006567
C66   C     C_R   0.220390 0.943596 0.733935 -0.111594
C67   C     C_1   0.633534 0.267968 0.394426 0.039136
C68   C     C_R   0.163450 0.843599 0.701279 0.015761
C69   C     C_R   0.137578 0.826025 0.801187 0.014426
C70   C     C_1   0.121011 0.813239 0.852204 -0.042623
C71   C     C_1   0.188477 0.851356 0.650763 -0.053804
C72   C     C_1   0.098805 0.796609 0.893942 0.001829
C73   C     C_1   0.647378 0.858731 0.608739 -0.008996
C74   C     C_R   0.781516 0.824003 0.714795 -0.098558
C75   C     C_R   0.794464 0.809030 0.763432 -0.099928
C76   C     C_R   0.587562 0.750631 0.774300 -0.097524
C77   C     C_R   0.574611 0.765470 0.725733 -0.100338
C78   C     C_R   0.781337 0.361654 0.281862 0.024671
C79   C     C_R   0.671769 0.803442 0.695964 0.035141
C80   C     C_R   0.697862 0.773900 0.793470 0.035857
C81   C     C_1   0.713015 0.766052 0.844277 -0.052697
C82   C     C_1   0.660300 0.830925 0.647699 -0.052122
C83   C     C_1   0.727643 0.760796 0.886794 -0.007227
C84   C     C_R   0.065892 0.773142 0.078885 0.549442
C85   C     C_R   0.716608 0.440812 0.067163 0.552429
C86   C     C_R   0.717339 0.783013 0.080089 0.555151
C87   C     C_R   0.056412 0.766262 0.941170 0.538803
C88   C     C_R   0.710650 0.434812 0.928799 0.536975
C89   C     C_R   0.787150 0.373479 0.231801 -0.133825
C90   C     C_R   0.749398 0.754386 0.936952 0.556663
Cr1   Cr    Cr6+3 0.416430 0.829200 0.492370 1.033492
Cr2   Cr    Cr6+3 0.674630 0.087020 0.504170 1.047185
Cr3   Cr    Cr6+3 0.408920 0.083740 0.503490 1.040571
Cr4   Cr    Cr6+3 0.914010 0.832750 0.013970 1.053628
Cr5   Cr    Cr6+3 0.922310 0.578600 0.003000 1.035381
Cr6   Cr    Cr6+3 0.656280 0.574630 0.003870 1.063617
H1    H     H_    0.150369 0.079257 0.215571 0.129831
H2    H     H_    0.215235 0.017819 0.378808 0.146690
H3    H     H_    0.761972 0.052290 0.368867 0.160235
H4    H     H_    0.828551 0.119804 0.208105 0.139242
H5    H     H_    0.828106 0.137198 0.295331 0.139379
H6    H     H_    0.441828 0.542102 0.205886 0.161971
H7    H     H_    0.443735 0.561287 0.292115 0.184346
H8    H     H_    0.872385 0.411825 0.215218 0.120889
H9    H     H_    0.860586 0.392535 0.875072 0.121274
H10   H     H_    0.805768 0.285553 0.630863 0.131302
H11   H     H_    0.921975 0.324281 0.705415 0.160653
H12   H     H_    0.516562 0.364530 0.872111 0.157888
H13   H     H_    0.415239 0.348056 0.797635 0.142625
H14   H     H_    0.406182 0.333200 0.709361 0.123309
H15   H     H_    0.483428 0.305301 0.633976 0.138500
H16   H     H_    0.048955 0.657362 0.693610 0.126741
H17   H     H_    0.494077 0.265159 0.202247 0.127057
H18   H     H_    0.024212 0.642069 0.781103 0.132759
H19   H     H_    0.276535 0.027353 0.720527 0.120887
H20   H     H_    0.857554 0.854267 0.692298 0.120350
H21   H     H_    0.880247 0.827217 0.777846 0.122223
H22   H     H_    0.512306 0.723468 0.797129 0.126687
H23   H     H_    0.489594 0.750251 0.711728 0.123099
H24   H     H_    0.480168 0.241007 0.289145 0.129789
H25   H     H_    0.160057 0.667474 0.123920 0.130842
H26   H     H_    0.209673 0.690072 0.363018 0.149964
H27   H     H_    0.211576 0.601689 0.286413 0.155059
H28   H     H_    0.115316 0.967595 0.137607 0.137184
O1    O     O_R   0.296680 0.802170 0.437540 -0.515933
O2    O     O_R   0.662610 0.183990 0.557860 -0.500384
O3    O     O_R   0.500730 0.201280 0.562180 -0.517119
O4    O     O_R   0.312500 0.978850 0.548170 -0.493928
O5    O     O_3   0.499990 0.999990 0.500010 -0.251091
O6    O     O_R   0.820790 0.857990 0.068830 -0.492570
O7    O     O_R   0.016700 0.827330 0.062850 -0.498495
O8    O     O_R   0.041970 0.673520 0.060040 -0.512911
O9    O     O_R   0.817980 0.483660 0.048840 -0.488487
O10   O     O_R   0.637200 0.461990 0.052510 -0.486088
O11   O     O_R   0.664790 0.681920 0.057970 -0.483001
O12   O     O_R   0.525380 0.838530 0.443500 -0.519402
O13   O     O_R   0.815840 0.852920 0.961840 -0.491840
O14   O     O_R   0.012100 0.822630 0.963670 -0.508728
O15   O     O_R   0.037010 0.668460 0.953040 -0.506389
O16   O     O_R   0.813390 0.478970 0.949660 -0.504453
O17   O     O_R   0.632250 0.456930 0.945520 -0.522194
O18   O     O_R   0.660200 0.677230 0.958780 -0.489833
O19   O     O_3   0.830870 0.661990 0.006950 -0.280095
O20   O     O_R   0.702130 0.995190 0.446810 -0.507755
O21   O     O_R   0.661770 0.181390 0.458760 -0.488585
O22   O     O_R   0.499820 0.198480 0.455280 -0.503552
O23   O     O_R   0.311660 0.976250 0.449080 -0.500838
O24   O     O_R   0.297580 0.804960 0.544440 -0.501246
O25   O     O_R   0.526220 0.841130 0.542590 -0.494534
O26   O     O_R   0.703030 0.997990 0.553710 -0.504893
C91   C     C_2   0.894415 0.400658 0.309929 0.215964
H29   H     H_    0.976930 0.434430 0.291291 0.124132
O27   O     O_2   0.897910 0.396313 0.353663 -0.500964
C92   C     C_1   0.177526 0.120838 0.310676 0.185979
N1    N     N_1   0.177668 0.198659 0.332875 -0.269341
C93   C     C_1   0.786539 0.019087 0.122377 0.219113
N2    N     N_1   0.838921 0.099551 0.101143 -0.274701
C94   C     C_1   0.497831 0.601097 0.120962 0.214205
N3    N     N_1   0.432995 0.513525 0.099442 -0.270377
C95   C     C_2   0.539027 0.653067 0.381121 0.215025
H30   H     H_    0.506286 0.654977 0.416871 0.137819
O28   O     O_2   0.543238 0.566134 0.366095 -0.505296
C96   C     C_2   0.969798 0.349701 0.801004 0.220232
H31   H     H_    0.969918 0.333440 0.838609 0.112327
O29   O     O_2   0.057685 0.368952 0.778504 -0.512056
C97   C     C_1   0.266751 0.039633 0.816806 0.202338
N4    N     N_1   0.313945 0.122806 0.843369 -0.307505
C98   C     C_2   0.215767 0.572231 0.190366 0.207606
H32   H     H_    0.248430 0.583485 0.154128 0.117653
O30   O     O_2   0.193946 0.482776 0.207908 -0.520609

loop_
_geom_bond_atom_site_label_1
_geom_bond_atom_site_label_2
_ccdc_geom_bond_type
C66   C68   A    
Cr5   O19   S    
C88   O17   A    
C35   C36   A    
C75   H21   S    
Cr5   O9    S    
C72   C87   S    
C34   O26   A    
C49   H11   S    
C48   C96   S    
C53   C54   A    
C46   C49   A    
C27   H3    S    
Cr5   O16   S    
Cr4   O6    S    
C20   C92   S    
C33   C42   A    
C31   H5    S    
C36   C37   A    
C96   O29   D    
C18   C19   A    
C29   C32   A    
C52   C61   A    
C5    C6    S    
C2    H17   S    
C65   C69   A    
C58   C60   A    
C15   C16   A    
C30   H4    S    
C11   C24   A    
C16   C84   S    
C7    C67   T    
C8    C85   S    
C23   C26   S    
C12   O22   A    
C63   H16   S    
C35   C95   S    
C88   O16   A    
C17   H2    S    
Cr6   O17   S    
C32   C93   S    
C11   C15   A    
C1    C43   S    
C57   H13   S    
Cr1   O12   S    
C96   H31   S    
C22   C25   A    
C78   C91   S    
C50   H9    S    
C91   H29   S    
C94   N3    T    
Cr6   O11   S    
C1    O12   A    
C35   C43   A    
C75   C80   A    
C45   O2    A    
C18   C20   A    
C60   H12   S    
C85   O10   A    
C23   O1    A    
C45   C61   S    
C98   O30   D    
C21   C22   A    
C91   O27   D    
C37   C41   A    
C9    H26   S    
C42   C94   S    
C4    C7    S    
Cr3   O5    S    
Cr1   O24   S    
C81   C83   T    
C34   O25   A    
C44   C46   A    
C9    C26   A    
C50   C51   A    
C47   C50   A    
C54   C59   A    
C53   C55   A    
C78   C89   A    
C12   C67   S    
C64   H18   S    
C66   H19   S    
C76   C77   A    
C74   C75   A    
C39   C40   A    
Cr1   O25   S    
C86   O6    A    
C13   C98   S    
Cr6   O10   S    
C52   H15   S    
C58   C59   A    
Cr6   O18   S    
C65   C97   S    
C84   O8    A    
C76   H22   S    
C29   C30   A    
C95   O28   D    
C12   O21   A    
C56   O24   A    
C33   C86   S    
Cr3   O3    S    
C4    C78   A    
C38   H7    S    
C21   H1    S    
C47   C48   A    
C10   C19   A    
C74   H20   S    
C46   C54   A    
C17   C18   A    
C77   C79   A    
Cr3   O22   S    
C64   C69   A    
C92   N1    T    
C90   O18   A    
C40   C41   A    
C74   C79   A    
C55   C57   A    
C89   H8    S    
C10   C14   A    
C97   N4    T    
Cr4   O14   S    
C56   C62   S    
C2    C5    A    
Cr4   O19   S    
C87   O14   A    
C3    C4    A    
C73   C82   T    
Cr5   O8    S    
C90   O13   A    
C52   C53   A    
C39   H6    S    
C9    C10   A    
C16   C25   A    
C83   C90   S    
C63   C68   A    
C98   H32   S    
C14   H27   S    
Cr1   O1    S    
C29   C41   A    
Cr2   O21   S    
C19   C24   A    
C28   C31   A    
C76   C80   A    
C87   O15   A    
C80   C81   S    
C77   H23   S    
Cr2   O2    S    
C51   C88   S    
C79   C82   S    
C6    C8    T    
Cr2   O5    S    
Cr1   O5    S    
C44   H10   S    
C44   C61   A    
C84   O7    A    
Cr5   O15   S    
Cr4   O7    S    
C95   H30   S    
C36   C38   A    
C2    C3    A    
Cr3   O4    S    
C55   H14   S    
C1    O20   A    
C32   C33   A    
Cr6   O19   S    
Cr2   O26   S    
C11   C13   A    
C30   C31   A    
C57   C58   A    
C38   C39   A    
C23   O23   A    
C28   C37   A    
C45   O3    A    
C68   C71   S    
C48   C49   A    
C40   C42   A    
C17   C26   A    
C62   C71   T    
Cr3   O23   S    
C22   C24   A    
C56   O4    A    
C15   H25   S    
C69   C70   S    
Cr2   O20   S    
C25   H28   S    
C3    H24   S    
C34   C73   S    
C47   C59   A    
C63   C64   A    
C27   C43   A    
C86   O11   A    
C93   N2    T    
C20   C21   A    
C65   C66   A    
C27   C28   A    
Cr4   O13   S    
C70   C72   T    
C51   C60   A    
C13   C14   A    
C5    C89   A    
C85   O9    A    
