data_mof_unit_23738.cif
_audit_creation_date              2013-03-05T16:44:03-0500
_audit_creation_method            fapswitch 2.2
_symmetry_space_group_name_H-M    P1
_symmetry_Int_Tables_number       1
_space_group_crystal_system       triclinic
_cell_length_a                    19.213171
_cell_length_b                    10.585596
_cell_length_c                    9.908194
_cell_angle_alpha                 87.661341
_cell_angle_beta                  89.09477
_cell_angle_gamma                 92.382842
_cell_volume                      2011.4284971

loop_
_atom_site_label
_atom_site_type_symbol
_atom_site_description
_atom_site_fract_x
_atom_site_fract_y
_atom_site_fract_z
_atom_type_partial_charge
O1    O     O_R   0.500010 0.316790 0.614690 -0.639693
O2    O     O_R   0.500000 0.316760 0.385350 -0.601335
C1    C     C_R   0.502479 0.260615 0.502227 0.966091
O3    O     O_R   0.398140 0.500000 0.614710 -0.603063
O4    O     O_R   0.398130 0.499970 0.385370 -0.550837
C2    C     C_R   0.365936 0.510796 0.500432 0.947096
Zn1   Zn    Zn3+2 0.500000 0.500020 0.653130 0.936080
Zn2   Zn    Zn3+2 0.500000 0.499980 0.346870 0.974554
O5    O     O_R   0.500000 0.683240 0.614650 -0.678922
O6    O     O_R   0.499990 0.683210 0.385310 -0.645626
O7    O     O_R   0.601870 0.500030 0.614630 -0.615125
O8    O     O_R   0.601860 0.500000 0.385290 -0.595763
C3    C     C_R   0.499168 0.739446 0.497000 0.847119
C4    C     C_R   0.634873 0.497464 0.499556 0.924858
C5    C     C_R   0.255571 0.570374 0.621561 -0.138816
C6    C     C_R   0.183392 0.584812 0.618634 0.501036
C7    C     C_R   0.147777 0.567339 0.497984 -0.160926
C8    C     C_R   0.183727 0.554614 0.377159 -0.321192
H1    H     H_    0.155739 0.546241 0.283551 0.202348
C9    C     C_R   0.255545 0.547429 0.375505 0.505118
C10   C     C_R   0.291718 0.542427 0.499946 -0.343142
N1    N     N_R   0.035557 0.622519 0.408125 -0.192264
N2    N     N_R   0.966474 0.612725 0.412232 -0.182219
C11   C     C_R   0.932765 0.536108 0.507367 0.389566
N3    N     N_R   0.970149 0.467362 0.596250 -0.141859
N4    N     N_R   0.039120 0.478056 0.593051 -0.109077
C12   C     C_R   0.072634 0.556235 0.499550 0.337721
C13   C     C_R   0.818256 0.511255 0.631995 -0.096867
C14   C     C_R   0.746293 0.484818 0.626570 0.346578
C15   C     C_R   0.711779 0.496101 0.500774 -0.231808
C16   C     C_R   0.750939 0.512439 0.378361 0.435419
C17   C     C_R   0.823905 0.519831 0.386202 -0.349264
H2    H     H_    0.856619 0.524906 0.296574 0.173459
C18   C     C_R   0.857024 0.524019 0.510120 -0.055356
C19   C     C_R   0.443901 0.060027 0.535800 -0.029369
C20   C     C_R   0.505449 0.128300 0.504870 -0.170061
C21   C     C_R   0.562385 0.071894 0.443671 0.483068
C22   C     C_R   0.559019 0.939155 0.438630 -0.254766
H3    H     H_    0.602967 0.887062 0.405169 0.116444
C23   C     C_R   0.499133 0.871556 0.487130 -0.135086
C24   C     C_R   0.439313 0.932335 0.521119 -0.020562
C25   C     C_3   0.391971 0.911317 0.642905 0.316155
C26   C     C_3   0.402023 0.051659 0.664257 -0.479976
H4    H     H_    0.415312 0.852742 0.724736 0.112877
H5    H     H_    0.353855 0.105421 0.658898 0.224966
H6    H     H_    0.434965 0.070177 0.752838 0.161899
C27   C     C_R   0.455406 0.421099 0.075171 0.149063
N5    N     N_R   0.499530 0.499140 0.142800 -0.198705
C28   C     C_R   0.538550 0.588699 0.067918 -0.038394
C29   C     C_R   0.542970 0.582858 0.923457 -0.046304
N6    N     N_R   0.499530 0.499180 0.857150 -0.187754
C30   C     C_R   0.451979 0.426773 0.933495 0.205135
C31   C     C_3   0.439648 0.286259 0.928938 -0.362077
C32   C     C_3   0.449824 0.278840 0.082892 -0.157708
H7    H     H_    0.480649 0.240789 0.869951 0.165580
C33   C     C_2   0.291706 0.593390 0.750475 0.615860
H8    H     H_    0.341464 0.645432 0.750610 0.052268
O9    O     O_2   0.265809 0.555027 0.858537 -0.518802
O10   O     O_3   0.320483 0.873784 0.623992 -0.671062
C34   C     C_3   0.294127 0.890764 0.491439 0.088267
H9    H     H_    0.251059 0.818688 0.482377 0.144064
H10   H     H_    0.331695 0.871411 0.409665 0.125355
C35   C     C_3   0.263878 0.021802 0.469279 -0.336487
H11   H     H_    0.233999 0.045964 0.560910 0.237228
H12   H     H_    0.306642 0.094259 0.450139 0.240272
C36   C     C_3   0.215782 0.026686 0.348333 -0.913277
H13   H     H_    0.245443 0.009875 0.254321 0.270083
H14   H     H_    0.193646 0.121792 0.338249 0.288666
H15   H     H_    0.172212 0.954711 0.361952 0.254314
C37   C     C_2   0.573506 0.693805 0.137668 0.529963
H16   H     H_    0.602286 0.676331 0.228514 0.106367
O11   O     O_2   0.569215 0.802923 0.094638 -0.563371
C38   C     C_2   0.598410 0.659972 0.847162 0.546257
H17   H     H_    0.595025 0.684046 0.741939 0.124145
O12   O     O_2   0.651691 0.696040 0.901562 -0.615486
C39   C     C_2   0.366942 0.249423 0.884715 0.473315
H18   H     H_    0.344163 0.156804 0.914829 0.044445
O13   O     O_2   0.333941 0.320088 0.812223 -0.521852
C40   C     C_2   0.389053 0.223054 0.168154 0.477973
H19   H     H_    0.376890 0.122069 0.168223 0.047887
O14   O     O_2   0.353461 0.289026 0.237255 -0.517614
O15   O     O_3   0.147653 0.614026 0.735387 -0.590515
C41   C     C_3   0.122976 0.738449 0.723224 0.097759
H20   H     H_    0.065348 0.732206 0.736087 0.197180
H21   H     H_    0.134966 0.788963 0.623698 0.108684
C42   C     C_3   0.154072 0.817418 0.834697 -0.336637
H22   H     H_    0.140792 0.770455 0.934644 0.241071
H23   H     H_    0.211642 0.823929 0.821647 0.253531
C43   C     C_3   0.126538 0.950614 0.830841 -0.911586
H24   H     H_    0.139459 0.000029 0.732079 0.267722
H25   H     H_    0.150860 0.005578 0.912126 0.270748
H26   H     H_    0.069133 0.946431 0.847003 0.272023
C44   C     C_2   0.517234 0.217997 0.118075 0.369058
H27   H     H_    0.562622 0.275072 0.145662 0.111620
O16   O     O_2   0.521751 0.103600 0.112631 -0.571331
O17   O     O_3   0.287674 0.531434 0.251554 -0.561180
C45   C     C_3   0.320115 0.647241 0.201921 0.200958
H28   H     H_    0.358747 0.623919 0.123135 0.186882
H29   H     H_    0.349997 0.697001 0.280664 0.093231
C46   C     C_3   0.267797 0.735918 0.137676 -0.426864
H30   H     H_    0.234011 0.682797 0.068032 0.281444
H31   H     H_    0.234179 0.773181 0.217717 0.203294
C47   C     C_3   0.305424 0.846852 0.059868 -0.949319
H32   H     H_    0.342426 0.896822 0.126515 0.263750
H33   H     H_    0.266990 0.914978 0.022857 0.266742
H34   H     H_    0.334559 0.812660 0.971711 0.276118
C48   C     C_2   0.849980 0.533141 0.765793 0.439863
H35   H     H_    0.827324 0.487619 0.857087 0.062503
O18   O     O_2   0.899520 0.607855 0.776718 -0.581542
O19   O     O_3   0.708723 0.462398 0.746577 -0.623493
C49   C     C_3   0.714160 0.334807 0.793674 0.029937
H36   H     H_    0.721450 0.334920 0.904734 0.154117
H37   H     H_    0.759653 0.286711 0.750531 0.120346
C50   C     C_3   0.646805 0.258793 0.765974 -0.316897
H38   H     H_    0.601883 0.308215 0.807631 0.243541
H39   H     H_    0.640780 0.252241 0.655213 0.237093
C51   C     C_3   0.646645 0.125390 0.830251 -0.890970
H40   H     H_    0.691643 0.073942 0.791951 0.265511
H41   H     H_    0.597766 0.072674 0.804473 0.276963
H42   H     H_    0.649172 0.129449 0.941862 0.278972
O20   O     O_3   0.715133 0.515197 0.256179 -0.652261
C52   C     C_3   0.753315 0.564621 0.141019 0.076929
H43   H     H_    0.719813 0.549401 0.052617 0.211372
H44   H     H_    0.799713 0.509430 0.119117 0.121385
C53   C     C_3   0.769710 0.707962 0.147523 -0.379813
H45   H     H_    0.720361 0.758850 0.148075 0.244043
H46   H     H_    0.797553 0.730436 0.241349 0.216793
C54   C     C_3   0.814820 0.757647 0.027312 -0.808727
H47   H     H_    0.865895 0.712220 0.028826 0.272477
H48   H     H_    0.824091 0.861521 0.033032 0.251466
H49   H     H_    0.788570 0.738104 0.930936 0.302789
O21   O     O_3   0.620088 0.149909 0.402567 -0.673863
C55   C     C_3   0.668239 0.090982 0.318990 0.065092
H50   H     H_    0.641443 0.042545 0.235311 0.206491
H51   H     H_    0.698066 0.022361 0.380644 0.140821
C56   C     C_3   0.719546 0.191853 0.256626 -0.297748
H52   H     H_    0.690742 0.261287 0.194331 0.239288
H53   H     H_    0.746138 0.242660 0.338532 0.236582
C57   C     C_3   0.774325 0.133573 0.167965 -0.995169
H54   H     H_    0.805650 0.067481 0.229397 0.274965
H55   H     H_    0.809715 0.209729 0.122125 0.266244
H56   H     H_    0.749162 0.081293 0.085625 0.273427

loop_
_geom_bond_atom_site_label_1
_geom_bond_atom_site_label_2
_geom_bond_distance
_ccdc_geom_bond_type
C36   H14   1.110475 S    
C35   H12   1.109113 S    
C44   H27   1.085086 S    
C38   O12   1.219018 D    
C38   H17   1.066753 S    
C19   C20   1.383484 A    
C54   H47   1.110658 S    
C50   H38   1.110360 S    
C49   H37   1.117531 S    
C31   C32   1.540183 S    
Zn1   O7    1.988142 S    
N4    C12   1.353526 A    
C21   C22   1.406888 A    
C53   H45   1.109838 S    
C34   C35   1.535019 S    
C13   C14   1.401531 A    
C39   O13   1.219614 D    
C56   C57   1.526125 S    
O4    C2    1.299904 A    
C57   H56   1.110252 S    
C42   H23   1.110567 S    
C36   H15   1.111078 S    
C13   C48   1.490473 S    
C5    C6    1.402109 A    
C33   H8    1.083385 S    
C34   H10   1.107622 S    
C8    H1    1.084318 S    
C24   C25   1.503162 S    
O5    C3    1.287587 A    
O19   C49   1.419405 S    
C3    C23   1.397930 S    
C27   N5    1.362003 A    
O21   C55   1.413038 S    
C32   C44   1.509662 S    
C55   C56   1.527440 S    
N2    C11   1.356613 A    
C37   H16   1.077421 S    
C43   H25   1.110432 S    
C19   C26   1.492546 S    
C36   H13   1.108731 S    
C9    O17   1.385550 S    
C35   C36   1.525293 S    
C13   C18   1.407527 A    
O10   C34   1.422311 S    
C44   O16   1.220976 D    
C51   H42   1.110204 S    
C48   O18   1.220997 D    
C49   C50   1.529762 S    
C25   H4    1.111998 S    
C4    C15   1.478505 S    
O3    Zn1   1.999623 S    
C46   H31   1.110081 S    
C45   H29   1.112806 S    
C45   H28   1.110815 S    
C31   H7    1.110747 S    
C22   H3    1.082481 S    
N6    C30   1.366375 A    
C7    C12   1.443407 S    
C14   O19   1.388101 S    
C11   N3    1.353582 A    
C16   O20   1.401696 S    
C56   H53   1.111201 S    
C29   C38   1.491403 S    
C40   O14   1.219854 D    
C42   H22   1.110949 S    
C6    C7    1.401739 A    
C29   N6    1.384261 A    
N3    N4    1.325061 A    
C2    C10   1.478281 S    
O6    C3    1.277995 A    
C46   C47   1.527702 S    
C11   C18   1.455273 S    
C35   H11   1.110823 S    
C34   H9    1.109194 S    
O1    C1    1.285411 A    
C17   C18   1.393255 A    
Zn2   N5    2.022509 S    
C14   C15   1.424119 A    
C53   C54   1.524727 S    
C16   C17   1.404394 A    
Zn2   O8    1.999621 S    
O17   C45   1.417995 S    
C6    O15   1.388206 S    
C7    C8    1.386801 A    
C47   H33   1.109531 S    
C39   H18   1.085414 S    
C43   H26   1.110795 S    
C26   H5    1.107281 S    
O20   C52   1.416592 S    
C27   C32   1.503992 S    
O3    C2    1.302083 A    
C23   C24   1.383914 A    
C41   H21   1.118461 S    
O8    C4    1.306326 A    
C28   C29   1.436532 A    
N1    C12   1.352936 A    
C55   H50   1.114278 S    
C41   H20   1.111445 S    
C31   C39   1.511094 S    
C25   C26   1.513994 S    
C48   H35   1.083719 S    
C52   H44   1.109342 S    
C54   H49   1.109811 S    
C45   C46   1.531884 S    
C30   C31   1.499032 S    
C55   H51   1.112968 S    
C32   C40   1.515412 S    
Zn1   O5    1.961288 S    
C20   C21   1.408461 A    
C49   H36   1.111513 S    
O1    Zn1   1.991840 S    
O2    Zn2   1.961286 S    
C56   H52   1.111326 S    
C42   C43   1.525631 S    
C54   H48   1.110452 S    
C25   O10   1.431206 S    
O4    Zn2   1.988144 S    
C50   H39   1.110014 S    
C57   H54   1.110865 S    
C27   C30   1.405292 A    
C21   O21   1.399691 S    
C28   C37   1.477106 S    
C17   H2    1.078074 S    
C52   C53   1.540978 S    
C51   H41   1.110945 S    
O2    C1    1.282371 A    
C43   H24   1.110203 S    
Zn1   N6    2.021002 S    
C51   H40   1.110734 S    
C5    C33   1.487360 S    
C22   C23   1.397453 A    
C57   H55   1.110536 S    
C15   C16   1.417859 A    
C1    C20   1.403359 S    
N5    C28   1.370118 A    
C46   H30   1.108694 S    
O7    C4    1.297662 A    
C33   O9    1.220560 D    
C47   H34   1.111090 S    
C8    C9    1.384976 A    
C19   C24   1.364752 A    
C26   H6    1.109321 S    
C50   C51   1.525112 S    
C40   H19   1.084666 S    
C5    C10   1.428834 A    
C41   C42   1.526537 S    
C9    C10   1.425087 A    
Zn2   O6    1.991840 S    
O15   C41   1.419446 S    
C47   H32   1.110571 S    
C53   H46   1.109143 S    
N1    N2    1.326895 A    
C37   O11   1.221321 D    
C52   H43   1.108246 S    
