data_mof_unit_19683.cif
_audit_creation_date              2012-12-11T15:59:39-0500
_audit_creation_method            fapswitch 2.2
_symmetry_space_group_name_H-M    P1
_symmetry_Int_Tables_number       1
_space_group_crystal_system       triclinic
_cell_length_a                    10.750811
_cell_length_b                    10.704914
_cell_length_c                    17.080269
_cell_angle_alpha                 99.713436
_cell_angle_beta                  100.128843
_cell_angle_gamma                 60.538128
_cell_volume                      1677.06462545

loop_
_atom_site_label
_atom_site_type_symbol
_atom_type_description
_atom_site_fract_x
_atom_site_fract_y
_atom_site_fract_z
_atom_type_partial_charge
C1    C     C_R   0.356062 0.769355 0.397928 0.526715
C2    C     C_R   0.854988 0.203813 0.196828 0.031620
C3    C     C_R   0.865107 0.213338 0.280843 0.019601
C4    C     C_R   0.779214 0.471680 0.284561 -0.141507
C5    C     C_R   0.785036 0.459873 0.204132 -0.157055
C6    C     C_R   0.873733 0.071547 0.153505 -0.062912
C7    C     C_R   0.924534 0.948324 0.192464 -0.135942
C8    C     C_R   0.950582 0.955477 0.275336 -0.134472
C9    C     C_R   0.919588 0.086964 0.319497 -0.089908
C10   C     C_R   0.819266 0.349721 0.323800 0.005225
C11   C     C_R   0.356180 0.815055 0.157406 -0.001480
C12   C     C_R   0.406161 0.374864 0.356393 0.569654
C13   C     C_R   0.448972 0.848568 0.216523 0.022145
C14   C     C_R   0.433914 0.855437 0.297885 0.013323
C15   C     C_R   0.281524 0.741336 0.256859 -0.146213
C16   C     C_R   0.283575 0.749913 0.177892 -0.148830
C17   C     C_R   0.554582 0.876995 0.197394 -0.095299
C18   C     C_R   0.631272 0.925691 0.256643 -0.130037
C19   C     C_R   0.608297 0.943599 0.336062 -0.088413
C20   C     C_R   0.508232 0.911856 0.356768 -0.080052
C21   C     C_R   0.347666 0.802111 0.317562 0.010922
C22   C     C_R   0.300654 0.278400 0.799829 0.003144
C23   C     C_R   0.774625 0.378056 0.402950 0.543598
C24   C     C_R   0.426496 0.176105 0.763184 0.028148
C25   C     C_R   0.479293 0.223456 0.712148 0.000677
C26   C     C_R   0.252244 0.448512 0.707630 -0.131583
C27   C     C_R   0.213742 0.413432 0.770732 -0.133392
C28   C     C_R   0.505288 0.029512 0.778894 -0.122549
C29   C     C_R   0.643062 0.940539 0.756551 -0.087874
C30   C     C_R   0.705435 0.996101 0.717967 0.168449
C31   C     C_R   0.624408 0.135990 0.695749 -0.067538
C32   C     C_R   0.383289 0.353451 0.676795 -0.015969
C33   C     C_1   0.769835 0.368752 0.714768 -0.054493
C34   C     C_R   0.358405 0.768839 0.627590 0.545130
C35   C     C_1   0.814455 0.329816 0.780771 -0.028861
C36   C     C_1   0.339691 0.808589 0.709712 -0.038463
C37   C     C_1   0.313084 0.836318 0.777599 -0.034763
C38   C     C_R   0.890787 0.308884 0.086892 0.545797
C39   C     C_R   0.322021 0.302816 0.119261 0.565194
C40   C     C_R   0.298755 0.886623 0.083928 0.549327
C41   C     C_R   0.879640 0.300784 0.860357 0.548873
C42   C     C_R   0.279247 0.253592 0.876945 0.546550
C43   C     C_R   0.278976 0.884256 0.857324 0.544238
C44   C     C_R   0.408411 0.375506 0.600129 0.526095
C45   C     C_R   0.718772 0.411765 0.635591 0.529749
C46   C     C_1   0.374627 0.362489 0.272017 -0.044412
C47   C     C_1   0.349625 0.343632 0.201204 -0.044118
C48   C     C_R   0.829404 0.326337 0.160071 -0.001951
Cr1   Cr    Cr6+3 0.608100 0.610860 0.522250 1.033796
Cr2   Cr    Cr6+3 0.288890 0.599990 0.488420 1.039974
Cr3   Cr    Cr6+3 0.603040 0.289190 0.489390 1.005926
Cr4   Cr    Cr6+3 0.053960 0.052250 0.967380 1.038849
Cr5   Cr    Cr6+3 0.059890 0.373160 0.992710 1.018723
Cr6   Cr    Cr6+3 0.373370 0.061690 0.991710 0.999237
H1    H     H_    0.740110 0.578881 0.315673 0.159127
H2    H     H_    0.707298 0.951235 0.240402 0.132854
H3    H     H_    0.668743 0.981566 0.381785 0.143289
H4    H     H_    0.490138 0.932228 0.419002 0.145860
H5    H     H_    0.179393 0.549967 0.682890 0.187839
H6    H     H_    0.462312 0.983006 0.809539 0.155187
H7    H     H_    0.116452 0.492077 0.796881 0.160802
H8    H     H_    0.702332 0.830016 0.771353 0.142695
H9    H     H_    0.676275 0.173848 0.665092 0.170873
H10   H     H_    0.845374 0.061853 0.089755 0.139629
H11   H     H_    0.761301 0.554854 0.177031 0.136472
H12   H     H_    0.941082 0.847452 0.158374 0.104333
H13   H     H_    0.988780 0.860110 0.305672 0.128336
H14   H     H_    0.940036 0.088485 0.383886 0.138815
H15   H     H_    0.225911 0.687471 0.270150 0.135104
H16   H     H_    0.584033 0.856470 0.137473 0.137084
H17   H     H_    0.219633 0.714646 0.133000 0.134639
O1    O     O_R   0.749810 0.499790 0.438040 -0.505191
O2    O     O_R   0.298970 0.468800 0.557390 -0.474203
O3    O     O_R   0.489400 0.255930 0.561910 -0.513477
O4    O     O_R   0.723890 0.306050 0.584610 -0.511258
O5    O     O_3   0.500010 0.500010 0.500020 -0.312044
O6    O     O_R   0.171100 0.914680 0.053100 -0.513279
O7    O     O_R   0.941680 0.184840 0.050710 -0.511011
O8    O     O_R   0.922080 0.403420 0.072610 -0.517889
O9    O     O_R   0.196880 0.369150 0.083850 -0.492292
O10   O     O_R   0.411730 0.181020 0.091530 -0.506764
O11   O     O_R   0.365010 0.944360 0.063320 -0.511461
O12   O     O_R   0.477660 0.726260 0.439290 -0.508622
O13   O     O_R   0.159380 0.906670 0.876210 -0.468867
O14   O     O_R   0.930820 0.177420 0.886730 -0.477118
O15   O     O_R   0.910360 0.395420 0.895720 -0.526652
O16   O     O_R   0.186010 0.361730 0.919870 -0.498240
O17   O     O_R   0.400000 0.173010 0.914630 -0.517818
O18   O     O_R   0.354140 0.936940 0.899340 -0.546959
O19   O     O_3   0.162410 0.162370 0.983930 -0.261827
O20   O     O_R   0.260150 0.743000 0.412270 -0.531246
O21   O     O_R   0.297740 0.466550 0.394720 -0.485095
O22   O     O_R   0.488080 0.253500 0.386430 -0.505213
O23   O     O_R   0.722670 0.303800 0.421940 -0.520932
O24   O     O_R   0.751130 0.502220 0.613520 -0.473115
O25   O     O_R   0.478890 0.728510 0.601960 -0.509292
O26   O     O_R   0.261470 0.745430 0.587750 -0.486167
Br1   Br    Br    0.898982 0.879747 0.692626 -0.529504

loop_
_geom_bond_atom_site_label_1
_geom_bond_atom_site_label_2
_ccdc_geom_bond_type
C25   C31   A    
C1    C21   S    
C33   C45   S    
Cr4   O19   S    
C19   C20   A    
Cr3   O3    S    
C7    C8    A    
C19   H3    S    
C26   C32   A    
C41   O15   A    
C26   C27   A    
C43   O18   A    
C14   C21   A    
C28   C29   A    
Cr5   O8    S    
Cr3   O4    S    
Cr6   O19   S    
C30   C31   A    
C38   O8    A    
C15   C16   A    
C34   O26   A    
C14   C20   A    
C18   C19   A    
C6    H10   S    
Cr4   O13   S    
C27   H7    S    
C29   H8    S    
C8    C9    A    
Cr1   O1    S    
Cr5   O15   S    
C26   H5    S    
C38   C48   S    
C18   H2    S    
C25   C32   A    
C17   H16   S    
C1    O20   A    
C13   C14   A    
C43   O13   A    
C2    C6    A    
C16   H17   S    
Cr4   O7    S    
C28   H6    S    
C15   H15   S    
C5    C48   A    
C40   O11   A    
Cr5   O9    S    
C24   C25   A    
C39   O10   A    
Cr6   O18   S    
C12   C46   S    
Cr2   O2    S    
C38   O7    A    
C2    C48   A    
Cr1   O24   S    
C37   C43   S    
C29   C30   A    
C3    C9    A    
Cr2   O5    S    
C11   C16   A    
C17   C18   A    
C32   C44   S    
Cr1   O5    S    
Cr5   O16   S    
Cr3   O5    S    
C44   O3    A    
Cr3   O22   S    
C5    H11   S    
C22   C27   A    
C4    H1    S    
C22   C24   A    
C12   O22   A    
C42   O17   A    
C4    C10   A    
Cr4   O6    S    
C45   O24   A    
Cr6   O11   S    
C39   C47   S    
Cr2   O21   S    
C44   O2    A    
C46   C47   T    
Cr4   O14   S    
Cr2   O26   S    
C23   O1    A    
C12   O21   A    
C24   C28   A    
C34   O25   A    
C4    C5    A    
C6    C7    A    
C10   C23   S    
C1    O12   A    
C31   H9    S    
C41   O14   A    
C30   Br1   S    
C23   O23   A    
C13   C17   A    
C45   O4    A    
C39   O9    A    
Cr1   O12   S    
C2    C3    A    
C9    H14   S    
C3    C10   A    
C7    H12   S    
Cr6   O17   S    
C11   C13   A    
C22   C42   S    
C33   C35   T    
C34   C36   S    
Cr1   O25   S    
C11   C40   S    
C35   C41   S    
Cr3   O23   S    
Cr2   O20   S    
C15   C21   A    
C8    H13   S    
C36   C37   T    
Cr5   O19   S    
C40   O6    A    
C42   O16   A    
C20   H4    S    
Cr6   O10   S    
