data_mof_unit_31883.cif
_audit_creation_date              2012-12-10T16:57:08-0500
_audit_creation_method            fapswitch 2.2
_symmetry_space_group_name_H-M    P1
_symmetry_Int_Tables_number       1
_space_group_crystal_system       triclinic
_cell_length_a                    7.79235
_cell_length_b                    8.562478
_cell_length_c                    16.032195
_cell_angle_alpha                 91.420134
_cell_angle_beta                  79.789678
_cell_angle_gamma                 93.669951
_cell_volume                      1050.50006447

loop_
_atom_site_label
_atom_site_type_symbol
_atom_type_description
_atom_site_fract_x
_atom_site_fract_y
_atom_site_fract_z
_atom_type_partial_charge
C1    C     C_R   0.546146 0.794755 0.497866 0.965698
C2    C     C_R   0.468965 0.707640 0.248162 -0.179971
C3    C     C_R   0.610817 0.592963 0.866976 -0.171380
C4    C     C_R   0.508198 0.787674 0.172338 -0.151237
C5    C     C_R   0.481630 0.694827 0.903982 0.097253
C6    C     C_R   0.626475 0.729745 0.104183 0.124088
C7    C     C_R   0.333169 0.702834 0.866152 -0.157076
C8    C     C_R   0.714971 0.595936 0.115761 -0.140060
C9    C     C_R   0.325336 0.630166 0.788271 -0.199647
C10   C     C_R   0.679841 0.518171 0.193238 -0.224722
C11   C     C_2   0.493122 0.785449 0.984215 0.340199
C12   C     C_R   0.453858 0.205243 0.502075 0.972012
C13   C     C_2   0.641437 0.793001 0.017927 0.292801
C14   C     C_3   0.859634 0.948289 0.939557 0.074785
C15   C     C_3   0.792963 0.991527 0.859095 -0.359839
C16   C     C_3   0.875375 0.149124 0.825207 -0.962412
C17   C     C_3   0.310239 0.988155 0.007698 0.052569
C18   C     C_3   0.401488 0.117856 0.054865 -0.403716
C19   C     C_3   0.386437 0.278489 0.018339 -0.908021
C20   C     C_2   0.570460 0.958236 0.496626 -0.384501
C21   C     C_2   0.429555 0.041729 0.503159 -0.396579
C22   C     C_R   0.476293 0.506058 0.656491 0.848397
C23   C     C_R   0.525546 0.505927 0.343885 0.837894
C24   C     C_R   0.465752 0.546897 0.746552 -0.036743
C25   C     C_R   0.552622 0.571428 0.258936 -0.024739
C26   C     C_R   0.605220 0.523403 0.787984 -0.226330
H1    H     H_    0.703490 0.009331 0.490428 0.180404
H2    H     H_    0.649466 0.999867 0.872678 0.207819
H3    H     H_    0.841386 0.243243 0.873158 0.262871
H4    H     H_    0.825215 0.176782 0.766966 0.265222
H5    H     H_    0.019745 0.145359 0.809184 0.264830
H6    H     H_    0.167971 0.002758 0.024761 0.167831
H7    H     H_    0.346047 0.004948 0.937881 0.116512
H8    H     H_    0.340079 0.118712 0.122915 0.219254
H9    H     H_    0.541750 0.097229 0.050068 0.207109
H10   H     H_    0.452427 0.283149 0.950980 0.267352
H11   H     H_    0.450075 0.370225 0.054704 0.270698
H12   H     H_    0.296527 0.990624 0.509346 0.180006
H13   H     H_    0.246968 0.303485 0.022554 0.265298
H14   H     H_    0.223822 0.768225 0.895212 0.163887
H15   H     H_    0.806902 0.548717 0.064071 0.163337
H16   H     H_    0.443460 0.893427 0.167208 0.160009
H17   H     H_    0.717762 0.566318 0.897666 0.184531
H18   H     H_    0.022330 0.378595 0.438564 0.191310
H19   H     H_    0.977656 0.621339 0.561484 0.188419
H20   H     H_    0.712277 0.455033 0.758309 0.156030
H21   H     H_    0.377103 0.755679 0.299672 0.153168
H22   H     H_    0.749968 0.416122 0.201607 0.142931
H23   H     H_    0.213438 0.647264 0.758665 0.158624
H24   H     H_    0.003888 0.952834 0.923477 0.154633
H25   H     H_    0.826732 0.036849 0.991130 0.116294
H26   H     H_    0.825060 0.899710 0.809538 0.235991
N1    N     N_2   0.953500 0.457650 0.478520 -0.169182
N2    N     N_2   0.046500 0.542350 0.521480 -0.172399
O1    O     O_R   0.388470 0.738640 0.505270 -0.613372
O2    O     O_3   0.340340 0.835748 0.032920 -0.657169
O3    O     O_R   0.611530 0.261360 0.494730 -0.607536
O4    O     O_R   0.679650 0.711510 0.491500 -0.622174
O5    O     O_R   0.320350 0.288490 0.508500 -0.622508
O6    O     O_R   0.337210 0.515200 0.623500 -0.611699
O7    O     O_R   0.662790 0.484800 0.376500 -0.599295
O8    O     O_R   0.628380 0.488060 0.609730 -0.614848
O9    O     O_R   0.371620 0.511940 0.390270 -0.615458
O10   O     O_3   0.803783 0.793658 0.965569 -0.685126
Zn1   Zn    Zn3+2 0.305580 0.518120 0.509190 0.929517
Zn2   Zn    Zn3+2 0.694420 0.481880 0.490810 0.938154

loop_
_geom_bond_atom_site_label_1
_geom_bond_atom_site_label_2
_ccdc_geom_bond_type
H19   N2    S    
C2    C4    A    
C7    H14   S    
O9    Zn1   S    
C9    C24   A    
N1    N2    D    
C20   H1    S    
C2    H21   S    
C22   O8    A    
C11   C13   D    
C18   H9    S    
H18   N1    S    
C14   H25   S    
O3    Zn2   S    
C14   O10   S    
C4    H16   S    
C23   O9    A    
C17   C18   S    
C1    O1    A    
C11   O2    S    
N2    Zn1   S    
C15   H26   S    
C8    H15   S    
C16   H5    S    
C22   O6    A    
N1    Zn2   S    
C18   H8    S    
C17   O2    S    
C3    H17   S    
C15   H2    S    
C14   H24   S    
C13   O10   S    
C17   H7    S    
C12   O3    A    
C19   H13   S    
C10   C25   A    
C4    C6    A    
O1    Zn1   S    
C24   C26   A    
O6    Zn1   S    
C5    C11   S    
C2    C25   A    
C5    C7    A    
C19   H10   S    
C23   C25   S    
C10   H22   S    
C22   C24   S    
O8    Zn2   S    
C16   H4    S    
C15   C16   S    
C23   O7    A    
C9    H23   S    
C20   C21   D    
C8    C10   A    
C18   C19   S    
C7    C9    A    
C17   H6    S    
C26   H20   S    
C14   C15   S    
C1    C20   S    
C6    C8    A    
C19   H11   S    
O7    Zn2   S    
C3    C5    A    
C16   H3    S    
C1    O4    A    
C12   O5    A    
C12   C21   S    
O4    Zn2   S    
C3    C26   A    
O5    Zn1   S    
C21   H12   S    
C6    C13   S    
