data_mof_unit_26427.cif
_audit_creation_date              2012-12-11T14:02:45-0500
_audit_creation_method            fapswitch 2.2
_symmetry_space_group_name_H-M    P1
_symmetry_Int_Tables_number       1
_space_group_crystal_system       triclinic
_cell_length_a                    7.157579
_cell_length_b                    11.698499
_cell_length_c                    12.90722
_cell_angle_alpha                 90.020021
_cell_angle_beta                  89.961741
_cell_angle_gamma                 89.967053
_cell_volume                      1080.75887299

loop_
_atom_site_label
_atom_site_type_symbol
_atom_type_description
_atom_site_fract_x
_atom_site_fract_y
_atom_site_fract_z
_atom_type_partial_charge
O1    O     O_R   0.563540 0.856420 0.141290 -0.562492
O2    O     O_R   0.436460 0.143580 0.858710 -0.559702
O3    O     O_R   0.436460 0.143580 0.641290 -0.548448
O4    O     O_R   0.563540 0.856420 0.358710 -0.522686
O5    O     O_R   0.063540 0.643580 0.358710 -0.562778
O6    O     O_R   0.936460 0.356420 0.641290 -0.559260
O7    O     O_R   0.936460 0.356420 0.858710 -0.559396
O8    O     O_R   0.063540 0.643580 0.141290 -0.562659
O9    O     O_R   0.233730 0.870400 0.357990 -0.531817
O10   O     O_R   0.766270 0.129600 0.642010 -0.544232
O11   O     O_R   0.766270 0.129600 0.857990 -0.523441
O12   O     O_R   0.233730 0.870400 0.142010 -0.526162
O13   O     O_R   0.733730 0.629600 0.142010 -0.526699
O14   O     O_R   0.266270 0.370400 0.857990 -0.523483
O15   O     O_R   0.266270 0.370400 0.642010 -0.522452
O16   O     O_R   0.733730 0.629600 0.357990 -0.521040
C1    C     C_R   0.403887 0.897640 0.392322 0.789173
C2    C     C_R   0.595715 0.102527 0.607323 0.701246
C3    C     C_R   0.595638 0.102433 0.892362 0.769262
C4    C     C_R   0.404359 0.897555 0.107626 0.758181
C5    C     C_R   0.904392 0.602435 0.107651 0.758755
C6    C     C_R   0.095607 0.397565 0.892348 0.769731
C7    C     C_R   0.095648 0.397549 0.607622 0.767562
C8    C     C_R   0.904358 0.602415 0.392352 0.779582
O17   O     O_3   0.396920 0.675570 0.250000 -0.393249
O18   O     O_3   0.603080 0.324430 0.750000 -0.382286
O19   O     O_3   0.896920 0.824430 0.250000 -0.375293
O20   O     O_3   0.103080 0.175570 0.750000 -0.389718
V1    V     V_3+5 0.122110 0.763800 0.250000 1.413901
V2    V     V_3+5 0.877890 0.236200 0.750000 1.377840
V3    V     V_3+5 0.622110 0.736200 0.250000 1.439014
V4    V     V_3+5 0.377890 0.263800 0.750000 1.405093
C9    C     C_2   0.918133 0.512083 0.472927 -0.039654
C10   C     C_2   0.081890 0.487843 0.527018 -0.037465
C11   C     C_2   0.081817 0.487965 0.972842 -0.036481
C12   C     C_2   0.918182 0.512036 0.027156 -0.033856
C13   C     C_2   0.418066 0.987816 0.026998 -0.033260
C14   C     C_2   0.581925 0.012159 0.972978 -0.038064
C15   C     C_2   0.581329 0.013671 0.524512 -0.041924
C16   C     C_2   0.415662 0.986388 0.474464 0.015651
N1    N     N_3   0.748358 0.448539 0.488606 -0.658352
H1    H     H_    0.772582 0.361371 0.476658 0.233554
H2    H     H_    0.695171 0.464781 0.562585 0.271587
N2    N     N_3   0.251692 0.551348 0.511306 -0.657256
H3    H     H_    0.227537 0.638519 0.523273 0.233999
H4    H     H_    0.304813 0.535099 0.437313 0.268494
N3    N     N_3   0.251393 0.551797 0.988164 -0.659540
H5    H     H_    0.226753 0.638918 0.976272 0.233424
H6    H     H_    0.304999 0.535687 0.062024 0.268899
N4    N     N_3   0.748606 0.448205 0.011834 -0.659319
H7    H     H_    0.773244 0.361084 0.023726 0.234533
H8    H     H_    0.695001 0.464315 0.937973 0.269708
N5    N     N_3   0.248041 0.051141 0.011148 -0.658558
H9    H     H_    0.271725 0.138340 0.023120 0.234443
H10   H     H_    0.195339 0.034817 0.937123 0.268489
N6    N     N_3   0.751937 0.948816 0.988810 -0.660753
H11   H     H_    0.728223 0.861620 0.976845 0.232740
H12   H     H_    0.804668 0.965137 0.062830 0.270175
N7    N     N_3   0.750832 0.954148 0.498609 -0.632092
H13   H     H_    0.848171 0.013955 0.472085 0.253839
H14   H     H_    0.803585 0.916258 0.565873 0.221454
N8    N     N_3   0.241997 0.043483 0.496404 -0.688231
H15   H     H_    0.255892 0.131407 0.484131 0.237525
H16   H     H_    0.198709 0.024917 0.571889 0.254243

loop_
_geom_bond_atom_site_label_1
_geom_bond_atom_site_label_2
_ccdc_geom_bond_type
O17   V3    S    
N4    H8    S    
C2    C15   S    
C14   N6    S    
O18   V4    S    
N8    H15   S    
C6    C11   S    
C3    C14   S    
O12   V1    S    
O19   V1    S    
O7    C6    A    
N1    H1    S    
O10   V2    S    
O6    C7    A    
C11   C12   D    
O9    V1    S    
C7    C10   S    
C13   N5    S    
O12   C4    A    
O15   C7    A    
C9    C10   D    
C16   N8    S    
C15   N7    S    
N7    H13   S    
N3    H6    S    
O7    V2    S    
N5    H9    S    
N2    H3    S    
O16   V3    S    
O14   C6    A    
C4    C13   S    
N1    H2    S    
O11   C3    A    
C13   C14   D    
O5    C8    A    
O10   C2    A    
O8    V1    S    
O9    C1    A    
O6    V2    S    
N6    H12   S    
O8    C5    A    
C9    N1    S    
O5    V1    S    
N5    H10   S    
O3    V4    S    
O16   C8    A    
N7    H14   S    
O4    V3    S    
O4    C1    A    
O13   C5    A    
N3    H5    S    
O1    V3    S    
C12   N4    S    
N6    H11   S    
O3    C2    A    
O2    V4    S    
O14   V4    S    
C15   C16   D    
C5    C12   S    
C10   N2    S    
O1    C4    A    
N8    H16   S    
N4    H7    S    
O2    C3    A    
O13   V3    S    
C11   N3    S    
C8    C9    S    
O11   V2    S    
N2    H4    S    
O20   V2    S    
C1    C16   S    
O15   V4    S    
