data_mof_unit_11710.cif
_audit_creation_date              2012-12-10T17:43:32-0500
_audit_creation_method            fapswitch 2.2
_symmetry_space_group_name_H-M    P1
_symmetry_Int_Tables_number       1
_space_group_crystal_system       triclinic
_cell_length_a                    14.927884
_cell_length_b                    10.725334
_cell_length_c                    9.964633
_cell_angle_alpha                 91.698982
_cell_angle_beta                  87.62718
_cell_angle_gamma                 92.340415
_cell_volume                      1592.0806295

loop_
_atom_site_label
_atom_site_type_symbol
_atom_type_description
_atom_site_fract_x
_atom_site_fract_y
_atom_site_fract_z
_atom_type_partial_charge
C1    C     C_R   0.496692 0.259869 0.498842 0.883667
C2    C     C_R   0.182712 0.386963 0.475484 0.017137
C3    C     C_R   0.230906 0.498182 0.507603 -0.150748
C4    C     C_R   0.326988 0.498660 0.502422 0.969702
C5    C     C_R   0.188323 0.610301 0.538391 0.075588
C6    C     C_R   0.394801 0.110735 0.700029 -0.134054
C7    C     C_R   0.369381 0.050571 0.818541 -0.168297
C8    C     C_R   0.411964 0.943562 0.850997 0.198322
C9    C     C_R   0.471884 0.890038 0.757630 -0.155068
C10   C     C_R   0.486528 0.939979 0.627428 0.031265
C11   C     C_R   0.459047 0.060304 0.608306 0.118975
C12   C     C_R   0.907473 0.612264 0.532561 0.133475
C13   C     C_R   0.496992 0.126130 0.498179 -0.137742
C14   C     C_R   0.550633 0.067037 0.399824 -0.216324
C15   C     C_R   0.560701 0.939621 0.402317 0.202686
C16   C     C_R   0.509237 0.739811 0.502682 0.915509
C17   C     C_R   0.523053 0.874097 0.513185 -0.133000
C18   C     C_R   0.387223 0.328642 0.135395 0.257966
C19   C     C_R   0.301006 0.303812 0.089028 -0.142851
C20   C     C_R   0.285343 0.329018 0.956401 -0.260044
C21   C     C_R   0.354847 0.381206 0.875700 -0.159685
C22   C     C_R   0.432529 0.435730 0.931970 0.158771
C23   C     C_R   0.946684 0.283841 0.420805 -0.230252
C24   C     C_R   0.439187 0.424780 0.073229 0.151076
C25   C     C_R   0.561227 0.569032 0.069715 -0.100597
C26   C     C_R   0.562880 0.566023 0.926604 -0.104236
C27   C     C_R   0.672557 0.501395 0.497541 0.863989
C28   C     C_R   0.814648 0.611579 0.531836 -0.274615
C29   C     C_R   0.767551 0.503186 0.492010 -0.034645
C30   C     C_R   0.810432 0.394969 0.451997 -0.253239
C31   C     C_R   0.903012 0.393170 0.455327 0.126464
C32   C     C_R   0.952226 0.502197 0.495706 0.083871
C33   C     C_3   0.614865 0.877757 0.289672 -0.872718
C34   C     C_R   0.039072 0.281218 0.427551 -0.163881
C35   C     C_3   0.435152 0.210935 0.158838 -0.821097
C36   C     C_R   0.089617 0.388682 0.467606 0.096996
C37   C     C_R   0.045738 0.500823 0.500249 -0.008275
C38   C     C_R   0.094729 0.611413 0.537886 0.069640
C39   C     C_R   0.048665 0.720415 0.572844 -0.153229
C40   C     C_R   0.955838 0.720444 0.570893 -0.226942
H1    H     H_    0.778826 0.694555 0.562169 0.128046
H2    H     H_    0.614319 0.619985 0.871851 0.139539
H3    H     H_    0.909284 0.199895 0.389615 0.151135
H4    H     H_    0.069571 0.194195 0.399718 0.188910
H5    H     H_    0.083007 0.806488 0.603309 0.187376
H6    H     H_    0.921855 0.805257 0.599290 0.151118
H7    H     H_    0.584456 0.120287 0.320693 0.159173
H8    H     H_    0.569121 0.832269 0.216413 0.275707
H9    H     H_    0.659030 0.946728 0.234812 0.225404
H10   H     H_    0.658695 0.807685 0.330066 0.221668
H11   H     H_    0.427183 0.145008 0.071994 0.233552
H12   H     H_    0.362160 0.194223 0.677675 0.157313
H13   H     H_    0.508637 0.229108 0.164135 0.236289
H14   H     H_    0.406771 0.163773 0.249262 0.280089
H15   H     H_    0.318753 0.088623 0.886689 0.167823
H16   H     H_    0.507625 0.812303 0.791402 0.177165
H17   H     H_    0.611449 0.625185 0.121597 0.143490
H18   H     H_    0.254986 0.238867 0.140274 0.187479
H19   H     H_    0.224284 0.293012 0.911706 0.177067
H20   H     H_    0.345641 0.372820 0.772407 0.200568
H21   H     H_    0.771392 0.311823 0.422225 0.133577
I1    I     I_    0.382574 0.857639 0.036699 -0.368939
I2    I     I_    0.251151 0.216135 0.445073 -0.465993
I3    I     I_    0.267276 0.777864 0.578607 -0.309792
N1    N     N_R   0.499150 0.498800 0.142780 -0.119932
N2    N     N_R   0.499120 0.498720 0.857170 -0.114726
O1    O     O_R   0.500000 0.316780 0.614690 -0.627673
O2    O     O_R   0.499990 0.316750 0.385360 -0.620026
O3    O     O_R   0.367850 0.499980 0.614680 -0.630917
O4    O     O_R   0.367840 0.499960 0.385350 -0.581370
O5    O     O_R   0.500010 0.683250 0.614640 -0.632132
O6    O     O_R   0.500000 0.683220 0.385310 -0.585976
O7    O     O_R   0.632160 0.500040 0.614650 -0.619288
O8    O     O_R   0.632150 0.500020 0.385320 -0.629899
Zn1   Zn    Zn3+2 0.500010 0.500020 0.653130 0.955214
Zn2   Zn    Zn3+2 0.499990 0.499980 0.346870 0.975399

loop_
_geom_bond_atom_site_label_1
_geom_bond_atom_site_label_2
_ccdc_geom_bond_type
C35   H13   S    
C19   C20   A    
C16   O6    A    
C7    H15   S    
O6    Zn2   S    
C4    O4    A    
C7    C8    A    
C40   H6    S    
C29   C30   A    
N1    Zn2   S    
O8    Zn2   S    
C12   C28   A    
C18   C24   A    
C28   C29   A    
C38   C39   A    
C27   C29   S    
C10   C17   A    
C33   H9    S    
C28   H1    S    
C1    O2    A    
C23   H3    S    
C18   C19   A    
C22   N2    A    
C8    C9    A    
C13   C14   A    
C27   O8    A    
C18   C35   S    
C39   H5    S    
C21   C22   A    
C12   C32   A    
C35   H14   S    
O7    Zn1   S    
C16   O5    A    
C25   H17   S    
C4    O3    A    
C19   H18   S    
C26   N2    A    
C25   N1    A    
C21   H20   S    
C39   C40   A    
C16   C17   S    
C25   C26   A    
C5    I3    S    
C23   C31   A    
C12   C40   A    
C37   C38   A    
C31   C32   A    
C23   C34   A    
C35   H11   S    
C34   H4    S    
C9    H16   S    
C32   C37   A    
C20   H19   S    
C14   H7    S    
C24   N1    A    
O4    Zn2   S    
C22   C24   A    
C1    C13   S    
C3    C4    S    
C6    C11   A    
C2    I2    S    
C26   H2    S    
C9    C10   A    
C2    C36   A    
C15   C17   A    
C36   C37   A    
C3    C5    A    
C6    C7    A    
O2    Zn2   S    
C2    C3    A    
C33   H10   S    
C27   O7    A    
O5    Zn1   S    
C11   C13   A    
C30   C31   A    
N2    Zn1   S    
C1    O1    A    
O3    Zn1   S    
C34   C36   A    
C10   C11   A    
O1    Zn1   S    
C20   C21   A    
C30   H21   S    
C33   H8    S    
C14   C15   A    
C6    H12   S    
C5    C38   A    
C15   C33   S    
C8    I1    S    
