data_mof_unit_24702.cif
_audit_creation_date              2012-12-11T15:12:27-0500
_audit_creation_method            fapswitch 2.2
_symmetry_space_group_name_H-M    P1
_symmetry_Int_Tables_number       1
_space_group_crystal_system       triclinic
_cell_length_a                    31.347217
_cell_length_b                    22.558795
_cell_length_c                    18.103088
_cell_angle_alpha                 90.00118
_cell_angle_beta                  124.261895
_cell_angle_gamma                 89.99907
_cell_volume                      10580.2556668

loop_
_atom_site_label
_atom_site_type_symbol
_atom_type_description
_atom_site_fract_x
_atom_site_fract_y
_atom_site_fract_z
_atom_type_partial_charge
C1    C     C_R   0.544450 0.583036 0.742550 -0.227607
C2    C     C_R   0.292563 0.689490 0.551698 0.099802
C3    C     C_R   0.355808 0.208606 0.098553 0.199667
C4    C     C_R   0.818870 0.182242 0.951068 0.187860
C5    C     C_R   0.142098 0.701896 0.894166 0.195988
C6    C     C_R   0.181139 0.182231 0.048948 0.187863
C7    C     C_R   0.857980 0.701815 0.106009 0.195985
C8    C     C_R   0.238500 0.658877 0.938600 0.082193
C9    C     C_R   0.715486 0.211067 0.881256 0.073267
C10   C     C_R   0.761555 0.658820 0.061480 0.082276
C11   C     C_R   0.284519 0.211062 0.118750 0.073262
C12   C     C_R   0.738974 0.163108 0.942228 0.085909
C13   C     C_R   0.298912 0.299045 0.552822 0.098296
C14   C     C_R   0.214356 0.706440 0.876576 0.076785
C15   C     C_R   0.261033 0.163100 0.057781 0.085921
C16   C     C_R   0.785709 0.706350 0.123567 0.076791
C17   C     C_R   0.741245 0.235088 0.844213 -0.220000
C18   C     C_R   0.209609 0.628162 0.964532 -0.222986
C19   C     C_R   0.258761 0.235082 0.155797 -0.220016
C20   C     C_R   0.790448 0.628109 0.035549 -0.223122
C21   C     C_R   0.241829 0.734405 0.845429 -0.205046
C22   C     C_R   0.709724 0.132452 0.967396 -0.219370
C23   C     C_R   0.758251 0.734253 0.154794 -0.204925
C24   C     C_R   0.707759 0.689047 0.448405 0.099807
C25   C     C_R   0.290283 0.132444 0.032613 -0.219353
C26   C     C_R   0.791802 0.219540 0.877302 -0.217724
C27   C     C_R   0.162614 0.650053 0.943931 -0.233662
C28   C     C_R   0.208205 0.219531 0.122714 -0.217714
C29   C     C_R   0.837462 0.649980 0.056217 -0.233600
C30   C     C_R   0.292511 0.719498 0.878989 -0.229363
C31   C     C_R   0.662968 0.155004 0.947131 -0.236905
C32   C     C_R   0.707561 0.719354 0.121198 -0.229223
C33   C     C_R   0.337039 0.154997 0.052877 -0.236913
C34   C     C_R   0.576522 0.606876 0.422321 -0.133083
C35   C     C_R   0.219947 0.827060 0.446217 0.102791
C36   C     C_R   0.423826 0.391929 0.576238 -0.123403
C37   C     C_R   0.423619 0.607008 0.577656 -0.133070
C38   C     C_R   0.576166 0.391923 0.423759 -0.123399
C39   C     C_R   0.090099 0.089012 0.422378 -0.127193
C40   C     C_R   0.914246 0.903542 0.577701 -0.128110
C41   C     C_R   0.909920 0.089047 0.577628 -0.127232
C42   C     C_R   0.085931 0.903806 0.422297 -0.128321
C43   C     C_R   0.384965 0.588120 0.259097 0.521120
C44   C     C_R   0.613897 0.406948 0.733131 0.495694
C45   C     C_R   0.615040 0.588123 0.740885 0.521124
C46   C     C_R   0.768280 0.157698 0.547497 0.103585
C47   C     C_R   0.386102 0.406949 0.266867 0.495697
C48   C     C_R   0.885441 0.090285 0.262144 0.471104
C49   C     C_R   0.110575 0.898941 0.723291 0.477169
C50   C     C_R   0.114562 0.090275 0.737865 0.471121
C51   C     C_R   0.889432 0.898939 0.276690 0.476944
C52   C     C_R   0.595661 0.600266 0.792893 -0.129068
C53   C     C_R   0.409477 0.376706 0.231278 -0.136235
C54   C     C_R   0.404359 0.600263 0.207111 -0.129108
C55   C     C_R   0.590522 0.376704 0.768717 -0.136235
C56   C     C_R   0.095120 0.104397 0.789363 -0.107781
C57   C     C_R   0.780395 0.826610 0.553817 0.102736
C58   C     C_R   0.915828 0.865454 0.249984 -0.052231
C59   C     C_R   0.904886 0.104410 0.210650 -0.107796
C60   C     C_R   0.084209 0.865489 0.750085 -0.052483
C61   C     C_R   0.616000 0.636051 0.495183 0.031890
C62   C     C_R   0.387463 0.359928 0.503097 0.035307
C63   C     C_R   0.384209 0.636263 0.504799 0.031811
C64   C     C_R   0.612527 0.359921 0.496898 0.035306
C65   C     C_R   0.136435 0.106962 0.495599 0.044744
C66   C     C_R   0.872478 0.877454 0.504981 0.062035
C67   C     C_R   0.863595 0.107022 0.504407 0.044759
C68   C     C_R   0.231753 0.157655 0.452523 0.103593
C69   C     C_R   0.127826 0.877897 0.495022 0.061894
C70   C     C_R   0.656888 0.264823 0.539079 -0.277160
C71   C     C_R   0.335575 0.727168 0.459305 -0.278750
C72   C     C_R   0.343115 0.264821 0.460915 -0.277153
C73   C     C_R   0.664703 0.726867 0.540667 -0.278758
C74   C     C_R   0.176386 0.787976 0.537019 -0.270556
C75   C     C_R   0.812837 0.194581 0.457591 -0.276286
C76   C     C_R   0.823978 0.787458 0.463073 -0.270684
C77   C     C_R   0.187185 0.194526 0.542418 -0.276267
C78   C     C_R   0.644445 0.317863 0.492575 0.137177
C79   C     C_R   0.715475 0.245435 0.495285 0.016443
C80   C     C_R   0.351477 0.675919 0.510051 0.135067
C81   C     C_R   0.355547 0.317864 0.507412 0.137172
C82   C     C_R   0.648793 0.675605 0.489963 0.135063
C83   C     C_R   0.162599 0.841120 0.491237 0.129707
C84   C     C_R   0.826958 0.142202 0.505406 0.134105
C85   C     C_R   0.837752 0.840620 0.508812 0.129727
C86   C     C_R   0.173075 0.142142 0.494610 0.134103
C87   C     C_R   0.665442 0.334594 0.445917 -0.238987
C88   C     C_R   0.331336 0.657443 0.557367 -0.241251
C89   C     C_R   0.334546 0.334587 0.554066 -0.238987
C90   C     C_R   0.275474 0.741947 0.500602 0.015373
C91   C     C_R   0.668957 0.657048 0.442717 -0.241306
C92   C     C_R   0.182680 0.860443 0.444197 -0.247508
C93   C     C_R   0.806040 0.123515 0.551398 -0.248320
C94   C     C_R   0.817656 0.859971 0.555817 -0.247432
C95   C     C_R   0.194000 0.123460 0.448626 -0.248323
C96   C     C_3   0.326476 0.660475 0.229065 0.208745
C97   C     C_3   0.271378 0.672945 0.200502 -0.902438
C98   C     C_3   0.688920 0.439253 0.859262 0.280890
C99   C     C_3   0.742984 0.460964 0.893757 -0.884336
C100  C     C_3   0.673522 0.660457 0.770834 0.208684
C101  C     C_R   0.284534 0.245412 0.504714 0.016444
C102  C     C_3   0.728638 0.672909 0.799486 -0.902481
C103  C     C_3   0.311079 0.439253 0.140735 0.280882
C104  C     C_3   0.257020 0.460978 0.106247 -0.884317
C105  C     C_3   0.825106 0.158244 0.237334 0.232835
C106  C     C_3   0.768813 0.166524 0.204577 -0.928457
C107  C     C_3   0.183801 0.955795 0.787318 0.285982
C108  C     C_3   0.242407 0.952776 0.844125 -0.903896
C109  C     C_3   0.174901 0.158223 0.762673 0.232818
C110  C     C_3   0.231196 0.166494 0.795433 -0.928391
C111  C     C_3   0.816223 0.955836 0.212745 0.286290
C112  C     C_R   0.458510 0.401611 0.270613 -0.204008
C113  C     C_R   0.724856 0.741522 0.499465 0.015375
C114  C     C_3   0.757615 0.952854 0.155847 -0.903802
C115  C     C_3   0.304279 0.836596 0.354570 -0.352441
C116  C     C_3   0.283753 0.895249 0.303811 -0.920105
C117  C     C_3   0.680900 0.151130 0.633532 -0.346521
C118  C     C_3   0.701606 0.093693 0.687587 -0.901541
C119  C     C_3   0.696005 0.836321 0.645327 -0.352446
C120  C     C_3   0.716552 0.894975 0.696075 -0.920163
C121  C     C_3   0.319133 0.151119 0.366485 -0.346494
C122  C     C_3   0.298447 0.093671 0.312451 -0.901580
C123  C     C_3   0.787561 0.306299 0.360197 -0.357283
C124  C     C_R   0.236334 0.773805 0.495534 0.016708
C125  C     C_3   0.769233 0.365854 0.311466 -0.925992
C126  C     C_3   0.201743 0.673794 0.628962 -0.349587
C127  C     C_3   0.222803 0.615726 0.681179 -0.901491
C128  C     C_3   0.212435 0.306250 0.639794 -0.357300
C129  C     C_3   0.230752 0.365808 0.688521 -0.925984
C130  C     C_3   0.798608 0.673228 0.371209 -0.349500
C131  C     C_3   0.777510 0.615176 0.318961 -0.901585
C132  C     C_R   0.753028 0.211172 0.498483 0.015712
C133  C     C_R   0.764012 0.773341 0.504542 0.016710
C134  C     C_R   0.246991 0.211135 0.501526 0.015709
C135  C     C_R   0.692749 0.226987 0.541014 0.039938
C136  C     C_R   0.297519 0.762003 0.454444 0.040796
C137  C     C_R   0.307264 0.226972 0.458987 0.039931
C138  C     C_R   0.702790 0.761644 0.545562 0.040800
C139  C     C_R   0.213614 0.752881 0.540143 0.038434
C140  C     C_R   0.455568 0.583042 0.257471 -0.227453
C141  C     C_R   0.775907 0.230511 0.453453 0.038517
C142  C     C_R   0.786742 0.752377 0.459964 0.038476
C143  C     C_R   0.224107 0.230466 0.546552 0.038510
C144  C     C_R   0.723334 0.318254 0.402989 -0.236989
C145  C     C_R   0.269807 0.667984 0.593977 -0.238149
C146  C     C_R   0.276658 0.318227 0.596998 -0.236982
C147  C     C_R   0.730527 0.667494 0.406168 -0.238149
C148  C     C_R   0.241408 0.847279 0.401069 -0.238468
C149  C     C_R   0.745564 0.138588 0.591156 -0.237587
C150  C     C_R   0.758924 0.846885 0.598922 -0.238465
C151  C     C_R   0.541488 0.401609 0.729382 -0.203998
C152  C     C_R   0.254474 0.138554 0.408867 -0.237581
C153  C     C_R   0.280425 0.815162 0.403811 0.197234
C154  C     C_R   0.707197 0.172460 0.588423 0.189636
C155  C     C_R   0.719885 0.814816 0.596159 0.197250
C156  C     C_R   0.292831 0.172439 0.411591 0.189636
C157  C     C_R   0.761503 0.284785 0.405732 0.199002
C158  C     C_R   0.229206 0.698516 0.587672 0.188955
C159  C     C_R   0.238498 0.284745 0.594263 0.199002
C160  C     C_R   0.771141 0.697998 0.412465 0.188964
C161  C     C_R   0.375438 0.619264 0.112362 0.141409
C162  C     C_R   0.043926 0.086056 0.740405 -0.210259
C163  C     C_R   0.609171 0.319699 0.817705 0.146766
C164  C     C_R   0.624600 0.619269 0.887648 0.141449
C165  C     C_R   0.390828 0.319699 0.182291 0.146765
C166  C     C_R   0.875689 0.124419 0.116366 0.142520
C167  C     C_R   0.102167 0.808235 0.798272 0.154202
C168  C     C_R   0.124318 0.124404 0.883650 0.142525
C169  C     C_R   0.897888 0.808177 0.201853 0.154190
C170  C     C_R   0.372768 0.676043 0.996463 -0.224911
C171  C     C_R   0.601479 0.235963 0.893436 -0.220170
C172  C     C_R   0.627287 0.675977 0.003625 -0.224864
C173  C     C_R   0.962999 0.894026 0.283574 -0.225807
C174  C     C_R   0.398524 0.235959 0.106567 -0.220173
C175  C     C_R   0.872760 0.178930 0.998290 -0.222321
C176  C     C_R   0.098662 0.728577 0.884469 -0.214045
C177  C     C_R   0.127248 0.178915 0.001730 -0.222323
C178  C     C_R   0.901430 0.728482 0.115743 -0.214039
C179  C     C_R   0.400994 0.647952 0.079197 -0.161768
C180  C     C_R   0.584578 0.291593 0.853089 -0.155649
C181  C     C_R   0.599054 0.647925 0.920857 -0.161764
C182  C     C_R   0.415423 0.291591 0.146910 -0.155642
C183  C     C_R   0.901107 0.152279 0.082224 -0.164519
C184  C     C_R   0.956078 0.086063 0.259604 -0.210235
C185  C     C_R   0.079924 0.782578 0.839442 -0.177731
C186  C     C_R   0.098901 0.152263 0.917796 -0.164523
C187  C     C_R   0.920160 0.782489 0.160754 -0.177733
C188  C     C_R   0.321627 0.613049 0.056773 -0.282167
C189  C     C_R   0.649748 0.290370 0.821214 -0.279517
C190  C     C_R   0.678415 0.613066 0.943209 -0.282174
C191  C     C_R   0.350252 0.290371 0.178781 -0.279536
C192  C     C_R   0.821885 0.118361 0.061265 -0.269466
C193  C     C_R   0.141818 0.777891 0.800281 -0.212818
C194  C     C_R   0.178122 0.118350 0.938748 -0.269486
C195  C     C_R   0.037047 0.894071 0.716532 -0.225770
C196  C     C_R   0.858217 0.777851 0.199809 -0.212816
C197  C     C_R   0.292150 0.647867 0.979103 0.066569
C198  C     C_R   0.669203 0.236005 0.865262 0.066985
C199  C     C_R   0.707898 0.647830 0.020939 0.066577
C200  C     C_R   0.330800 0.236002 0.134740 0.066991
C201  C     C_R   0.792409 0.151748 0.982331 0.062664
C202  C     C_R   0.165775 0.728081 0.854826 0.050067
C203  C     C_R   0.207599 0.151738 0.017681 0.062664
C204  C     C_R   0.834287 0.728008 0.145319 0.050064
C205  C     C_R   0.630653 0.604687 0.571348 -0.135921
C206  C     C_R   0.701084 0.299063 0.447167 0.098296
C207  C     C_R   0.373296 0.391079 0.427102 -0.132370
C208  C     C_R   0.369469 0.604820 0.428650 -0.135961
C209  C     C_R   0.626699 0.391074 0.572894 -0.132371
C210  C     C_R   0.141585 0.087191 0.571783 -0.150786
C211  C     C_R   0.863967 0.901651 0.428102 -0.165000
C212  C     C_R   0.858429 0.087225 0.428219 -0.150784
C213  C     C_R   0.136212 0.901926 0.571897 -0.164525
C214  C     C_R   0.318908 0.679782 0.949593 0.190864
C215  C     C_R   0.644196 0.208610 0.901451 0.199667
C216  C     C_R   0.681149 0.679704 0.050502 0.190794
H1    H     H_    0.519950 0.578781 0.766707 0.126473
H2    H     H_    0.303519 0.586196 0.080584 0.174037
H3    H     H_    0.646432 0.682328 0.705217 0.084652
H4    H     H_    0.733836 0.661591 0.745420 0.242610
H5    H     H_    0.737582 0.720674 0.815634 0.218032
H6    H     H_    0.756251 0.646440 0.859450 0.270870
H7    H     H_    0.307976 0.404793 0.093996 0.102245
H8    H     H_    0.333629 0.477667 0.141137 0.093837
H9    H     H_    0.258964 0.496982 0.149918 0.276942
H10   H     H_    0.238289 0.478350 0.037255 0.199388
H11   H     H_    0.233444 0.423888 0.105401 0.255277
H12   H     H_    0.831698 0.183800 0.192111 0.115363
H13   H     H_    0.333493 0.311162 0.209722 0.163605
H14   H     H_    0.850102 0.177358 0.305713 0.092030
H15   H     H_    0.763146 0.155169 0.258124 0.241141
H16   H     H_    0.757039 0.213283 0.184198 0.222123
H17   H     H_    0.743584 0.137605 0.146187 0.272812
H18   H     H_    0.171518 0.978818 0.826945 0.109500
H19   H     H_    0.171463 0.981904 0.726317 0.126490
H20   H     H_    0.256080 0.930874 0.806102 0.248661
H21   H     H_    0.258655 0.998302 0.862544 0.224549
H22   H     H_    0.256207 0.927192 0.906134 0.259268
H23   H     H_    0.168310 0.183786 0.807892 0.115358
H24   H     H_    0.696523 0.586247 0.919363 0.174117
H25   H     H_    0.149908 0.177333 0.694292 0.092028
H26   H     H_    0.236864 0.155129 0.741890 0.241141
H27   H     H_    0.242972 0.213254 0.815805 0.222109
H28   H     H_    0.256422 0.137579 0.853828 0.272812
H29   H     H_    0.828547 0.978958 0.173248 0.109596
H30   H     H_    0.828539 0.981834 0.273830 0.126315
H31   H     H_    0.743901 0.930667 0.193615 0.248864
H32   H     H_    0.741395 0.998406 0.137849 0.224578
H33   H     H_    0.743828 0.927560 0.093605 0.259081
H34   H     H_    0.241902 0.891682 0.250450 0.259973
H35   H     H_    0.153369 0.793706 0.758256 0.156331
H36   H     H_    0.290785 0.931916 0.350375 0.256935
H37   H     H_    0.304290 0.905965 0.271666 0.256962
H38   H     H_    0.346550 0.841917 0.403923 0.189506
H39   H     H_    0.297950 0.802151 0.305466 0.187927
H40   H     H_    0.695623 0.055833 0.643477 0.253181
H41   H     H_    0.743208 0.098344 0.741882 0.262603
H42   H     H_    0.680398 0.084124 0.718884 0.257622
H43   H     H_    0.684766 0.185873 0.680098 0.193628
H44   H     H_    0.639091 0.144968 0.581385 0.189837
H45   H     H_    0.758394 0.891379 0.749472 0.259984
H46   H     H_    0.803526 0.092098 0.085125 0.174028
H47   H     H_    0.709561 0.931625 0.649516 0.256938
H48   H     H_    0.695997 0.905738 0.728174 0.256963
H49   H     H_    0.653741 0.841673 0.595928 0.189502
H50   H     H_    0.702288 0.801900 0.694426 0.187942
H51   H     H_    0.304442 0.055817 0.356576 0.253152
H52   H     H_    0.256844 0.098303 0.258154 0.262606
H53   H     H_    0.319658 0.084107 0.281158 0.257638
H54   H     H_    0.315253 0.185859 0.319906 0.193629
H55   H     H_    0.360945 0.144976 0.418632 0.189835
H56   H     H_    0.727575 0.363851 0.256550 0.258955
H57   H     H_    0.846617 0.793725 0.241737 0.156308
H58   H     H_    0.776467 0.401980 0.358910 0.260401
H59   H     H_    0.791078 0.376167 0.281566 0.255273
H60   H     H_    0.829741 0.310092 0.411518 0.190023
H61   H     H_    0.781369 0.272686 0.310392 0.191683
H62   H     H_    0.219025 0.579318 0.636550 0.254467
H63   H     H_    0.263781 0.621050 0.737932 0.261128
H64   H     H_    0.200215 0.603443 0.709013 0.257264
H65   H     H_    0.203780 0.707106 0.675594 0.190067
H66   H     H_    0.160400 0.666810 0.574768 0.190386
H67   H     H_    0.272411 0.363815 0.743436 0.258956
H68   H     H_    0.196482 0.092088 0.914885 0.174018
H69   H     H_    0.223510 0.401934 0.641074 0.260410
H70   H     H_    0.208905 0.376113 0.718422 0.255268
H71   H     H_    0.170255 0.310033 0.588472 0.190023
H72   H     H_    0.218634 0.272637 0.689602 0.191687
H73   H     H_    0.781253 0.578770 0.363564 0.254468
H74   H     H_    0.736538 0.620539 0.262198 0.261153
H75   H     H_    0.800096 0.602861 0.291135 0.257237
H76   H     H_    0.796615 0.706524 0.324599 0.190062
H77   H     H_    0.839941 0.666207 0.425425 0.190379
H78   H     H_    0.552261 0.312244 0.849335 0.115587
H79   H     H_    0.442640 0.651651 0.119060 0.118475
H80   H     H_    0.447740 0.312240 0.150665 0.115586
H81   H     H_    0.484109 0.393652 0.249852 0.118984
H82   H     H_    0.557408 0.651620 0.881014 0.118466
H83   H     H_    0.048169 0.803906 0.836773 0.120176
H84   H     H_    0.942750 0.155887 0.121728 0.118713
H85   H     H_    0.951928 0.803806 0.163449 0.120187
H86   H     H_    0.057258 0.155869 0.878295 0.118713
H87   H     H_    0.393328 0.699952 0.973704 0.124156
H88   H     H_    0.582071 0.215059 0.920705 0.125191
H89   H     H_    0.606733 0.699855 0.026423 0.124151
H90   H     H_    0.417933 0.215053 0.079300 0.125191
H91   H     H_    0.893173 0.201803 0.974384 0.124217
H92   H     H_    0.480082 0.578794 0.233338 0.126456
H93   H     H_    0.080601 0.708961 0.915006 0.126512
H94   H     H_    0.106836 0.201787 0.025639 0.124217
H95   H     H_    0.919506 0.708853 0.085240 0.126507
H96   H     H_    0.723731 0.266790 0.790351 0.132812
H97   H     H_    0.223320 0.588212 0.003917 0.139408
H98   H     H_    0.276275 0.266785 0.209660 0.132812
H99   H     H_    0.776728 0.588174 0.996130 0.139388
H100  H     H_    0.226278 0.770011 0.797603 0.142591
H101  H     H_    0.722769 0.091568 0.004747 0.135539
H102  H     H_    0.773830 0.769782 0.202751 0.142339
H103  H     H_    0.515887 0.393649 0.750138 0.118985
H104  H     H_    0.277240 0.091558 0.995265 0.135485
H105  H     H_    0.666318 0.608616 0.635397 0.171811
H106  H     H_    0.341948 0.380761 0.359647 0.163017
H107  H     H_    0.333807 0.608802 0.364621 0.171842
H108  H     H_    0.658048 0.380757 0.640347 0.163017
H109  H     H_    0.176341 0.086351 0.638253 0.164681
H110  H     H_    0.830105 0.895988 0.361348 0.159842
H111  H     H_    0.823670 0.086393 0.361753 0.164697
H112  H     H_    0.170096 0.896366 0.638658 0.159725
H113  H     H_    0.559637 0.616154 0.352525 0.102443
H114  H     H_    0.019172 0.083624 0.764252 0.123649
H115  H     H_    0.437365 0.383613 0.644649 0.094791
H116  H     H_    0.440550 0.616348 0.647449 0.102525
H117  H     H_    0.562626 0.383607 0.355348 0.094789
H118  H     H_    0.076190 0.092621 0.352664 0.095561
H119  H     H_    0.926362 0.900633 0.646469 0.090004
H120  H     H_    0.923830 0.092662 0.647341 0.095575
H121  H     H_    0.073800 0.900960 0.353512 0.090070
H122  H     H_    0.638814 0.254618 0.573817 0.121359
H123  H     H_    0.352686 0.738243 0.423212 0.119917
H124  H     H_    0.361192 0.254622 0.426178 0.121359
H125  H     H_    0.991261 0.881679 0.270416 0.125522
H126  H     H_    0.647565 0.738002 0.576698 0.119942
H127  H     H_    0.158024 0.775502 0.570532 0.122258
H128  H     H_    0.831479 0.206502 0.424347 0.122839
H129  H     H_    0.842341 0.774967 0.429568 0.122171
H130  H     H_    0.168538 0.206444 0.575654 0.122842
H131  H     H_    0.655596 0.377039 0.411701 0.119501
H132  H     H_    0.343889 0.616004 0.594351 0.120691
H133  H     H_    0.344384 0.377034 0.588277 0.119511
H134  H     H_    0.656385 0.615599 0.405757 0.120691
H135  H     H_    0.170483 0.902490 0.408872 0.118406
H136  H     H_    0.980833 0.083632 0.235758 0.123651
H137  H     H_    0.818351 0.081954 0.587957 0.118656
H138  H     H_    0.829827 0.902039 0.591085 0.118425
H139  H     H_    0.181697 0.081896 0.412073 0.118638
H140  H     H_    0.710822 0.360021 0.367556 0.150176
H141  H     H_    0.283792 0.626736 0.630569 0.149672
H142  H     H_    0.289159 0.359998 0.632422 0.150183
H143  H     H_    0.716536 0.626235 0.369603 0.149682
H144  H     H_    0.227244 0.888390 0.364164 0.149705
H145  H     H_    0.758153 0.096894 0.626759 0.149761
H146  H     H_    0.773091 0.888007 0.635796 0.149708
H147  H     H_    0.008846 0.881777 0.729855 0.125436
H148  H     H_    0.241896 0.096855 0.373273 0.149752
H149  H     H_    0.811080 0.241015 0.850166 0.134844
H150  H     H_    0.143324 0.627574 0.970278 0.134788
H151  H     H_    0.188929 0.241005 0.149853 0.134842
H152  H     H_    0.856759 0.627500 0.029886 0.134793
H153  H     H_    0.312507 0.743445 0.855133 0.136498
H154  H     H_    0.642897 0.132011 0.971598 0.134222
H155  H     H_    0.687577 0.743253 0.145117 0.136466
H156  H     H_    0.357110 0.132003 0.028411 0.134222
H157  H     H_    0.331650 0.681998 0.179541 0.121401
H158  H     H_    0.666502 0.311158 0.790266 0.163601
H159  H     H_    0.353595 0.682383 0.294638 0.084532
H160  H     H_    0.266232 0.661704 0.254650 0.242575
H161  H     H_    0.262419 0.720699 0.184264 0.218046
H162  H     H_    0.243742 0.646425 0.140618 0.270880
H163  H     H_    0.692016 0.404798 0.905999 0.102241
H164  H     H_    0.666375 0.477675 0.858854 0.093864
H165  H     H_    0.741048 0.496964 0.850090 0.276929
H166  H     H_    0.761715 0.478336 0.962750 0.199394
H167  H     H_    0.766555 0.423866 0.894605 0.255283
H168  H     H_    0.668306 0.682018 0.820288 0.121342
N1    N     N_R   0.532970 0.559900 0.665210 -0.065695
N2    N     N_R   0.402100 0.440070 0.454470 -0.037871
N3    N     N_R   0.402100 0.559930 0.454470 -0.037916
N4    N     N_R   0.597900 0.440070 0.545530 -0.037867
N5    N     N_R   0.097900 0.059930 0.545530 -0.042745
N6    N     N_R   0.902100 0.940070 0.454470 -0.047697
N7    N     N_R   0.902100 0.059930 0.454470 -0.042755
N8    N     N_R   0.097900 0.940070 0.545530 -0.047662
N9    N     N_R   0.567170 0.559950 0.454460 -0.042850
N10   N     N_R   0.432830 0.440050 0.545540 -0.043529
N11   N     N_R   0.432830 0.559950 0.545540 -0.042863
N12   N     N_R   0.467030 0.440100 0.334790 -0.062402
N13   N     N_R   0.567170 0.440050 0.454460 -0.043527
N14   N     N_R   0.067170 0.059950 0.454460 -0.037333
N15   N     N_R   0.932830 0.940050 0.545540 -0.033506
N16   N     N_R   0.932830 0.059950 0.545540 -0.037342
N17   N     N_R   0.067170 0.940050 0.454460 -0.033494
N18   N     N_R   0.421470 0.559970 0.334770 -0.088763
N19   N     N_R   0.578530 0.440030 0.665230 -0.083808
N20   N     N_R   0.578530 0.559970 0.665230 -0.088757
N21   N     N_R   0.421470 0.440030 0.334770 -0.083812
N22   N     N_R   0.921470 0.059970 0.334770 -0.093945
N23   N     N_R   0.467030 0.559900 0.334790 -0.065709
N24   N     N_R   0.078530 0.940030 0.665230 -0.111998
N25   N     N_R   0.078530 0.059970 0.665230 -0.093945
N26   N     N_R   0.921470 0.940030 0.334770 -0.112024
N27   N     N_R   0.532970 0.440100 0.665210 -0.062397
N28   N     N_R   0.032970 0.059900 0.665210 -0.061181
N29   N     N_R   0.967030 0.940100 0.334790 -0.058535
N30   N     N_R   0.967030 0.059900 0.334790 -0.061183
N31   N     N_R   0.032970 0.940100 0.665210 -0.058529
N32   N     N_R   0.597900 0.559930 0.545530 -0.037940
Ni1   Ni    Ni4+2 0.483030 0.500000 0.604430 0.190602
Ni2   Ni    Ni4+2 0.516970 0.500000 0.395570 0.190595
Ni3   Ni    Ni4+2 0.983030 0.000000 0.604430 0.194584
Ni4   Ni    Ni4+2 0.016970 0.000000 0.395570 0.194590
Ni5   Ni    Ni4+2 0.587400 0.500000 0.604430 0.266765
Ni6   Ni    Ni4+2 0.412600 0.500000 0.395570 0.266787
Ni7   Ni    Ni4+2 0.087400 0.000000 0.604430 0.214699
Ni8   Ni    Ni4+2 0.912600 0.000000 0.395570 0.214665
O1    O     O_3   0.335173 0.598271 0.234963 -0.659757
O2    O     O_3   0.666237 0.415345 0.772743 -0.668555
O3    O     O_3   0.664828 0.598256 0.764992 -0.659770
O4    O     O_3   0.333763 0.415349 0.227255 -0.668555
O5    O     O_3   0.835386 0.097073 0.238010 -0.681782
O6    O     O_3   0.163567 0.897741 0.764606 -0.678453
O7    O     O_3   0.164619 0.097054 0.762002 -0.681777
O8    O     O_3   0.836427 0.897764 0.235258 -0.678423

loop_
_geom_bond_atom_site_label_1
_geom_bond_atom_site_label_2
_ccdc_geom_bond_type
C126  C127  S    
C7    C29   A    
C106  H17   S    
C73   C82   A    
C18   H97   S    
C178  H95   S    
C74   C83   A    
C66   C85   S    
C40   H119  S    
C41   C67   A    
N27   Ni1   S    
C140  N23   A    
C195  H147  S    
C49   C60   A    
C14   C21   A    
C35   C124  A    
C170  H87   S    
N9    Ni2   S    
C117  H43   S    
C38   N13   A    
C119  H49   S    
C56   C162  A    
C105  H12   S    
C2    C90   A    
C209  N4    A    
C213  H112  S    
C103  H7    S    
C134  C143  A    
C11   C15   A    
C152  C156  A    
N28   Ni3   S    
C10   C20   A    
C175  H91   S    
C107  O6    S    
C127  H64   S    
C196  C204  A    
N8    N17   A    
C47   C53   A    
C130  H77   S    
N18   Ni6   S    
C43   N18   A    
C113  C133  A    
C115  C153  S    
C22   H101  S    
C39   C65   A    
C57   C133  A    
C36   C62   A    
C37   C63   A    
C190  C199  A    
C38   C64   A    
C109  H23   S    
C89   H133  S    
C68   C95   A    
C60   C195  A    
C98   O2    S    
C104  H9    S    
C169  C187  A    
C40   N15   A    
C101  C137  A    
C36   N10   A    
C34   C61   A    
C177  C186  A    
C199  C216  A    
C2    C145  A    
C48   N22   A    
N2    Ni6   S    
C43   C54   A    
C4    C26   A    
C114  H31   S    
C41   H120  S    
C207  H106  S    
C141  C157  A    
N7    N16   A    
C62   C81   S    
C63   C208  A    
C6    C177  A    
C5    C176  A    
N31   Ni3   S    
C148  C153  A    
C205  N32   A    
C183  H84   S    
C102  H6    S    
C175  C183  A    
C125  H59   S    
C187  H85   S    
C15   C203  A    
C123  H61   S    
C55   C151  A    
C118  H42   S    
N17   Ni4   S    
C131  H75   S    
C61   C82   S    
C105  H14   S    
C129  H69   S    
C130  C131  S    
C55   C163  S    
C6    C203  A    
C80   C88   A    
C10   C16   A    
C100  O3    S    
C136  C153  A    
C44   C55   A    
C4    C201  A    
C111  H30   S    
C49   O6    S    
N10   Ni1   S    
C84   C93   A    
C127  H62   S    
C86   C95   A    
C108  H21   S    
C21   H100  S    
C120  H45   S    
C211  N6    A    
C99   H167  S    
C172  C216  A    
C76   C85   A    
C92   H135  S    
C197  C214  A    
C167  C185  A    
C78   C87   A    
C121  C156  S    
C124  C139  A    
C39   N14   A    
C54   C161  S    
C128  C129  S    
C174  C182  A    
C122  H52   S    
C115  H38   S    
C133  C142  A    
C37   H116  S    
C161  C188  A    
N5    Ni7   S    
C46   C132  A    
C103  O4    S    
C75   C84   A    
C15   C25   A    
C31   C215  A    
C115  C116  S    
C126  H65   S    
C12   C22   A    
C129  H67   S    
C171  H88   S    
C11   C200  A    
C164  C181  A    
C75   C141  A    
C49   N24   A    
N6    N15   A    
C5    C27   A    
C207  N2    A    
C172  C181  A    
C6    C28   A    
N1    N20   A    
C4    C175  A    
N7    Ni8   S    
C38   H117  S    
C161  C179  A    
C34   N9    A    
N30   Ni4   S    
C57   C150  A    
C194  H68   S    
C167  C193  A    
C186  H86   S    
C164  C190  A    
C147  C160  A    
N15   Ni3   S    
C3    C200  A    
C63   C80   S    
C32   H155  S    
C44   O2    S    
C60   C167  S    
C168  C186  A    
C131  H73   S    
C75   H128  S    
C58   C169  S    
C190  H24   S    
C191  C200  A    
C100  H3    S    
C146  H142  S    
C71   C136  A    
C123  C157  S    
C45   C52   A    
C12   C201  A    
C114  H33   S    
C50   C56   A    
N18   N23   A    
C77   C143  A    
C51   N26   A    
C45   N20   A    
C3    C174  A    
C191  H13   S    
C120  H47   S    
N22   Ni8   S    
C121  H54   S    
C210  N5    A    
C47   O4    S    
C99   H165  S    
N25   N28   A    
C19   C28   A    
C65   C210  A    
C41   N16   A    
C140  H92   S    
C98   C99   S    
C16   C23   A    
C1    N1    A    
C150  C155  A    
C176  H93   S    
C95   H139  S    
C103  C104  S    
N24   Ni7   S    
C48   C59   A    
C132  C141  A    
C144  H140  S    
N9    N32   A    
C180  H78   S    
C64   C78   S    
N21   Ni6   S    
C47   N21   A    
C27   H150  S    
C182  H80   S    
C24   C147  A    
C188  H2    S    
C170  C179  A    
C57   C94   A    
C81   C89   A    
C16   C204  A    
C117  C118  S    
C14   C202  A    
C35   C148  A    
C28   H151  S    
C98   H163  S    
C9    C12   A    
C32   C216  A    
C46   C149  A    
C210  H109  S    
C184  N30   A    
C213  N8    A    
C127  H63   S    
C144  C157  A    
N13   Ni2   S    
N11   Ni1   S    
C25   C33   A    
C138  C155  A    
C108  H20   S    
C97   H162  S    
C179  H79   S    
C65   C86   S    
C123  H60   S    
C211  H110  S    
C97   H161  S    
C11   C19   A    
C135  C154  A    
C105  C106  S    
C165  C182  A    
C123  C125  S    
C3    C33   A    
C106  H15   S    
C130  C160  S    
C48   O5    S    
C33   H156  S    
C110  H27   S    
C149  H145  S    
N3    Ni6   S    
C172  H89   S    
C119  C155  S    
C192  C201  A    
C109  O7    S    
N19   N27   A    
C121  H55   S    
C72   C81   A    
C125  H58   S    
C171  C215  A    
C35   C92   A    
C97   H160  S    
N24   N31   A    
C40   C66   A    
C10   C199  A    
N20   Ni5   S    
C198  C215  A    
C144  C206  A    
C116  H37   S    
C212  H111  S    
C51   O8    S    
C70   H122  S    
C73   H126  S    
C34   H113  S    
C88   H132  S    
C69   C213  A    
C176  C185  A    
C37   N11   A    
C208  N3    A    
C117  H44   S    
C125  H56   S    
C119  H50   S    
C147  H143  S    
C8    C18   A    
C193  C202  A    
C7    C178  A    
C149  C154  A    
C87   C206  A    
C7    C204  A    
C68   C152  A    
C87   H131  S    
C103  H8    S    
C30   C214  A    
C17   H96   S    
C109  H25   S    
C111  H29   S    
C151  H103  S    
N1    Ni1   S    
C67   C212  A    
C163  C189  A    
C51   C58   A    
C128  H72   S    
C121  C122  S    
C118  H40   S    
C52   C164  S    
C178  C187  A    
C29   H152  S    
C53   C165  S    
C107  H18   S    
C108  H22   S    
C70   C135  A    
N6    Ni8   S    
C64   C209  A    
C58   C173  A    
N2    N10   A    
C62   C207  A    
C104  H11   S    
C208  H107  S    
C205  H105  S    
C195  N31   A    
C90   C124  A    
C166  C183  A    
C128  H71   S    
C173  H125  S    
C119  C120  S    
C212  N7    A    
C143  C159  A    
C170  C214  A    
N8    Ni7   S    
C151  N27   A    
C79   C135  A    
C21   C30   A    
C31   H154  S    
C76   H129  S    
C23   C32   A    
C68   C134  A    
C109  C110  S    
C145  C158  A    
C42   N17   A    
C42   H121  S    
C116  H34   S    
C188  C197  A    
C162  H114  S    
C126  H66   S    
C165  C191  A    
C111  C114  S    
C166  C192  A    
C1    C52   A    
C82   C91   A    
C111  O8    S    
C130  H76   S    
C117  C154  S    
C184  H136  S    
C113  C138  A    
C1    H1    S    
C66   C211  A    
C102  H5    S    
C50   O7    S    
C25   H104  S    
C189  C198  A    
C148  H144  S    
C36   H115  S    
C70   C78   A    
C174  H90   S    
C118  H41   S    
C101  C134  A    
C20   H99   S    
C83   C92   A    
C26   H149  S    
N5    N14   A    
C72   H124  S    
C181  H82   S    
C152  H148  S    
C17   C26   A    
C129  H70   S    
N14   Ni4   S    
C73   C138  A    
C79   C132  A    
N12   Ni2   S    
C93   H137  S    
C173  N29   A    
C110  H26   S    
C96   H159  S    
C100  H168  S    
C54   C140  A    
C139  C158  A    
C120  H48   S    
C2    C88   A    
N19   Ni5   S    
C122  H53   S    
C67   C84   S    
C19   H98   S    
C168  C194  A    
N25   Ni7   S    
C91   H134  S    
N26   Ni8   S    
C8    C197  A    
C13   C146  A    
C71   C80   A    
C122  H51   S    
C169  C196  A    
C20   C29   A    
C126  C158  S    
C22   C31   A    
C177  H94   S    
N4    Ni5   S    
N26   N29   A    
C5    C202  A    
C145  H141  S    
C146  C159  A    
C116  H36   S    
C42   C69   A    
C137  C156  A    
C185  H83   S    
C30   H153  S    
C96   O1    S    
C69   C83   S    
C162  N28   A    
C90   C136  A    
C85   C94   A    
C112  N12   A    
C107  C108  S    
N23   Ni2   S    
C96   C97   S    
C56   C168  S    
C100  C102  S    
C43   O1    S    
N32   Ni5   S    
C98   H164  S    
N29   Ni4   S    
C59   C166  S    
C53   C112  A    
C9    C17   A    
C72   C137  A    
C114  H32   S    
C77   C86   A    
N16   Ni3   S    
C171  C180  A    
C94   H138  S    
C50   N25   A    
C13   C101  A    
C24   C91   A    
C44   N19   A    
C9    C198  A    
N4    N13   A    
C107  H19   S    
C8    C14   A    
N22   N30   A    
C131  H74   S    
C13   C89   A    
C150  H146  S    
C23   H102  S    
C18   C27   A    
C142  C160  A    
C104  H10   S    
C102  H4    S    
C74   H127  S    
C79   C206  A    
C74   C139  A    
C112  H81   S    
C105  O5    S    
C209  H108  S    
C46   C93   A    
C194  C203  A    
C45   O3    S    
C106  H16   S    
C99   H166  S    
C71   H123  S    
C193  H35   S    
C59   C184  A    
C192  H46   S    
C77   H130  S    
N3    N11   A    
C39   H118  S    
C110  H28   S    
C96   H157  S    
C24   C113  A    
C115  H39   S    
C128  C159  S    
C61   C205  A    
C163  C180  A    
C189  H158  S    
N12   N21   A    
C196  H57   S    
C76   C142  A    
