data_mof_unit_45624.cif
_audit_creation_date              2012-10-26T18:27:02-0400
_audit_creation_method            fapswitch 2.2
_symmetry_space_group_name_H-M    P1
_symmetry_Int_Tables_number       1
_space_group_crystal_system       triclinic
_cell_length_a                    14.987056
_cell_length_b                    10.905575
_cell_length_c                    9.751522
_cell_angle_alpha                 88.490813
_cell_angle_beta                  90.715896
_cell_angle_gamma                 89.953879
_cell_volume                      1593.13451356

loop_
_atom_site_label
_atom_site_type_symbol
_atom_type_description
_atom_site_fract_x
_atom_site_fract_y
_atom_site_fract_z
_atom_type_partial_charge
C1    C     C_R   0.503746 0.265577 0.502048 0.532940
C2    C     C_R   0.186243 0.397503 0.456317 -0.108041
C3    C     C_R   0.232818 0.501350 0.497541 0.016163
C4    C     C_R   0.329140 0.500263 0.499244 0.531385
C5    C     C_R   0.187655 0.605787 0.539027 -0.122780
C6    C     C_2   0.547199 0.934992 0.417622 0.217647
C7    C     C_2   0.488032 0.867852 0.491295 0.248949
C8    C     C_2   0.537075 0.068348 0.402553 -0.071888
C9    C     C_2   0.514409 0.133834 0.510607 -0.103303
C10   C     C_2   0.429668 0.484495 0.923435 0.130035
C11   C     C_2   0.436700 0.454086 0.074673 0.397652
C12   C     C_R   0.907240 0.607845 0.544508 0.031818
C13   C     C_R   0.497650 0.734619 0.498164 0.574820
C14   C     C_R   0.670862 0.501733 0.500848 0.578520
C15   C     C_R   0.813493 0.606620 0.549461 0.265339
C16   C     C_R   0.767370 0.503060 0.503701 0.014041
C17   C     C_R   0.812791 0.398660 0.463158 -0.162749
C18   C     C_R   0.905915 0.395109 0.467014 0.001626
C19   C     C_R   0.953304 0.501450 0.504374 -0.021202
C20   C     C_3   0.759228 0.713598 0.728264 -0.002824
C21   C     C_3   0.706463 0.826876 0.765633 -0.322301
C22   C     C_3   0.382653 0.881650 0.663066 -0.020334
C23   C     C_R   0.952895 0.287725 0.433673 0.293867
C24   C     C_3   0.309962 0.965820 0.714088 -0.361887
C25   C     C_3   0.885235 0.118729 0.530136 -0.005334
C26   C     C_3   0.965091 0.053803 0.598862 -0.397626
C27   C     C_R   0.045895 0.290885 0.425009 -0.094236
C28   C     C_R   0.093188 0.396295 0.459741 -0.033632
C29   C     C_R   0.046998 0.501606 0.501297 0.050397
C30   C     C_R   0.094661 0.607285 0.539450 0.034564
C31   C     C_R   0.048691 0.712573 0.577024 -0.136963
C32   C     C_R   0.955808 0.713212 0.578073 -0.108937
Cl1   Cl    Cl    0.595035 0.420604 0.902594 -0.450853
Cl2   Cl    Cl    0.359453 0.348058 0.141609 -0.596789
Cl3   Cl    Cl    0.550746 0.633317 0.095632 -0.421663
Cl4   Cl    Cl    0.641864 0.869847 0.341236 -0.517353
Cu1   Cu    Cu3+1 0.500020 0.500020 0.638630 1.053942
Cu2   Cu    Cu3+1 0.499980 0.499980 0.361370 1.185579
H1    H     H_    0.552940 0.112882 0.304921 0.183869
H2    H     H_    0.826016 0.718527 0.778941 0.120466
H3    H     H_    0.723906 0.631326 0.769803 0.204280
H4    H     H_    0.741220 0.910900 0.727892 0.145916
H5    H     H_    0.638702 0.823929 0.718547 0.176076
H6    H     H_    0.700090 0.830406 0.878798 0.163143
H7    H     H_    0.439709 0.883739 0.737481 0.150573
H8    H     H_    0.354759 0.787439 0.659242 0.150257
H9    H     H_    0.251276 0.964261 0.643411 0.154630
H10   H     H_    0.288832 0.934506 0.817975 0.122899
H11   H     H_    0.335428 0.061236 0.719442 0.174994
H12   H     H_    0.507864 0.089800 0.611284 0.135062
H13   H     H_    0.834526 0.048095 0.505681 0.194341
H14   H     H_    0.853513 0.181193 0.603912 0.124176
H15   H     H_    0.013881 0.121579 0.637444 0.143541
H16   H     H_    0.942056 0.997418 0.687961 0.108105
H17   H     H_    0.998344 0.993910 0.524633 0.165692
H18   H     H_    0.363675 0.491970 0.877323 0.099163
H19   H     H_    0.774850 0.319887 0.430087 0.156950
H20   H     H_    0.081196 0.209192 0.395113 0.139375
H21   H     H_    0.222658 0.317113 0.424971 0.146009
H22   H     H_    0.224964 0.685923 0.569391 0.099014
H23   H     H_    0.084605 0.794566 0.605197 0.105282
H24   H     H_    0.922057 0.796339 0.605642 0.146475
N1    N     N_2   0.499020 0.498660 0.846910 -0.058196
N2    N     N_2   0.499000 0.498630 0.153040 -0.021282
O1    O     O_R   0.500020 0.321960 0.617040 -0.482424
O2    O     O_3   0.408581 0.922778 0.531007 -0.596003
O3    O     O_3   0.909114 0.179315 0.405476 -0.543401
O4    O     O_R   0.499980 0.321920 0.382900 -0.472717
O5    O     O_R   0.370270 0.499990 0.617090 -0.545688
O6    O     O_R   0.370240 0.499950 0.382940 -0.463321
O7    O     O_R   0.500020 0.678080 0.617100 -0.544694
O8    O     O_R   0.499980 0.678040 0.382960 -0.427571
O9    O     O_R   0.629760 0.500050 0.617060 -0.470274
O10   O     O_R   0.629730 0.500010 0.382910 -0.448564
O11   O     O_3   0.766311 0.710465 0.583986 -0.534737

loop_
_geom_bond_atom_site_label_1
_geom_bond_atom_site_label_2
_ccdc_geom_bond_type
C8    C9    D    
C15   O11   S    
Cu2   O6    S    
C6    C7    D    
C13   O8    A    
C23   C27   A    
C21   H6    S    
C10   H18   S    
C14   O9    A    
C31   H23   S    
C3    C5    A    
Cu2   N2    S    
C31   C32   A    
C25   O3    S    
C12   C15   A    
Cl1   N1    S    
C26   H17   S    
C22   H7    S    
C22   C24   S    
C4    O6    A    
C2    C3    A    
C25   C26   S    
C25   H14   S    
C32   H24   S    
C12   C32   A    
C7    O2    S    
Cl3   N2    S    
Cu2   O4    S    
C18   C23   A    
C20   H3    S    
C14   O10   A    
C12   C19   A    
Cu1   O1    S    
C4    O5    A    
C22   H8    S    
Cu1   Cu2   S    
C6    Cl4   S    
C17   C18   A    
Cu1   O5    S    
Cu1   O7    S    
C6    C8    S    
Cu2   O10   S    
C30   C31   A    
C20   H2    S    
Cu2   O8    S    
C25   H13   S    
C10   C11   S    
C9    H12   S    
C29   C30   A    
C15   C16   A    
C24   H10   S    
C26   H15   S    
C26   H16   S    
C7    C13   S    
C1    O4    A    
C1    C9    S    
C20   C21   S    
C24   H11   S    
C18   C19   A    
C5    C30   A    
C23   O3    S    
C27   C28   A    
C8    H1    S    
Cu1   O9    S    
C2    H21   S    
C28   C29   A    
C2    C28   A    
C21   H4    S    
C13   O7    A    
C5    H22   S    
Cu1   N1    S    
C14   C16   S    
C21   H5    S    
C24   H9    S    
C1    O1    A    
C11   Cl2   S    
C22   O2    S    
C3    C4    S    
C10   N1    D    
C20   O11   S    
C17   H19   S    
C16   C17   A    
C11   N2    D    
C27   H20   S    
C19   C29   A    
