data_mof_unit_51545.cif
_audit_creation_date              2012-10-26T17:12:49-0400
_audit_creation_method            fapswitch 2.2
_symmetry_space_group_name_H-M    P1
_symmetry_Int_Tables_number       1
_space_group_crystal_system       triclinic
_cell_length_a                    28.018253
_cell_length_b                    18.739397
_cell_length_c                    16.817148
_cell_angle_alpha                 89.836632
_cell_angle_beta                  62.80605
_cell_angle_gamma                 89.985155
_cell_volume                      7853.72393168

loop_
_atom_site_label
_atom_site_type_symbol
_atom_type_description
_atom_site_fract_x
_atom_site_fract_y
_atom_site_fract_z
_atom_type_partial_charge
C1    C     C_R   0.293148 0.725051 0.329995 0.788772
C2    C     C_R   0.708648 0.277752 0.668462 0.790779
C3    C     C_R   0.703901 0.731160 0.671641 0.805771
C4    C     C_R   0.296155 0.268727 0.328340 0.803391
C5    C     C_R   0.792182 0.222943 0.331216 0.794555
C6    C     C_R   0.204379 0.769663 0.671295 0.792215
C7    C     C_R   0.208142 0.222041 0.668317 0.781855
C8    C     C_R   0.791923 0.777855 0.331654 0.782010
C9    C     C_R   0.397767 0.000211 0.506559 0.073009
C10   C     C_R   0.602827 0.999766 0.491785 0.072153
C11   C     C_R   0.904155 0.500209 0.482187 0.076924
C12   C     C_R   0.098325 0.499594 0.509263 0.076333
C13   C     C_R   0.605362 0.872142 0.474909 -0.183529
C14   C     C_R   0.395330 0.127850 0.523399 -0.184207
C15   C     C_R   0.393257 0.872941 0.528662 -0.160183
C16   C     C_R   0.607586 0.126967 0.469133 -0.179150
C17   C     C_R   0.081192 0.377208 0.561406 -0.144272
C18   C     C_R   0.921411 0.621856 0.427335 -0.157036
C19   C     C_R   0.887719 0.379350 0.539579 -0.155001
C20   C     C_R   0.115765 0.620220 0.451086 -0.166802
C21   C     C_R   0.233536 0.787668 0.939572 -0.011501
C22   C     C_R   0.790846 0.253097 0.039566 -0.010233
C23   C     C_R   0.770893 0.786032 0.054344 -0.012368
C24   C     C_R   0.229978 0.212039 0.945115 -0.011577
C25   C     C_R   0.739847 0.302509 0.939247 -0.005421
C26   C     C_R   0.289132 0.747918 0.035980 -0.011403
C27   C     C_R   0.290646 0.245864 0.035789 -0.013029
C28   C     C_R   0.710314 0.752219 0.963571 -0.012618
C29   C     C_R   0.277295 0.739792 0.902168 0.070901
C30   C     C_R   0.739505 0.284925 0.082334 0.071829
C31   C     C_R   0.716570 0.764223 0.103012 0.071003
C32   C     C_R   0.284302 0.233855 0.896333 0.069492
C33   C     C_R   0.790568 0.268855 0.896194 0.072843
C34   C     C_R   0.241833 0.789022 0.076218 0.066698
C35   C     C_R   0.240665 0.210489 0.080662 0.068508
C36   C     C_R   0.760457 0.787204 0.918624 0.075625
C37   C     C_R   0.310608 0.730310 0.944599 -0.026189
C38   C     C_R   0.718440 0.319586 0.030537 -0.028472
C39   C     C_R   0.688498 0.738170 0.056485 -0.023702
C40   C     C_R   0.312475 0.259843 0.942820 -0.022031
C41   C     C_R   0.819256 0.252264 0.945346 -0.020949
C42   C     C_R   0.220339 0.819485 0.022730 -0.021736
C43   C     C_R   0.206871 0.203541 0.038892 -0.019085
C44   C     C_R   0.794173 0.794120 0.960529 -0.024046
C45   C     C_R   0.161203 0.854639 0.929542 0.004627
C46   C     C_R   0.865141 0.190710 0.049226 0.004471
C47   C     C_R   0.855137 0.825192 0.053192 0.008954
C48   C     C_R   0.145468 0.173680 0.946569 0.006186
C49   C     C_R   0.662657 0.360145 0.933118 0.004225
C50   C     C_R   0.363551 0.686683 0.046030 0.007819
C51   C     C_R   0.365303 0.309329 0.044005 0.013603
C52   C     C_R   0.635188 0.689801 0.955728 0.013585
C53   C     C_R   0.126302 0.863940 0.889596 -0.100312
C54   C     C_R   0.885101 0.154099 0.101996 -0.102604
C55   C     C_R   0.882599 0.848860 0.102019 -0.111002
C56   C     C_R   0.117707 0.150708 0.897907 -0.103187
C57   C     C_R   0.629096 0.369012 0.889897 -0.097861
C58   C     C_R   0.385242 0.654748 0.099695 -0.102976
C59   C     C_R   0.386902 0.341812 0.097925 -0.106326
C60   C     C_R   0.613262 0.657904 0.901979 -0.098497
C61   C     C_R   0.139293 0.831056 0.807722 -0.254868
C62   C     C_R   0.860240 0.165464 0.194254 -0.248097
C63   C     C_R   0.861636 0.830792 0.192263 -0.249148
C64   C     C_R   0.138530 0.169097 0.807792 -0.248571
C65   C     C_R   0.645262 0.339461 0.805383 -0.263961
C66   C     C_R   0.361568 0.669554 0.191271 -0.254836
C67   C     C_R   0.364465 0.324384 0.188916 -0.254907
C68   C     C_R   0.635541 0.675585 0.811083 -0.254378
C69   C     C_R   0.183390 0.785382 0.767858 -0.120788
C70   C     C_R   0.812168 0.203381 0.236233 -0.125105
C71   C     C_R   0.810476 0.801087 0.238220 -0.117122
C72   C     C_R   0.189753 0.198581 0.761684 -0.118425
C73   C     C_R   0.694218 0.303895 0.760099 -0.118464
C74   C     C_R   0.313803 0.708290 0.233386 -0.120646
C75   C     C_R   0.321012 0.277381 0.229165 -0.121106
C76   C     C_R   0.679205 0.722250 0.770750 -0.123213
C77   C     C_R   0.211386 0.764633 0.816938 0.064193
C78   C     C_R   0.785250 0.223521 0.185574 0.064629
C79   C     C_R   0.777727 0.795546 0.194247 0.066055
C80   C     C_R   0.222713 0.203596 0.805402 0.064475
C81   C     C_R   0.728360 0.295331 0.802678 0.066190
C82   C     C_R   0.287232 0.730177 0.182129 0.060640
C83   C     C_R   0.298715 0.246412 0.175698 0.064371
C84   C     C_R   0.701896 0.752542 0.824009 0.070050
C85   C     C_R   0.200553 0.631011 0.514092 0.784479
C86   C     C_R   0.799662 0.369050 0.485168 0.795625
C87   C     C_R   0.803239 0.631705 0.472731 0.803861
C88   C     C_R   0.196937 0.368417 0.526539 0.802631
C89   C     C_R   0.700436 0.131150 0.513989 0.793113
C90   C     C_R   0.299601 0.868847 0.485910 0.810882
C91   C     C_R   0.299822 0.131239 0.485207 0.779142
C92   C     C_R   0.700229 0.868757 0.514665 0.779169
C93   C     C_R   0.201935 0.802275 0.895288 0.070248
C94   C     C_R   0.813869 0.222621 0.091438 0.073399
C95   C     C_R   0.801457 0.801714 0.100407 0.071971
C96   C     C_R   0.199196 0.196930 0.899211 0.070302
C97   C     C_R   0.709897 0.318596 0.891795 0.073817
C98   C     C_R   0.313736 0.722299 0.088046 0.074275
C99   C     C_R   0.318261 0.267526 0.085229 0.073089
C100  C     C_R   0.682448 0.731154 0.914345 0.071833
C101  C     C_R   0.158677 0.897704 0.000095 -0.188979
C102  C     C_R   0.895975 0.200690 0.956778 -0.181306
C103  C     C_R   0.879637 0.822521 0.959332 -0.182086
C104  C     C_R   0.121204 0.175899 0.040446 -0.177880
C105  C     C_R   0.653249 0.394534 0.013827 -0.193262
C106  C     C_R   0.390045 0.685393 0.951617 -0.188592
C107  C     C_R   0.388343 0.317637 0.950431 -0.195895
C108  C     C_R   0.612303 0.681250 0.049269 -0.202384
C109  C     C_R   0.186138 0.879444 0.048419 0.241520
C110  C     C_R   0.874469 0.233969 0.905866 0.246506
C111  C     C_R   0.850340 0.806664 0.913045 0.234807
C112  C     C_R   0.150708 0.191017 0.086570 0.246014
C113  C     C_R   0.678440 0.372516 0.064347 0.229680
C114  C     C_R   0.363801 0.704407 0.901206 0.238259
C115  C     C_R   0.361364 0.298763 0.901560 0.225321
C116  C     C_R   0.639582 0.699414 0.097830 0.232289
C117  C     C_R   0.248482 0.707632 0.791056 -0.167283
C118  C     C_R   0.730676 0.243228 0.224917 -0.166454
C119  C     C_R   0.721654 0.788381 0.240859 -0.164715
C120  C     C_R   0.278788 0.210675 0.758552 -0.166836
C121  C     C_R   0.780644 0.265426 0.760474 -0.195585
C122  C     C_R   0.234330 0.757427 0.220697 -0.171111
C123  C     C_R   0.258436 0.193299 0.207574 -0.167320
C124  C     C_R   0.742502 0.805224 0.792061 -0.170161
C125  C     C_R   0.282046 0.697170 0.830670 -0.132166
C126  C     C_R   0.708577 0.274487 0.174459 -0.132656
C127  C     C_R   0.691642 0.774357 0.195949 -0.132269
C128  C     C_R   0.309005 0.224089 0.803315 -0.129964
C129  C     C_R   0.809415 0.249641 0.806915 -0.145122
C130  C     C_R   0.213421 0.789624 0.169185 -0.116692
C131  C     C_R   0.228743 0.177749 0.162494 -0.114463
C132  C     C_R   0.772503 0.820005 0.836799 -0.142013
C133  C     C_R   0.927680 0.900777 0.065100 0.805239
C134  C     C_R   0.072421 0.099109 0.934843 0.773320
C135  C     C_R   0.077049 0.908319 0.930622 0.797455
C136  C     C_R   0.928183 0.099636 0.064974 0.786803
C137  C     C_R   0.428155 0.399942 0.064607 0.801723
C138  C     C_R   0.571887 0.599992 0.935357 0.772611
C139  C     C_R   0.577431 0.408922 0.930805 0.796454
C140  C     C_R   0.428070 0.599601 0.064733 0.787368
C141  C     C_R   0.067199 0.622365 0.445845 -0.020703
C142  C     C_R   0.937787 0.376039 0.538543 -0.024580
C143  C     C_R   0.970126 0.622863 0.432638 -0.023527
C144  C     C_R   0.034950 0.375002 0.549400 -0.029997
C145  C     C_R   0.554824 0.129449 0.481811 -0.035854
C146  C     C_R   0.446162 0.870485 0.515141 -0.041778
C147  C     C_R   0.448270 0.129873 0.509345 -0.041051
C148  C     C_R   0.552576 0.870095 0.488190 -0.043075
C149  C     C_R   0.050966 0.684425 0.416562 0.220898
C150  C     C_R   0.956550 0.311857 0.558721 0.246318
C151  C     C_R   0.003136 0.684272 0.408394 0.241873
C152  C     C_R   0.005397 0.311211 0.563303 0.289261
C153  C     C_R   0.529123 0.195056 0.485068 0.221699
C154  C     C_R   0.472093 0.804858 0.510663 0.252932
C155  C     C_R   0.475044 0.195334 0.502417 0.228336
C156  C     C_R   0.526019 0.804622 0.494113 0.231725
C157  C     C_R   0.985679 0.561613 0.464189 -0.008548
C158  C     C_R   0.018578 0.437277 0.521256 -0.009764
C159  C     C_R   0.034183 0.561359 0.470806 -0.005204
C160  C     C_R   0.970097 0.437617 0.515058 -0.005378
C161  C     C_R   0.474880 0.065006 0.501532 -0.009037
C162  C     C_R   0.525935 0.934957 0.496047 -0.006602
C163  C     C_R   0.527086 0.064860 0.492768 -0.011180
C164  C     C_R   0.473759 0.935104 0.504698 -0.012243
C165  C     C_R   0.448449 0.000120 0.505749 0.025822
C166  C     C_R   0.552296 0.999848 0.492082 0.024314
C167  C     C_R   0.953233 0.499950 0.487449 0.029115
C168  C     C_R   0.050279 0.499490 0.500663 0.029440
C169  C     C_R   0.371690 0.935210 0.509868 0.026282
C170  C     C_R   0.628848 0.064758 0.488693 0.031093
C171  C     C_R   0.627985 0.934657 0.491003 0.032633
C172  C     C_R   0.372498 0.065331 0.507753 0.032271
C173  C     C_R   0.872524 0.437860 0.503271 0.032706
C174  C     C_R   0.129528 0.562168 0.490411 0.033589
C175  C     C_R   0.115480 0.436846 0.535611 0.031709
C176  C     C_R   0.886251 0.563047 0.457485 0.034363
C177  C     C_R   0.325322 0.935252 0.494985 -0.113728
C178  C     C_R   0.674894 0.064741 0.504461 -0.112684
C179  C     C_R   0.674490 0.934933 0.505558 -0.105396
C180  C     C_R   0.325713 0.065064 0.493951 -0.106233
C181  C     C_R   0.826761 0.436248 0.487257 -0.115841
C182  C     C_R   0.173879 0.563920 0.510447 -0.110428
C183  C     C_R   0.166813 0.435596 0.534119 -0.117918
C184  C     C_R   0.833700 0.564583 0.463488 -0.117577
C185  C     C_R   0.303821 0.000155 0.486192 -0.265169
C186  C     C_R   0.696242 0.999843 0.513688 -0.269838
C187  C     C_R   0.806825 0.500196 0.471797 -0.244876
C188  C     C_R   0.193069 0.500079 0.527941 -0.254046
Cu1   Cu    Cu3+1 0.209920 0.785290 0.495070 1.036415
Cu2   Cu    Cu3+1 0.790080 0.214710 0.504930 1.024105
Cu3   Cu    Cu3+1 0.790080 0.785290 0.504930 1.025511
Cu4   Cu    Cu3+1 0.209920 0.214710 0.495070 1.037370
Cu5   Cu    Cu3+1 0.709920 0.285290 0.495070 1.047157
Cu6   Cu    Cu3+1 0.290080 0.714710 0.504930 1.031556
Cu7   Cu    Cu3+1 0.290080 0.285290 0.504930 1.039946
Cu8   Cu    Cu3+1 0.709920 0.714710 0.495070 1.051983
Cu9   Cu    Cu3+1 0.495240 0.500000 0.924150 1.035383
Cu10  Cu    Cu3+1 0.504760 0.500000 0.075850 1.026851
Cu11  Cu    Cu3+1 0.995240 0.000000 0.924150 1.018487
Cu12  Cu    Cu3+1 0.004760 0.000000 0.075850 1.032865
H1    H     H_    0.269063 0.000150 0.473950 0.196877
H2    H     H_    0.730763 0.999854 0.526570 0.194953
H3    H     H_    0.769082 0.500093 0.468571 0.200593
H4    H     H_    0.229826 0.500289 0.534352 0.196781
H5    H     H_    0.628360 0.825082 0.447319 0.197600
H6    H     H_    0.372407 0.174925 0.551297 0.200298
H7    H     H_    0.369068 0.826715 0.558352 0.213766
H8    H     H_    0.631889 0.173157 0.439924 0.196177
H9    H     H_    0.088789 0.333333 0.595457 0.203414
H10   H     H_    0.911707 0.666085 0.396447 0.201610
H11   H     H_    0.859697 0.337367 0.573827 0.185655
H12   H     H_    0.144096 0.662530 0.419454 0.188462
H13   H     H_    0.115780 0.842965 0.773056 0.197728
H14   H     H_    0.877957 0.143361 0.234240 0.199064
H15   H     H_    0.884583 0.842456 0.227927 0.204390
H16   H     H_    0.115389 0.157885 0.772337 0.203190
H17   H     H_    0.619522 0.345348 0.773448 0.196775
H18   H     H_    0.379710 0.648491 0.231135 0.198786
H19   H     H_    0.379966 0.349941 0.230058 0.197872
H20   H     H_    0.619748 0.650487 0.770080 0.200020
H21   H     H_    0.137449 0.947776 0.016802 0.201528
H22   H     H_    0.938355 0.188257 0.924586 0.191002
H23   H     H_    0.922602 0.828274 0.920713 0.197802
H24   H     H_    0.078236 0.170490 0.079311 0.197933
H25   H     H_    0.628950 0.441576 0.037745 0.215235
H26   H     H_    0.432042 0.672078 0.915119 0.197948
H27   H     H_    0.428078 0.338634 0.911770 0.206378
H28   H     H_    0.572460 0.660695 0.088203 0.205538
H29   H     H_    0.250934 0.668406 0.742498 0.182808
H30   H     H_    0.703440 0.232161 0.293977 0.172176
H31   H     H_    0.699951 0.796900 0.311902 0.156631
H32   H     H_    0.300335 0.202563 0.687393 0.158629
H33   H     H_    0.802651 0.254257 0.690775 0.207031
H34   H     H_    0.206346 0.751296 0.289882 0.202692
H35   H     H_    0.249659 0.161332 0.265943 0.186138
H36   H     H_    0.751277 0.837568 0.733997 0.180559
H37   H     H_    0.309106 0.652124 0.808950 0.196532
H38   H     H_    0.666265 0.287297 0.207536 0.193660
H39   H     H_    0.648571 0.775061 0.234638 0.187643
H40   H     H_    0.352049 0.223195 0.764400 0.192711
H41   H     H_    0.845628 0.218951 0.772252 0.220265
H42   H     H_    0.172735 0.809553 0.202476 0.219887
H43   H     H_    0.197898 0.137288 0.190279 0.209524
H44   H     H_    0.803591 0.860135 0.808890 0.186548
O1    O     O_R   0.255040 0.869590 0.478480 -0.570691
O2    O     O_R   0.744960 0.130410 0.521520 -0.577183
O3    O     O_R   0.744960 0.869590 0.521520 -0.589085
O4    O     O_R   0.255040 0.130410 0.478480 -0.584689
O5    O     O_R   0.755040 0.369590 0.478480 -0.568412
O6    O     O_R   0.244960 0.630410 0.521520 -0.581793
O7    O     O_R   0.244960 0.369590 0.521520 -0.569193
O8    O     O_R   0.755040 0.630410 0.478480 -0.565917
O9    O     O_R   0.182050 0.796550 0.624440 -0.569415
O10   O     O_R   0.817950 0.203450 0.375560 -0.569176
O11   O     O_R   0.817950 0.796550 0.375560 -0.575398
O12   O     O_R   0.182050 0.203450 0.624440 -0.573033
O13   O     O_R   0.682050 0.296550 0.624440 -0.563389
O14   O     O_R   0.317950 0.703450 0.375560 -0.566390
O15   O     O_R   0.317950 0.296550 0.375560 -0.564367
O16   O     O_R   0.682050 0.703450 0.624440 -0.562329
O17   O     O_R   0.250530 0.763330 0.367210 -0.592217
O18   O     O_R   0.749470 0.236670 0.632790 -0.600808
O19   O     O_R   0.749470 0.763330 0.632790 -0.587049
O20   O     O_R   0.250530 0.236670 0.367210 -0.584633
O21   O     O_R   0.750530 0.263330 0.367210 -0.583989
O22   O     O_R   0.249470 0.736670 0.632790 -0.593384
O23   O     O_R   0.249470 0.263330 0.632790 -0.582354
O24   O     O_R   0.750530 0.736670 0.367210 -0.579023
O25   O     O_R   0.177260 0.690030 0.513710 -0.580674
O26   O     O_R   0.822740 0.309970 0.486290 -0.580972
O27   O     O_R   0.822740 0.690030 0.486290 -0.573442
O28   O     O_R   0.177260 0.309970 0.513710 -0.572805
O29   O     O_R   0.677260 0.190030 0.513710 -0.585939
O30   O     O_R   0.322740 0.809970 0.486290 -0.583114
O31   O     O_R   0.322740 0.190030 0.486290 -0.594572
O32   O     O_R   0.677260 0.809970 0.513710 -0.592492
O33   O     O_R   0.051640 0.926880 0.885090 -0.579778
O34   O     O_R   0.948360 0.073120 0.114910 -0.577297
O35   O     O_R   0.948360 0.926880 0.114910 -0.565080
O36   O     O_R   0.051640 0.073120 0.885090 -0.576912
O37   O     O_R   0.551640 0.426880 0.885090 -0.576630
O38   O     O_R   0.448360 0.573120 0.114910 -0.577499
O39   O     O_R   0.448360 0.426880 0.114910 -0.569493
O40   O     O_R   0.551640 0.573120 0.885090 -0.577538
O41   O     O_R   0.940620 0.926560 0.986760 -0.586316
O42   O     O_R   0.059380 0.073440 0.013240 -0.594918
O43   O     O_R   0.059380 0.926560 0.013240 -0.581482
O44   O     O_R   0.940620 0.073440 0.986760 -0.581446
O45   O     O_R   0.440620 0.426560 0.986760 -0.581882
O46   O     O_R   0.559380 0.573440 0.013240 -0.595486
O47   O     O_R   0.559380 0.426560 0.013240 -0.592485
O48   O     O_R   0.440620 0.573440 0.986760 -0.581364
Br1   Br    Br    0.561488 0.714303 0.486021 -0.361843
Br2   Br    Br    0.439620 0.285640 0.510166 -0.387513
Br3   Br    Br    0.435940 0.714996 0.519381 -0.366071
Br4   Br    Br    0.565983 0.284940 0.472463 -0.401124
Br5   Br    Br    0.034003 0.221315 0.579697 -0.374255
Br6   Br    Br    0.982813 0.769821 0.366488 -0.425412
Br7   Br    Br    0.919076 0.222797 0.569993 -0.448192
Br8   Br    Br    0.090802 0.772573 0.395751 -0.461449
Br9   Br    Br    0.183134 0.947035 0.136708 -0.489954
Br10  Br    Br    0.926221 0.271829 0.793077 -0.496765
Br11  Br    Br    0.892717 0.788801 0.787026 -0.477609
Br12  Br    Br    0.108501 0.208075 0.212841 -0.461909
Br13  Br    Br    0.664862 0.429054 0.168137 -0.407889
Br14  Br    Br    0.407189 0.707522 0.773488 -0.448789
Br15  Br    Br    0.389767 0.344483 0.785819 -0.441277
Br16  Br    Br    0.611673 0.652913 0.213049 -0.404788

loop_
_geom_bond_atom_site_label_1
_geom_bond_atom_site_label_2
_ccdc_geom_bond_type
C5    O21   A    
C85   C182  S    
Cu3   O3    S    
C9    C169  A    
C34   C42   A    
C139  O47   A    
C181  C187  A    
C27   C99   A    
C170  C178  A    
Cu1   O25   S    
C18   H10   S    
C42   C109  A    
C24   C96   A    
C33   C129  A    
C30   C38   A    
Cu3   Cu8   S    
C103  H23   S    
Cu1   Cu6   S    
Cu4   O12   S    
C92   O32   A    
C147  C155  A    
C119  H31   S    
C143  C151  A    
C90   C177  S    
Cu11  Cu12  S    
C89   O29   A    
C82   C98   A    
C76   C84   A    
C51   C107  A    
C73   C81   A    
C161  C163  A    
C162  C164  A    
Cu11  O41   S    
Cu6   O30   S    
C50   C98   A    
C139  O37   A    
C84   C100  A    
Cu4   Cu7   S    
C57   C65   A    
C37   C114  A    
C108  H28   S    
C27   C35   A    
C10   C171  A    
C55   C133  S    
C21   C29   A    
C81   C121  A    
C114  Br14  S    
C23   C31   A    
C24   C32   A    
C5    C70   S    
Cu11  O36   S    
C146  C154  A    
Cu9   O48   S    
Cu12  O35   S    
Cu10  O47   S    
C152  Br5   S    
C134  O42   A    
C122  H34   S    
C63   C71   A    
C14   H6    S    
C36   C44   A    
C10   C170  A    
C126  H38   S    
C102  H22   S    
C12   C174  A    
C1    O14   A    
C58   C140  S    
C176  C184  A    
C91   O4    A    
C8    C71   S    
C48   C96   A    
C68   H20   S    
Cu7   O15   S    
C140  O38   A    
C56   C134  S    
C132  H44   S    
C149  Br8   S    
C133  O35   A    
C148  C162  A    
C183  C188  A    
C65   H17   S    
C108  C116  A    
C2    O18   A    
C21   C93   A    
C78   C94   A    
C91   O31   A    
C112  Br12  S    
C188  H4    S    
C20   H12   S    
C49   C97   A    
C21   C42   A    
C40   C115  A    
C66   H18   S    
C24   C43   A    
Cu1   O9    S    
C101  C109  A    
C82   C122  A    
Cu9   O37   S    
C17   C175  A    
C60   C138  S    
C18   C176  A    
C6    C69   S    
C29   C125  A    
C7    O12   A    
C69   C77   A    
Cu6   O22   S    
C31   C127  A    
C45   C93   A    
C174  C182  A    
C71   C79   A    
C179  C186  A    
C186  H2    S    
C11   C176  A    
C156  Br1   S    
C17   C144  A    
C1    C74   S    
C105  C113  A    
C18   C143  A    
C78   C118  A    
C149  C151  A    
C85   O25   A    
C66   C74   A    
C90   O1    A    
C49   C57   A    
C124  C132  A    
C52   C60   A    
C59   C67   A    
C53   C61   A    
C141  C159  A    
C20   C174  A    
C23   C95   A    
C55   C63   A    
C6    O22   A    
C86   C181  S    
Cu6   O6    S    
C105  H25   S    
C35   C43   A    
C4    O20   A    
C86   O5    A    
C45   C53   A    
Cu10  O38   S    
C22   C94   A    
C171  C179  A    
C61   H13   S    
Cu2   O26   S    
C169  C177  A    
Cu2   O2    S    
C155  Br2   S    
C7    C72   S    
C104  C112  A    
C145  C163  A    
C146  C164  A    
C14   C147  A    
C52   C100  A    
C6    O9    A    
C79   C119  A    
C16   C145  A    
C124  H36   S    
C136  O34   A    
C178  C186  A    
C25   C38   A    
C46   C94   A    
C27   C40   A    
C10   C166  A    
C91   C180  S    
Cu8   O8    S    
C90   O30   A    
C182  C188  A    
C89   C178  S    
C7    O23   A    
C60   C68   A    
C2    C73   S    
C25   C97   A    
Cu9   O45   S    
Cu12  O34   S    
Cu7   O31   S    
Cu8   O24   S    
C67   C75   A    
C50   C106  A    
C19   C142  A    
C22   C30   A    
C20   C141  A    
C115  Br15  S    
C15   C146  A    
C68   C76   A    
Cu4   O28   S    
C150  Br7   S    
Cu4   O4    S    
C184  C187  A    
C134  O36   A    
C32   C128  A    
C67   H19   S    
C144  C152  A    
C130  H42   S    
C117  H29   S    
Cu9   Cu10  S    
C161  C165  A    
C13   C171  A    
C2    O13   A    
C135  O43   A    
C138  O40   A    
Cu3   O27   S    
C117  C125  A    
C104  H24   S    
C15   H7    S    
C25   C33   A    
C119  C127  A    
C11   C167  A    
C127  H39   S    
C62   H14   S    
C157  C167  A    
C80   C120  A    
C158  C168  A    
Cu11  O44   S    
Cu12  O43   S    
C19   H11   S    
C164  C165  A    
C17   H9    S    
C22   C41   A    
C63   H15   S    
C187  H3    S    
C177  C185  A    
C57   C139  S    
C103  C111  A    
C185  H1    S    
C4    C75   S    
Cu2   Cu5   S    
C162  C166  A    
C53   C135  S    
Cu5   O13   S    
C153  C155  A    
Cu7   O23   S    
C154  C156  A    
Cu8   O32   S    
C172  C180  A    
C173  C181  A    
C157  C159  A    
C83   C99   A    
C158  C160  A    
C120  H32   S    
C74   C82   A    
C116  Br16  S    
C153  Br4   S    
C109  Br9   S    
C154  Br3   S    
C47   C103  A    
C141  C149  A    
C50   C58   A    
C163  C166  A    
C147  C161  A    
C38   C113  A    
C49   C105  A    
C54   C62   A    
C28   C39   A    
Cu3   O11   S    
C23   C44   A    
C19   C173  A    
C79   C95   A    
C92   C179  S    
C140  O48   A    
C46   C54   A    
Cu1   O17   S    
C137  O45   A    
C45   C101  A    
C88   O7    A    
C123  H35   S    
C4    O15   A    
C133  O41   A    
C13   H5    S    
C102  C110  A    
C35   C131  A    
C125  H37   S    
C101  H21   S    
C36   C132  A    
C123  C131  A    
C135  O33   A    
C121  C129  A    
C120  C128  A    
C26   C37   A    
C128  H40   S    
C8    O11   A    
C33   C41   A    
C142  C150  A    
C9    C165  A    
C138  O46   A    
C75   C83   A    
Cu11  O33   S    
C129  H41   S    
Cu10  O46   S    
C77   C93   A    
C44   C111  A    
C16   C170  A    
C28   C36   A    
C72   C80   A    
C39   C116  A    
C29   C37   A    
Cu2   O10   S    
C9    C172  A    
C148  C156  A    
C83   C123  A    
C30   C126  A    
C70   C78   A    
C8    O24   A    
Cu4   O20   S    
Cu12  O42   S    
C159  C168  A    
C46   C102  A    
C106  C114  A    
C77   C117  A    
C59   C137  S    
Cu5   O29   S    
C3    O16   A    
C48   C104  A    
C65   C73   A    
C89   O2    A    
C15   C169  A    
C160  C167  A    
Cu8   O16   S    
C87   O27   A    
C26   C34   A    
Cu7   O7    S    
C113  Br13  S    
C106  H26   S    
Cu5   O5    S    
C80   C96   A    
C145  C153  A    
C28   C100  A    
C32   C40   A    
C52   C108  A    
C85   O6    A    
C62   C70   A    
C151  Br6   S    
C92   O3    A    
C58   C66   A    
C143  C157  A    
C51   C99   A    
C87   O8    A    
C11   C173  A    
Cu1   O1    S    
C137  O39   A    
C86   O26   A    
C14   C172  A    
C87   C184  S    
C88   C183  S    
C107  H27   S    
Cu6   O14   S    
Cu3   O19   S    
C5    O10   A    
C54   C136  S    
C56   C64   A    
C3    C76   S    
C107  C115  A    
C26   C98   A    
C12   C175  A    
C1    O17   A    
C3    O19   A    
C41   C110  A    
C110  Br10  S    
C150  C152  A    
C51   C59   A    
C43   C112  A    
C144  C158  A    
C136  O44   A    
C47   C55   A    
C61   C69   A    
C48   C56   A    
C175  C183  A    
C64   H16   S    
C142  C160  A    
C16   H8    S    
C12   C168  A    
C84   C124  A    
C121  H33   S    
Cu5   O21   S    
Cu2   O18   S    
C131  H43   S    
C81   C97   A    
C118  H30   S    
C111  Br11  S    
C31   C39   A    
C64   C72   A    
Cu9   O40   S    
C180  C185  A    
Cu10  O39   S    
C34   C130  A    
C47   C95   A    
C118  C126  A    
C13   C148  A    
C88   O28   A    
C122  C130  A    
