data_mof_unit_6939.cif
_audit_creation_date              2012-12-10T17:38:48-0500
_audit_creation_method            fapswitch 2.2
_symmetry_space_group_name_H-M    P1
_symmetry_Int_Tables_number       1
_space_group_crystal_system       triclinic
_cell_length_a                    12.370078
_cell_length_b                    13.098686
_cell_length_c                    23.513422
_cell_angle_alpha                 77.422033
_cell_angle_beta                  101.159338
_cell_angle_gamma                 116.578219
_cell_volume                      3305.31357759

loop_
_atom_site_label
_atom_site_type_symbol
_atom_type_description
_atom_site_fract_x
_atom_site_fract_y
_atom_site_fract_z
_atom_type_partial_charge
C1    C     C_R   0.855321 0.286375 0.504903 0.777634
C2    C     C_R   0.809681 0.302315 0.033721 0.096580
C3    C     C_R   0.811551 0.302935 0.973929 0.178259
C4    C     C_R   0.905467 0.392522 0.942623 -0.075607
C5    C     C_R   0.998289 0.481029 0.972130 -0.066758
C6    C     C_R   0.093030 0.570799 0.941502 0.000465
C7    C     C_R   0.185389 0.658579 0.970738 -0.162755
C8    C     C_R   0.184092 0.658560 0.029638 -0.163844
C9    C     C_R   0.909768 0.397668 0.882281 0.582723
C10   C     C_R   0.092873 0.571424 0.881921 0.561383
C11   C     C_R   0.953224 0.561191 0.751626 0.212302
C12   C     C_R   0.000171 0.501071 0.608822 0.801034
C13   C     C_R   0.951755 0.566007 0.691139 0.070677
C14   C     C_R   0.999086 0.500359 0.671559 -0.102035
C15   C     C_R   0.047506 0.432512 0.713102 -0.244721
C16   C     C_R   0.048057 0.428071 0.772775 -0.165392
C17   C     C_R   0.001042 0.491890 0.792123 0.326025
C18   C     C_R   0.909657 0.512119 0.227786 -0.098542
C19   C     C_R   0.910554 0.516027 0.286668 -0.215171
C20   C     C_R   0.999415 0.496580 0.328875 -0.040877
C21   C     C_R   0.086986 0.472848 0.311107 -0.217548
C22   C     C_R   0.085894 0.469066 0.252242 -0.103848
C23   C     C_R   0.145077 0.714676 0.491933 0.815209
C24   C     C_R   0.997360 0.488744 0.210404 0.361727
C25   C     C_R   0.274647 0.040603 0.442732 0.207167
C26   C     C_R   0.228091 0.839363 0.483159 -0.162399
C27   C     C_R   0.814350 0.083813 0.543571 -0.172355
C28   C     C_R   0.732761 0.970688 0.558969 -0.141855
C29   C     C_R   0.609688 0.935970 0.540053 -0.152770
C30   C     C_R   0.566234 0.011989 0.500740 0.073287
C31   C     C_R   0.652101 0.123572 0.479843 0.017286
C32   C     C_R   0.440234 0.982008 0.483140 -0.002885
C33   C     C_R   0.401100 0.066576 0.449981 0.010657
C34   C     C_R   0.000138 0.499642 0.391155 0.787741
C35   C     C_R   0.488672 0.170228 0.422624 0.129645
C36   C     C_R   0.612235 0.192355 0.433195 0.129109
C37   C     C_R   0.352361 0.869322 0.497186 -0.249222
C38   C     C_R   0.189008 0.927696 0.459187 0.147198
C39   C     C_R   0.774326 0.162630 0.506711 -0.098209
C40   C     C_R   0.340583 0.319363 0.589882 0.061743
C41   C     C_R   0.757056 0.637735 0.417241 0.067355
C42   C     C_R   0.653871 0.654152 0.392787 -0.250159
C43   C     C_R   0.548451 0.595381 0.420558 -0.208394
C44   C     C_R   0.546039 0.524638 0.475582 0.013003
C45   C     C_R   0.088332 0.571303 0.119821 0.527510
C46   C     C_R   0.651456 0.503061 0.495947 0.283022
C47   C     C_R   0.442513 0.469064 0.509385 -0.120374
C48   C     C_R   0.441694 0.380716 0.557301 0.123382
C49   C     C_R   0.542959 0.355694 0.573069 -0.242428
C50   C     C_R   0.646188 0.417882 0.544498 -0.223153
C51   C     C_R   0.341763 0.499206 0.500537 0.310189
C52   C     C_R   0.242802 0.349367 0.576203 -0.016844
C53   C     C_R   0.905631 0.396949 0.123584 0.540611
C54   C     C_R   0.902540 0.391949 0.063559 -0.083002
C55   C     C_R   0.996878 0.480849 0.032186 -0.043357
C56   C     C_R   0.090470 0.570694 0.060695 0.008630
Cu1   Cu    Cu3+1 0.098270 0.475410 0.513370 0.953786
Cu2   Cu    Cu3+1 0.901730 0.524590 0.486630 0.903651
H1    H     H_    0.907746 0.111149 0.563364 0.152162
H2    H     H_    0.258884 0.728074 0.948133 0.188180
N1    N     N_R   0.997015 0.485608 0.149773 -0.464949
N2    N     N_R   0.001857 0.486286 0.853732 -0.457547
N3    N     N_R   0.246280 0.438190 0.533650 -0.183568
N4    N     N_R   0.754320 0.561190 0.466710 -0.211754
O1    O     O_R   0.972510 0.318130 0.516820 -0.578362
O2    O     O_2   0.819408 0.314392 0.156118 -0.555816
O3    O     O_2   0.822708 0.315991 0.851882 -0.502034
O4    O     O_2   0.182611 0.656759 0.852115 -0.536818
O5    O     O_R   0.806530 0.359650 0.494230 -0.597703
O6    O     O_R   0.082990 0.479200 0.593420 -0.574084
O7    O     O_R   0.917010 0.520720 0.570830 -0.606192
O8    O     O_R   0.193470 0.640350 0.505770 -0.540765
O9    O     O_R   0.027490 0.681870 0.483180 -0.598689
O10   O     O_R   0.082990 0.479280 0.429170 -0.568344
O11   O     O_R   0.917010 0.520800 0.406580 -0.606023
O12   O     O_2   0.176411 0.657528 0.147257 -0.542945
N5    N     N_3   0.711159 0.208718 0.062288 -0.592339
H3    H     H_    0.660755 0.241325 0.077571 0.268822
H4    H     H_    0.745746 0.162108 0.096597 0.269842
H5    H     H_    0.841736 0.534143 0.299069 0.156466
H6    H     H_    0.156207 0.456897 0.342594 0.152820
H7    H     H_    0.153692 0.450608 0.239056 0.139744
N6    N     N_3   0.062891 0.905674 0.449018 -0.549848
H8    H     H_    0.023697 0.867735 0.488297 0.235437
H9    H     H_    0.019407 0.850856 0.417384 0.224016
N7    N     N_3   0.452533 0.249103 0.380065 -0.625837
H10   H     H_    0.497057 0.330748 0.393223 0.227956
H11   H     H_    0.478789 0.254119 0.339501 0.253043
N8    N     N_3   0.229266 0.126797 0.420190 -0.549085
H12   H     H_    0.279877 0.199063 0.441498 0.237589
H13   H     H_    0.232978 0.148710 0.374941 0.250572
H14   H     H_    0.379342 0.801065 0.516782 0.174697
H15   H     H_    0.551567 0.850057 0.558638 0.127596
H16   H     H_    0.763966 0.911299 0.588820 0.146521
N9    N     N_3   0.716598 0.211319 0.945151 -0.498383
H17   H     H_    0.633048 0.210579 0.948254 0.239239
H18   H     H_    0.716975 0.132801 0.966890 0.237918
N10   N     N_3   0.691160 0.273965 0.390630 -0.583824
H19   H     H_    0.774113 0.268332 0.395480 0.218032
H20   H     H_    0.705556 0.357333 0.394049 0.257368
H21   H     H_    0.163912 0.303151 0.600143 0.127925
H22   H     H_    0.544967 0.289160 0.609279 0.187201
N11   N     N_3   0.337876 0.227456 0.636866 -0.589352
H23   H     H_    0.395998 0.265431 0.672459 0.225106
H24   H     H_    0.250982 0.181840 0.650683 0.215232
N12   N     N_3   0.340902 0.599208 0.461663 -0.539964
H25   H     H_    0.307612 0.580771 0.419071 0.208466
H26   H     H_    0.424934 0.670536 0.465361 0.202495
H27   H     H_    0.837480 0.680372 0.394459 0.126780
H28   H     H_    0.469665 0.602447 0.395579 0.147778
H29   H     H_    0.654136 0.709210 0.351094 0.155868
H30   H     H_    0.719442 0.394192 0.561387 0.212207
H31   H     H_    0.256738 0.728042 0.050704 0.188453
N13   N     N_3   0.905748 0.626128 0.772636 -0.569589
H32   H     H_    0.814684 0.600935 0.755223 0.234731
H33   H     H_    0.953958 0.713536 0.756923 0.246102
N14   N     N_3   0.905077 0.640324 0.651161 -0.608366
H34   H     H_    0.969854 0.695739 0.622672 0.233259
H35   H     H_    0.825108 0.589908 0.627311 0.248124
H36   H     H_    0.083924 0.381462 0.699385 0.166233
H37   H     H_    0.085046 0.374778 0.804189 0.153674
H38   H     H_    0.841109 0.527614 0.195566 0.140042

loop_
_geom_bond_atom_site_label_1
_geom_bond_atom_site_label_2
_ccdc_geom_bond_type
C29   H15   S    
C55   C56   A    
C24   N1    S    
C38   N6    S    
C41   C42   A    
N9    H17   S    
C16   H37   S    
C8    C56   A    
N13   H32   S    
C7    C8    A    
C53   C54   A    
C45   O12   S    
C18   C24   A    
C22   H7    S    
C28   C29   A    
N14   H35   S    
C5    C6    A    
C25   C38   A    
C35   N7    S    
N7    H11   S    
Cu2   O7    S    
N12   H25   S    
C15   C16   A    
C15   H36   S    
C28   H16   S    
C18   C19   A    
C23   C26   S    
C34   O10   A    
C11   N13   S    
C36   N10   S    
C53   N1    A    
C19   C20   A    
C45   C56   A    
C27   C39   A    
C16   C17   A    
C1    O1    A    
C43   H28   S    
Cu1   O6    S    
N8    H13   S    
C44   C47   A    
N5    H3    S    
C34   O11   A    
C20   C34   S    
C41   H27   S    
C21   C22   A    
C10   N2    A    
C23   O9    A    
C44   C46   A    
Cu2   O11   S    
Cu1   N3    S    
N5    H4    S    
Cu2   N4    S    
C52   H21   S    
C9    N2    A    
C47   C48   A    
C51   N3    A    
C2    C54   A    
Cu1   O1    S    
C49   H22   S    
Cu2   O5    S    
N7    H10   S    
C26   C38   A    
C47   C51   A    
C40   C52   A    
C1    O5    A    
C46   N4    A    
C35   C36   A    
Cu1   O10   S    
C43   C44   A    
C9    O3    S    
C29   C30   A    
C17   N2    S    
N13   H33   S    
N6    H8    S    
C50   H30   S    
N11   H24   S    
C32   C37   A    
C53   O2    S    
C8    H31   S    
C18   H38   S    
C48   C49   A    
N6    H9    S    
C12   O7    A    
C12   C14   S    
N10   H19   S    
N10   H20   S    
C22   C24   A    
C42   C43   A    
C3    C4    A    
C7    H2    S    
N11   H23   S    
C40   C48   A    
C12   O6    A    
C54   C55   A    
C11   C17   A    
C37   H14   S    
C31   C36   A    
C23   O8    A    
C5    C55   A    
C42   H29   S    
C21   H6    S    
C4    C5    A    
C52   N3    A    
C6    C10   A    
C13   N14   S    
N9    H18   S    
C26   C37   A    
C6    C7    A    
C10   O4    S    
C46   C50   A    
C25   N8    S    
C32   C33   A    
C2    C3    A    
C4    C9    A    
C2    N5    S    
C27   H1    S    
N14   H34   S    
C40   N11   S    
C30   C32   A    
C11   C13   A    
Cu1   Cu2   S    
C30   C31   A    
N12   H26   S    
C51   N12   S    
C45   N1    A    
C33   C35   A    
C31   C39   A    
Cu1   O8    S    
C19   H5    S    
C1    C39   S    
C20   C21   A    
C49   C50   A    
C27   C28   A    
C14   C15   A    
C3    N9    S    
C41   N4    A    
N8    H12   S    
C13   C14   A    
Cu2   O9    S    
C25   C33   A    
