data_mof_unit_47636.cif
_audit_creation_date              2012-12-10T17:36:50-0500
_audit_creation_method            fapswitch 2.2
_symmetry_space_group_name_H-M    P1
_symmetry_Int_Tables_number       1
_space_group_crystal_system       triclinic
_cell_length_a                    10.593862
_cell_length_b                    12.324912
_cell_length_c                    13.093843
_cell_angle_alpha                 116.887201
_cell_angle_beta                  77.818358
_cell_angle_gamma                 101.490411
_cell_volume                      1479.89648233

loop_
_atom_site_label
_atom_site_type_symbol
_atom_type_description
_atom_site_fract_x
_atom_site_fract_y
_atom_site_fract_z
_atom_type_partial_charge
C1    C     C_R   0.509497 0.854738 0.286205 0.764279
C2    C     C_3   0.014316 0.902543 0.516046 -0.125923
C3    C     C_3   0.955122 0.893277 0.413708 -0.179168
C4    C     C_3   0.877670 0.999210 0.498911 0.000907
C5    C     C_R   0.298416 0.276221 0.012105 -0.147581
C6    C     C_R   0.450947 0.227274 0.836071 -0.049202
C7    C     C_R   0.579004 0.813910 0.080169 -0.183725
C8    C     C_R   0.593162 0.733964 0.963262 -0.163450
C9    C     C_R   0.548209 0.610114 0.928296 -0.196290
C10   C     C_R   0.486034 0.564846 0.010325 0.075024
C11   C     C_R   0.449661 0.649770 0.124702 0.033448
C12   C     C_R   0.740517 0.999737 0.499796 0.780058
C13   C     C_R   0.451310 0.437979 0.979975 0.004557
C14   C     C_R   0.349054 0.400404 0.051374 0.072705
C15   C     C_R   0.299085 0.488231 0.159336 0.230315
C16   C     C_R   0.351550 0.610534 0.196122 -0.224905
C17   C     C_R   0.515987 0.346909 0.881918 0.052689
C18   C     C_R   0.344605 0.191803 0.902810 -0.256391
C19   C     C_R   0.509640 0.772478 0.162428 -0.087010
C20   C     C_R   0.694136 0.339357 0.317276 -0.273866
C21   C     C_R   0.326347 0.761490 0.647325 -0.001244
C22   C     C_R   0.274571 0.659864 0.670334 0.018113
C23   C     C_R   0.481257 0.145252 0.713854 0.793648
C24   C     C_R   0.326800 0.547473 0.601593 0.227768
C25   C     C_R   0.445556 0.545029 0.525739 -0.075566
C26   C     C_R   0.488774 0.650265 0.502086 0.249783
C27   C     C_R   0.520959 0.442235 0.468571 0.002224
C28   C     C_R   0.623194 0.440102 0.378406 0.168099
C29   C     C_R   0.657286 0.540128 0.352041 -0.265960
C30   C     C_R   0.594819 0.644168 0.415169 -0.149243
C31   C     C_R   0.505882 0.344310 0.500740 0.067209
C32   C     C_R   0.666681 0.241836 0.347430 0.074562
C33   C     C_R   0.259708 0.999094 0.498633 0.786951
C34   C     C_3   0.986308 0.093963 0.480091 -0.079208
C35   C     C_3   0.066048 0.987974 0.394932 -0.158260
C36   C     C_3   0.122779 0.997453 0.497317 0.014911
C37   C     C_3   0.045363 0.103002 0.582328 -0.145982
C38   C     C_3   0.934583 0.008461 0.601164 -0.192477
Cu1   Cu    Cu3+1 0.529830 0.098270 0.475420 0.949315
Cu2   Cu    Cu3+1 0.470170 0.901730 0.524580 0.923303
H1    H     H_    0.123199 0.979513 0.310722 0.138433
H2    H     H_    0.623018 0.908030 0.106192 0.148889
H3    H     H_    0.561622 0.550123 0.836786 0.139735
H4    H     H_    0.643226 0.767176 0.899910 0.141014
H5    H     H_    0.308371 0.675197 0.278512 0.197987
H6    H     H_    0.719389 0.162827 0.299252 0.125641
H7    H     H_    0.736844 0.539993 0.284518 0.155226
H8    H     H_    0.770755 0.336345 0.246878 0.156509
H9    H     H_    0.443184 0.346327 0.577536 0.169589
H10   H     H_    0.282571 0.845969 0.695232 0.138260
H11   H     H_    0.972141 0.172643 0.465749 0.178962
H12   H     H_    0.633199 0.717886 0.392076 0.200956
H13   H     H_    0.088170 0.187414 0.650580 0.170404
H14   H     H_    0.877734 0.016821 0.685431 0.135125
H15   H     H_    0.028616 0.824027 0.530594 0.157215
H16   H     H_    0.914744 0.807478 0.344946 0.132653
H17   H     H_    0.295606 0.099064 0.869546 0.149584
H18   H     H_    0.218396 0.244368 0.062220 0.187435
N1    N     N_R   0.575030 0.246270 0.438190 -0.190971
N2    N     N_R   0.425760 0.754330 0.561190 -0.211347
O1    O     O_R   0.537510 0.972500 0.318130 -0.581805
O2    O     O_R   0.487140 0.806530 0.359650 -0.595520
O3    O     O_R   0.708330 0.082950 0.479220 -0.584708
O4    O     O_R   0.657960 0.916980 0.520740 -0.598047
O5    O     O_R   0.512860 0.193470 0.640350 -0.585278
O6    O     O_R   0.462490 0.027500 0.681870 -0.592089
O7    O     O_R   0.342040 0.083020 0.479260 -0.551061
O8    O     O_R   0.291670 0.917050 0.520780 -0.594096
C39   C     C_3   0.660418 0.370177 0.839465 -0.428819
C40   C     C_3   0.741069 0.284462 0.847880 -0.355867
C41   C     C_3   0.886489 0.325227 0.829236 -0.825574
H19   H     H_    0.914736 0.326018 0.742899 0.274265
H20   H     H_    0.911796 0.418448 0.896946 0.254224
H21   H     H_    0.941999 0.260975 0.834663 0.237716
H22   H     H_    0.715606 0.284742 0.934864 0.228356
H23   H     H_    0.720130 0.189303 0.781808 0.206589
H24   H     H_    0.674605 0.360308 0.749367 0.216100
H25   H     H_    0.701730 0.464261 0.893927 0.217283
Br1   Br    Br    0.214142 0.398362 0.587338 -0.607677
C42   C     C_3   0.162180 0.675147 0.767330 -0.386073
C43   C     C_3   0.210047 0.751400 0.885391 -0.361359
C44   C     C_3   0.099182 0.763976 0.984340 -0.832464
H26   H     H_    0.021943 0.809970 0.979498 0.249697
H27   H     H_    0.056856 0.672355 0.980425 0.255655
H28   H     H_    0.136823 0.819893 0.068333 0.241737
H29   H     H_    0.286555 0.706534 0.893201 0.241464
H30   H     H_    0.252892 0.844480 0.893492 0.212059
H31   H     H_    0.087949 0.721169 0.757908 0.190532
H32   H     H_    0.112578 0.586302 0.765150 0.251464
Br2   Br    Br    0.162254 0.447435 0.263272 -0.552424

loop_
_geom_bond_atom_site_label_1
_geom_bond_atom_site_label_2
_ccdc_geom_bond_type
C17   C39   S    
Cu2   N2    S    
C34   C37   S    
C39   H24   S    
C35   C36   S    
C1    O2    A    
C43   C44   S    
C7    C8    A    
C11   C19   A    
C34   H11   S    
C29   C30   A    
C5    H18   S    
C29   H7    S    
C23   O6    A    
C36   C37   S    
C2    H15   S    
C12   O4    A    
C15   C16   A    
C33   C36   S    
Cu2   O2    S    
C34   C35   S    
C3    H16   S    
C7    H2    S    
C31   N1    A    
C42   H32   S    
C24   Br1   S    
C8    C9    A    
C40   C41   S    
C4    C12   S    
C9    C10   A    
C43   H29   S    
C37   H13   S    
Cu2   O6    S    
C21   C22   A    
Cu1   O5    S    
C39   H25   S    
Cu1   O7    S    
C31   H9    S    
Cu1   O1    S    
C21   H10   S    
C6    C18   A    
C4    C34   S    
C9    H3    S    
C1    C19   S    
C27   C31   A    
C24   C25   A    
C21   N2    A    
Cu1   Cu2   S    
C41   H20   S    
C12   O3    A    
C5    C18   A    
C20   C28   A    
C25   C26   A    
C37   C38   S    
C11   C16   A    
C2    C38   S    
C18   H17   S    
C38   H14   S    
C3    C35   S    
Cu1   N1    S    
C43   H30   S    
C5    C14   A    
C20   H8    S    
C4    C38   S    
C26   C30   A    
C44   H27   S    
C40   H23   S    
C22   C24   A    
C3    C4    S    
C40   H22   S    
C33   O7    A    
C20   C32   A    
C2    C36   S    
C6    C17   A    
C30   H12   S    
C28   C29   A    
C32   H6    S    
C8    H4    S    
C42   C43   S    
C10   C13   A    
C1    O1    A    
C16   H5    S    
C41   H21   S    
C25   C27   A    
C44   H28   S    
Cu1   O3    S    
C7    C19   A    
Cu2   O4    S    
C13   C17   A    
C23   O5    A    
C2    C3    S    
C22   C42   S    
C41   H19   S    
C42   H31   S    
C15   Br2   S    
C6    C23   S    
C39   C40   S    
C35   H1    S    
C10   C11   A    
C44   H26   S    
Cu2   O8    S    
C27   C28   A    
C14   C15   A    
C32   N1    A    
C13   C14   A    
C26   N2    A    
C33   O8    A    
