data_mof_unit_23112.cif
_audit_creation_date              2012-10-26T20:02:59-0400
_audit_creation_method            fapswitch 2.2
_symmetry_space_group_name_H-M    P1
_symmetry_Int_Tables_number       1
_space_group_crystal_system       triclinic
_cell_length_a                    10.719208
_cell_length_b                    12.315749
_cell_length_c                    13.171182
_cell_angle_alpha                 116.933208
_cell_angle_beta                  77.333493
_cell_angle_gamma                 101.397236
_cell_volume                      1502.78239804

loop_
_atom_site_label
_atom_site_type_symbol
_atom_type_description
_atom_site_fract_x
_atom_site_fract_y
_atom_site_fract_z
_atom_type_partial_charge
C1    C     C_R   0.511725 0.854668 0.286271 0.534452
C2    C     C_R   0.483874 0.569916 0.003922 0.031636
C3    C     C_R   0.452223 0.652829 0.121039 -0.000658
C4    C     C_R   0.739820 0.999528 0.499862 0.541602
C5    C     C_R   0.444628 0.442770 0.972573 0.024864
C6    C     C_R   0.352892 0.404564 0.049082 0.050358
C7    C     C_R   0.304724 0.491373 0.156391 -0.142816
C8    C     C_R   0.354597 0.613629 0.192592 -0.125094
C9    C     C_R   0.499719 0.351913 0.870518 -0.145032
C10   C     C_R   0.358321 0.192136 0.910014 -0.139929
C11   C     C_R   0.517108 0.773286 0.162444 -0.014621
C12   C     C_3   0.121884 0.001186 0.502009 0.069821
C13   C     C_R   0.708256 0.347839 0.330489 -0.153032
C14   C     C_R   0.324313 0.759231 0.644770 0.047079
C15   C     C_R   0.284910 0.661799 0.675082 -0.157751
C16   C     C_R   0.481150 0.145407 0.713732 0.538530
C17   C     C_R   0.350053 0.557853 0.619617 -0.124841
C18   C     C_R   0.456552 0.550364 0.532973 -0.001967
C19   C     C_R   0.493233 0.652622 0.504708 0.179317
C20   C     C_R   0.528356 0.446142 0.473856 -0.015588
C21   C     C_R   0.634959 0.446982 0.388593 0.034178
C22   C     C_R   0.668293 0.546824 0.361804 -0.182448
C23   C     C_3   0.039644 0.893201 0.525780 -0.221783
C24   C     C_R   0.598956 0.647025 0.418311 -0.105093
C25   C     C_R   0.500521 0.340833 0.495994 0.036178
C26   C     C_R   0.676412 0.247848 0.356934 0.036339
C27   C     C_R   0.260101 0.000405 0.500512 0.546358
C28   C     C_3   0.927795 0.122498 0.596180 -0.212621
C29   C     C_3   0.074694 0.128335 0.590781 -0.083058
C30   C     C_3   0.896908 0.893674 0.526953 -0.233522
C31   C     C_3   0.956590 0.983237 0.382022 -0.246524
C32   C     C_3   0.877492 0.999673 0.501022 0.038341
C33   C     C_3   0.668933 0.544603 0.725356 -0.315917
C34   C     C_3   0.100205 0.979819 0.381152 -0.254673
C35   C     C_3   0.117742 0.188918 0.711753 -0.279951
C36   C     C_3   0.080167 0.113947 0.782015 -0.433234
C37   C     C_R   0.311074 0.279626 0.017502 -0.135717
C38   C     C_R   0.450722 0.228858 0.835135 -0.010813
C39   C     C_R   0.595399 0.815204 0.084342 -0.175116
C40   C     C_R   0.608727 0.740596 0.967172 -0.105432
C41   C     C_R   0.553059 0.618616 0.924721 0.151259
Cu1   Cu    Cu3+1 0.529690 0.098270 0.475420 0.899625
Cu2   Cu    Cu3+1 0.470310 0.901730 0.524580 0.897014
H1    H     H_    0.874555 0.131783 0.681740 0.118452
H2    H     H_    0.661057 0.779125 0.908524 0.124676
H3    H     H_    0.908202 0.201261 0.584404 0.111016
H4    H     H_    0.312843 0.677055 0.276238 0.146851
H5    H     H_    0.732664 0.171016 0.312592 0.114427
H6    H     H_    0.749461 0.547847 0.296377 0.103160
H7    H     H_    0.789905 0.347882 0.265240 0.086009
H8    H     H_    0.421341 0.332146 0.559193 0.112140
H9    H     H_    0.272984 0.839414 0.688052 0.114167
H10   H     H_    0.315142 0.485093 0.646319 0.086859
H11   H     H_    0.203449 0.666767 0.741663 0.093376
H12   H     H_    0.130461 0.889657 0.314887 0.109481
H13   H     H_    0.632433 0.718410 0.391261 0.181857
H14   H     H_    0.120186 0.194574 0.553509 0.115591
H15   H     H_    0.842642 0.903905 0.612641 0.127470
H16   H     H_    0.053442 0.895021 0.607325 0.122790
H17   H     H_    0.918907 0.896734 0.312929 0.107040
H18   H     H_    0.947068 0.060158 0.362789 0.122109
H19   H     H_    0.159622 0.051155 0.355872 0.125452
H20   H     H_    0.471751 0.491135 0.774589 0.249615
H21   H     H_    0.668673 0.593292 0.672242 0.160783
H22   H     H_    0.679107 0.446549 0.667578 0.153030
H23   H     H_    0.859697 0.803934 0.461293 0.118711
H24   H     H_    0.753652 0.584025 0.771848 0.133493
H25   H     H_    0.979472 0.070085 0.777786 0.141594
H26   H     H_    0.147128 0.043785 0.752114 0.145105
H27   H     H_    0.088786 0.175471 0.873656 0.136930
H28   H     H_    0.223867 0.212865 0.703036 0.156362
H29   H     H_    0.075728 0.277302 0.762535 0.131400
H30   H     H_    0.070525 0.804388 0.456881 0.116304
H31   H     H_    0.319458 0.096864 0.884005 0.116729
H32   H     H_    0.231341 0.464201 0.214230 0.101680
H33   H     H_    0.239757 0.249972 0.074846 0.099101
H34   H     H_    0.581424 0.374799 0.816675 0.146155
H35   H     H_    0.644640 0.907477 0.113681 0.125982
N1    N     N_R   0.574690 0.246280 0.438200 -0.233552
N2    N     N_R   0.426100 0.754320 0.561190 -0.233799
N3    N     N_2   0.548916 0.555239 0.803923 -0.530224
O1    O     O_R   0.537340 0.972510 0.318130 -0.497265
O2    O     O_R   0.487200 0.806530 0.359650 -0.523294
O3    O     O_R   0.707380 0.082980 0.479220 -0.508321
O4    O     O_R   0.657240 0.917000 0.520740 -0.522754
O5    O     O_R   0.512800 0.193470 0.640350 -0.513266
O6    O     O_R   0.462660 0.027490 0.681870 -0.499780
O7    O     O_R   0.342760 0.083000 0.479260 -0.512678
O8    O     O_R   0.292620 0.917020 0.520780 -0.520682

loop_
_geom_bond_atom_site_label_1
_geom_bond_atom_site_label_2
_ccdc_geom_bond_type
C12   C29   S    
Cu2   O2    S    
C31   H18   S    
C35   C36   S    
C1    C11   S    
C33   H22   S    
C7    C8    A    
C23   H16   S    
C12   C23   S    
C28   H3    S    
Cu2   O8    S    
H20   N3    S    
C10   C37   A    
C28   C29   S    
C5    C6    A    
C20   C25   A    
C2    C41   A    
C34   H19   S    
C18   C19   A    
C14   H9    S    
Cu1   O1    S    
C16   O6    A    
C27   O8    A    
Cu1   O5    S    
C14   N2    A    
C26   H5    S    
C35   H28   S    
C34   H12   S    
C21   C22   A    
C16   O5    A    
C19   N2    A    
C23   H30   S    
C30   H23   S    
C36   H27   S    
C40   H2    S    
C31   C34   S    
C12   C27   S    
Cu2   O4    S    
C23   C30   S    
C28   C32   S    
Cu1   O3    S    
C3    C8    A    
C39   C40   A    
C7    H32   S    
C4    O4    A    
Cu2   N2    S    
C28   H1    S    
C31   H17   S    
C25   H8    S    
C5    C9    A    
C31   C32   S    
C4    O3    A    
C41   N3    S    
C17   C18   A    
C6    C37   A    
C13   C21   A    
C9    H34   S    
C11   C39   A    
C15   H11   S    
C4    C32   S    
C22   H6    S    
C40   C41   A    
C37   H33   S    
C29   H14   S    
C35   H29   S    
C22   C24   A    
C13   C26   A    
C2    C5    A    
C1    O2    A    
Cu1   Cu2   S    
C12   C34   S    
C17   H10   S    
C36   H26   S    
C33   H24   S    
C15   C17   A    
C25   N1    A    
C36   H25   S    
C6    C7    A    
C24   H13   S    
C29   C35   S    
C26   N1    A    
C10   C38   A    
Cu2   O6    S    
C19   C24   A    
C1    O1    A    
C8    H4    S    
C30   C32   S    
C10   H31   S    
C33   H21   S    
C30   H15   S    
C9    C38   A    
C2    C3    A    
C18   C20   A    
C27   O7    A    
C3    C11   A    
C13   H7    S    
Cu1   N1    S    
Cu1   O7    S    
C20   C21   A    
C14   C15   A    
C39   H35   S    
C33   N3    S    
C16   C38   S    
