data_mof_unit_55176.cif
_audit_creation_date              2012-12-11T15:33:42-0500
_audit_creation_method            fapswitch 2.2
_symmetry_space_group_name_H-M    P1
_symmetry_Int_Tables_number       1
_space_group_crystal_system       triclinic
_cell_length_a                    27.372929
_cell_length_b                    7.190529
_cell_length_c                    22.634509
_cell_angle_alpha                 89.999984
_cell_angle_beta                  101.250279
_cell_angle_gamma                 90.0
_cell_volume                      4369.44935337

loop_
_atom_site_label
_atom_site_type_symbol
_atom_type_description
_atom_site_fract_x
_atom_site_fract_y
_atom_site_fract_z
_atom_type_partial_charge
O1    O     O_R   0.207310 0.594030 0.676830 -0.523656
O2    O     O_R   0.792690 0.405970 0.323170 -0.523656
O3    O     O_R   0.292690 0.094030 0.823170 -0.523656
O4    O     O_R   0.707310 0.905970 0.176830 -0.523656
O5    O     O_R   0.197320 0.262370 0.795700 -0.538955
O6    O     O_R   0.802680 0.737630 0.204300 -0.538955
O7    O     O_R   0.302680 0.762370 0.704300 -0.538955
O8    O     O_R   0.697320 0.237630 0.295700 -0.538955
C1    C     C_R   0.185039 0.433263 0.812583 0.729924
C2    C     C_R   0.814961 0.566737 0.187417 0.729924
C3    C     C_R   0.314961 0.933263 0.687417 0.729924
C4    C     C_R   0.685039 0.066737 0.312583 0.729925
O9    O     O_R   0.201410 0.264250 0.675590 -0.533379
O10   O     O_R   0.798590 0.735750 0.324410 -0.533379
O11   O     O_R   0.298590 0.764250 0.824410 -0.533380
O12   O     O_R   0.701410 0.235750 0.175590 -0.533379
O13   O     O_R   0.296810 0.094940 0.702210 -0.541137
O14   O     O_R   0.703190 0.905060 0.297790 -0.541138
O15   O     O_R   0.203190 0.594940 0.797790 -0.541138
O16   O     O_R   0.796810 0.405060 0.202210 -0.541138
C5    C     C_R   0.189629 0.432235 0.653301 0.852054
C6    C     C_R   0.810371 0.567765 0.346699 0.852054
C7    C     C_R   0.310371 0.932235 0.846699 0.852055
C8    C     C_R   0.689629 0.067765 0.153301 0.852054
O17   O     O_3   0.281300 0.427390 0.758870 -0.378842
O18   O     O_3   0.718700 0.572610 0.241130 -0.378842
O19   O     O_3   0.218700 0.927390 0.741130 -0.378842
O20   O     O_3   0.781300 0.072610 0.258870 -0.378842
V1    V     V_3+5 0.244190 0.152150 0.748350 1.590837
V2    V     V_3+5 0.755810 0.847850 0.251650 1.590838
V3    V     V_3+5 0.255810 0.652150 0.751650 1.590837
V4    V     V_3+5 0.744190 0.347850 0.248350 1.590837
C9    C     C_R   0.654210 0.065994 0.094696 -0.319305
C10   C     C_R   0.345790 0.934005 0.905304 -0.319304
C11   C     C_R   0.845790 0.565994 0.405304 -0.319304
C12   C     C_R   0.154210 0.434005 0.594696 -0.319304
C13   C     C_R   0.636323 0.146516 0.988925 -0.095965
C14   C     C_R   0.363677 0.853484 0.011075 -0.095965
C15   C     C_R   0.863677 0.646517 0.511075 -0.095965
C16   C     C_R   0.136323 0.353483 0.488925 -0.095965
C17   C     C_R   0.668863 0.144410 0.044331 0.542930
C18   C     C_R   0.331137 0.855590 0.955669 0.542930
C19   C     C_R   0.831137 0.644411 0.455669 0.542929
C20   C     C_R   0.168863 0.355589 0.544331 0.542930
C21   C     C_R   0.604741 0.003151 0.089872 0.628923
C22   C     C_R   0.395259 0.996849 0.910128 0.628922
C23   C     C_R   0.895259 0.503150 0.410128 0.628922
C24   C     C_R   0.104741 0.496849 0.589872 0.628921
C25   C     C_R   0.568637 0.031306 0.035499 -0.057014
C26   C     C_R   0.431363 0.968694 0.964501 -0.057014
C27   C     C_R   0.931363 0.531306 0.464501 -0.057012
C28   C     C_R   0.068637 0.468694 0.535499 -0.057012
C29   C     C_R   0.586862 0.087021 0.983690 -0.281405
C30   C     C_R   0.413137 0.912978 0.016310 -0.281405
C31   C     C_R   0.913138 0.587022 0.516310 -0.281406
C32   C     C_R   0.086862 0.412978 0.483690 -0.281406
C33   C     C_R   0.515798 0.001544 0.029479 -0.218194
C34   C     C_R   0.484202 0.998455 0.970521 -0.218195
C35   C     C_R   0.984202 0.501544 0.470521 -0.218194
C36   C     C_R   0.015798 0.498456 0.529479 -0.218194
C37   C     C_R   0.507132 0.016924 0.919985 0.685292
C38   C     C_R   0.492868 0.983076 0.080015 0.685292
C39   C     C_R   0.992868 0.516925 0.580015 0.685292
C40   C     C_R   0.007132 0.483075 0.419985 0.685292
C41   C     C_R   0.556361 0.074280 0.926648 0.603388
C42   C     C_R   0.443639 0.925720 0.073352 0.603388
C43   C     C_R   0.943639 0.574281 0.573352 0.603389
C44   C     C_R   0.056361 0.425719 0.426648 0.603389
H1    H     H_    0.649946 0.196804 0.950003 0.230178
H2    H     H_    0.350054 0.803196 0.049997 0.230178
H3    H     H_    0.850054 0.696806 0.549997 0.230178
H4    H     H_    0.149946 0.303194 0.450003 0.230178
C45   C     C_R   0.640210 0.889345 0.385148 -0.181288
C46   C     C_R   0.359790 0.110655 0.614851 -0.181289
C47   C     C_R   0.859790 0.389345 0.114852 -0.181288
C48   C     C_R   0.140210 0.610655 0.885148 -0.181288
C49   C     C_R   0.604102 0.882917 0.421431 0.627372
C50   C     C_R   0.395898 0.117083 0.578569 0.627372
C51   C     C_R   0.895898 0.382917 0.078569 0.627372
C52   C     C_R   0.104102 0.617083 0.921431 0.627372
C53   C     C_R   0.572221 0.034198 0.424665 -0.132318
C54   C     C_R   0.427779 0.965802 0.575335 -0.132318
C55   C     C_R   0.927779 0.534198 0.075335 -0.132318
C56   C     C_R   0.072221 0.465802 0.924665 -0.132318
C57   C     C_R   0.577744 0.195940 0.390815 -0.123402
C58   C     C_R   0.422256 0.804059 0.609185 -0.123402
C59   C     C_R   0.922256 0.695940 0.109185 -0.123402
C60   C     C_R   0.077744 0.304059 0.890815 -0.123403
C61   C     C_R   0.614695 0.204232 0.355472 -0.119738
C62   C     C_R   0.385304 0.795768 0.644528 -0.119738
C63   C     C_R   0.885304 0.704232 0.144528 -0.119738
C64   C     C_R   0.114696 0.295768 0.855472 -0.119738
H5    H     H_    0.617727 0.328890 0.329498 0.151198
H6    H     H_    0.382273 0.671110 0.670502 0.151198
H7    H     H_    0.882273 0.828890 0.170502 0.151198
H8    H     H_    0.117727 0.171110 0.829498 0.151198
C65   C     C_R   0.646514 0.052683 0.351704 -0.145342
C66   C     C_R   0.353486 0.947317 0.648296 -0.145342
C67   C     C_R   0.853486 0.552683 0.148296 -0.145342
C68   C     C_R   0.146514 0.447317 0.851704 -0.145342
N1    N     N_R   0.520877 0.166552 0.493867 -0.240805
N2    N     N_R   0.479123 0.833448 0.506133 -0.240806
N3    N     N_R   0.979123 0.666552 0.006133 -0.240806
N4    N     N_R   0.020877 0.333448 0.993867 -0.240806
N5    N     N_R   0.487704 0.149117 0.529558 -0.160243
N6    N     N_R   0.512296 0.850883 0.470442 -0.160243
N7    N     N_R   0.012296 0.649117 0.970442 -0.160243
N8    N     N_R   0.987704 0.350883 0.029558 -0.160243
C69   C     C_R   0.466151 0.982193 0.536685 0.555486
C70   C     C_R   0.533849 0.017807 0.463315 0.555486
C71   C     C_R   0.033849 0.482192 0.963315 0.555487
C72   C     C_R   0.966151 0.517807 0.036685 0.555487
F1    F     F_    0.575361 0.104725 0.876309 -0.597532
F2    F     F_    0.424639 0.895275 0.123691 -0.597532
F3    F     F_    0.924639 0.604727 0.623691 -0.597533
F4    F     F_    0.075361 0.395273 0.376309 -0.597533
F5    F     F_    0.405742 0.098123 0.863606 -0.622456
F6    F     F_    0.594258 0.901877 0.136394 -0.622456
F7    F     F_    0.094258 0.598124 0.636394 -0.622456
F8    F     F_    0.905742 0.401876 0.363606 -0.622456
F9    F     F_    0.284483 0.787055 0.951876 -0.658043
F10   F     F_    0.715517 0.212944 0.048124 -0.658043
F11   F     F_    0.215517 0.287054 0.548124 -0.658043
F12   F     F_    0.784483 0.712946 0.451876 -0.658043
F13   F     F_    0.484214 0.963852 0.863963 -0.572413
F14   F     F_    0.515786 0.036147 0.136037 -0.572413
F15   F     F_    0.015786 0.463854 0.636037 -0.572414
F16   F     F_    0.984214 0.536146 0.363963 -0.572414
C73   C     C_1   0.669804 0.723400 0.383840 0.510154
N9    N     N_1   0.693009 0.589355 0.382772 -0.284844
C74   C     C_1   0.330196 0.276600 0.616160 0.510154
N10   N     N_1   0.306991 0.410645 0.617228 -0.284843
C75   C     C_1   0.830196 0.223400 0.116160 0.510154
N11   N     N_1   0.806991 0.089354 0.117228 -0.284844
C76   C     C_1   0.169804 0.776600 0.883840 0.510154
N12   N     N_1   0.193009 0.910645 0.882772 -0.284844
F17   F     F_    0.600934 0.727963 0.454999 -0.647643
F18   F     F_    0.399066 0.272037 0.545001 -0.647643
F19   F     F_    0.899066 0.227963 0.045001 -0.647643
F20   F     F_    0.100934 0.772037 0.954999 -0.647643
C77   C     C_1   0.544466 0.352514 0.388963 0.475348
N13   N     N_1   0.517698 0.477829 0.387251 -0.209164
C78   C     C_1   0.455533 0.647486 0.611037 0.475348
N14   N     N_1   0.482302 0.522171 0.612749 -0.209164
C79   C     C_1   0.955534 0.852514 0.111037 0.475348
N15   N     N_1   0.982302 0.977829 0.112749 -0.209164
C80   C     C_1   0.044466 0.147486 0.888963 0.475348
N16   N     N_1   0.017698 0.022171 0.887251 -0.209164

loop_
_geom_bond_atom_site_label_1
_geom_bond_atom_site_label_2
_ccdc_geom_bond_type
C21   F6    S    
O17   V3    S    
C51   F19   S    
C14   H2    S    
O1    C5    A    
C59   C63   A    
O19   V1    S    
C9    C21   A    
O3    C7    A    
C80   N16   T    
C10   C18   A    
O1    V3    S    
C52   C56   A    
O4    V2    S    
O15   V3    S    
C79   N15   T    
C25   C33   A    
C33   C38   A    
C46   C66   A    
C5    C12   S    
O7    C3    A    
C6    C11   S    
C35   C40   A    
C26   C30   A    
C3    C66   S    
C40   C44   A    
O9    V1    S    
C49   F17   S    
C14   C18   A    
C24   C28   A    
C13   H1    S    
N6    C70   A    
O4    C8    A    
C78   N14   T    
C64   H8    S    
O13   V1    S    
O2    V4    S    
O3    V1    S    
C43   F3    S    
C28   C36   A    
C1    O15   A    
C15   C31   A    
C60   C64   A    
C2    O16   A    
C40   F16   S    
O2    C6    A    
C12   C24   A    
C10   C22   A    
C49   C53   A    
C11   C19   A    
C13   C29   A    
C34   C37   A    
O11   C7    A    
C11   C23   A    
C35   C36   A    
O12   C8    A    
C46   C74   S    
C52   F20   S    
C41   F1    S    
O10   V2    S    
C42   F2    S    
C50   F18   S    
C48   C76   S    
C58   C78   S    
C62   H6    S    
C24   F7    S    
O5    V1    S    
N1    N5    A    
C39   C43   A    
C56   C71   S    
O7    V3    S    
C38   C42   A    
C26   C34   A    
C54   C69   S    
C56   C60   A    
C48   C68   A    
C76   N12   T    
C58   C62   A    
C57   C77   S    
C38   F14   S    
C57   C61   A    
O18   V4    S    
C15   C19   A    
C16   C32   A    
N1    C70   A    
C32   C44   A    
C61   H5    S    
C59   C79   S    
N8    C72   A    
C22   F5    S    
C61   C65   A    
N3    C72   A    
O8    V4    S    
C17   F10   S    
C45   C65   A    
O5    C1    A    
C50   C54   A    
C31   C43   A    
C14   C30   A    
C21   C25   A    
O8    C4    A    
C7    C10   S    
C47   C67   A    
O9    C5    A    
C4    C65   S    
C44   F4    S    
O14   V2    S    
C23   F8    S    
O6    V2    S    
C1    C68   S    
C36   C39   A    
C75   N11   T    
C12   C20   A    
C27   C35   A    
C74   N10   T    
N4    N8    A    
C29   C41   A    
C64   C68   A    
N3    N7    A    
C73   N9    T    
O16   V4    S    
N5    C69   A    
C3    O13   A    
C45   C49   A    
C16   H4    S    
N7    C71   A    
C48   C52   A    
C55   C59   A    
O6    C2    A    
N4    C71   A    
C23   C27   A    
C47   C75   S    
O11   V3    S    
C30   C42   A    
O12   V4    S    
C22   C26   A    
C20   F11   S    
C8    C9    S    
C9    C17   A    
O10   C6    A    
O20   V2    S    
C54   C58   A    
C77   N13   T    
C51   C55   A    
C33   C34   A    
C45   C73   S    
C25   C29   A    
C60   C80   S    
N2    N6    A    
C27   C31   A    
C13   C17   A    
C2    C67   S    
C39   F15   S    
C63   H7    S    
C37   C41   A    
C16   C20   A    
C53   C70   S    
C46   C50   A    
C4    O14   A    
C15   H3    S    
C55   C72   S    
N2    C69   A    
C37   F13   S    
C63   C67   A    
C47   C51   A    
C19   F12   S    
C62   C66   A    
C53   C57   A    
C28   C32   A    
C18   F9    S    
