data_mof_unit_5349.cif
_audit_creation_date              2012-12-10T17:11:02-0500
_audit_creation_method            fapswitch 2.2
_symmetry_space_group_name_H-M    P1
_symmetry_Int_Tables_number       1
_space_group_crystal_system       triclinic
_cell_length_a                    11.821065
_cell_length_b                    12.913174
_cell_length_c                    13.351286
_cell_angle_alpha                 94.214974
_cell_angle_beta                  75.687902
_cell_angle_gamma                 99.971939
_cell_volume                      1943.94667934

loop_
_atom_site_label
_atom_site_type_symbol
_atom_type_description
_atom_site_fract_x
_atom_site_fract_y
_atom_site_fract_z
_atom_type_partial_charge
C1    C     C_R   0.520567 0.700089 0.502511 0.791657
C2    C     C_R   0.445926 0.508602 0.979424 0.088486
C3    C     C_R   0.470581 0.537282 0.875187 -0.012243
C4    C     C_R   0.533685 0.538553 0.036492 0.044487
C5    C     C_R   0.637443 0.610699 0.995469 0.023744
C6    C     C_R   0.651299 0.653285 0.897818 0.316385
C7    C     C_R   0.569138 0.615316 0.838803 -0.217146
C8    C     C_R   0.521215 0.496340 0.133195 -0.186115
C9    C     C_R   0.704470 0.600363 0.153213 -0.190759
C10   C     C_R   0.394738 0.488561 0.810859 -0.201103
C11   C     C_R   0.474244 0.187228 0.484264 -0.010795
C12   C     C_R   0.435559 0.495629 0.696639 0.802564
C13   C     C_R   0.529566 0.813231 0.509393 -0.099624
C14   C     C_R   0.529062 0.968209 0.623269 0.433686
C15   C     C_R   0.540605 0.862870 0.603557 -0.269124
C16   C     C_R   0.512133 0.868710 0.429149 0.107637
C17   C     C_R   0.499105 0.975427 0.447861 0.106013
C18   C     C_R   0.507032 0.025377 0.545540 -0.010858
C19   C     C_R   0.494056 0.131610 0.561959 -0.070898
C20   C     C_R   0.467431 0.138823 0.388895 -0.114101
C21   C     C_R   0.478166 0.033723 0.370989 -0.140808
C22   C     C_R   0.959786 0.630022 0.553468 -0.227057
C23   C     C_R   0.479901 0.299807 0.496802 0.858372
C24   C     C_R   0.837784 0.612019 0.554901 0.020763
C25   C     C_R   0.851755 0.438972 0.484379 0.580415
C26   C     C_R   0.968108 0.449437 0.501646 -0.211141
C27   C     C_R   0.027419 0.548662 0.523728 -0.046163
C28   C     C_R   0.151848 0.561760 0.517546 -0.002680
C29   C     C_R   0.153990 0.383812 0.459508 0.530507
C30   C     C_R   0.030376 0.364490 0.491355 0.313756
C31   C     C_R   0.564179 0.508092 0.304211 0.818097
C32   C     C_R   0.723174 0.638936 0.054397 -0.097620
C33   C     C_R   0.601607 0.530699 0.193753 -0.051843
C34   C     C_R   0.285657 0.424652 0.857231 0.406347
C35   C     C_R   0.254639 0.412912 0.963843 -0.145778
C36   C     C_R   0.333363 0.452283 0.023792 -0.226713
Cu1   Cu    Cu3+1 0.386470 0.492430 0.492410 1.070411
Cu2   Cu    Cu3+1 0.613530 0.507570 0.507590 1.028215
H1    H     H_    0.767729 0.628506 0.199440 0.172548
H2    H     H_    0.457971 0.183229 0.326701 0.184053
H3    H     H_    0.471669 0.999809 0.295756 0.160841
H4    H     H_    0.553084 0.817079 0.663660 0.206828
H5    H     H_    0.196687 0.636647 0.540461 0.165297
H6    H     H_    0.000391 0.706951 0.576303 0.194759
H7    H     H_    0.787836 0.675512 0.580104 0.195040
H8    H     H_    0.804006 0.692612 0.026305 0.220572
H9    H     H_    0.448161 0.436514 0.164181 0.192012
H10   H     H_    0.302184 0.439165 0.105571 0.182803
H11   H     H_    0.170203 0.368709 0.001416 0.219133
H12   H     H_    0.581022 0.650051 0.765029 0.184663
H13   H     H_    0.502346 0.173667 0.633487 0.200497
N1    N     N_R   0.215880 0.481050 0.481000 -0.255730
N2    N     N_R   0.784100 0.518950 0.519000 -0.242721
O1    O     O_R   0.419710 0.645650 0.494620 -0.593709
O2    O     O_R   0.611450 0.658430 0.507430 -0.602353
O3    O     O_R   0.357340 0.490460 0.641450 -0.513478
O4    O     O_R   0.549080 0.503250 0.654260 -0.590223
O5    O     O_R   0.388550 0.341570 0.492570 -0.488273
O6    O     O_R   0.580290 0.354350 0.505380 -0.530636
O7    O     O_R   0.450920 0.496750 0.345740 -0.553168
O8    O     O_R   0.642660 0.509540 0.358550 -0.526355
S1    S     S_3+6 0.537457 0.023127 0.747562 0.045110
O9    O     O_2   0.639125 0.112615 0.736366 -0.222410
O10   O     O_2   0.424392 0.063628 0.798159 -0.269386
O11   O     O_3   0.557946 0.932282 0.822647 -0.490017
H14   H     H_    0.567391 0.970895 0.887728 0.395970
C37   C     C_3   0.508838 0.815234 0.324308 -0.805072
H15   H     H_    0.528495 0.733884 0.317272 0.218655
H16   H     H_    0.419974 0.812183 0.309387 0.236594
H17   H     H_    0.576935 0.859504 0.262747 0.240910
S2    S     S_3+6 0.216610 0.283178 0.375972 0.050466
O12   O     O_2   0.336300 0.321507 0.309644 -0.358918
O13   O     O_2   0.223237 0.193987 0.439396 -0.243955
O14   O     O_3   0.129061 0.235416 0.296062 -0.469235
H18   H     H_    0.163310 0.174562 0.258887 0.383633
S3    S     S_3+6 0.961914 0.244549 0.553855 0.132114
O15   O     O_2   0.845656 0.258324 0.626364 -0.239038
O16   O     O_2   0.942996 0.157596 0.475588 -0.164464
O17   O     O_3   0.049967 0.210390 0.622826 -0.450911
H19   H     H_    0.008289 0.142380 0.653084 0.391818
S4    S     S_3+6 0.770188 0.753927 0.846567 0.022879
O18   O     O_2   0.756175 0.793898 0.748132 -0.277739
O19   O     O_2   0.773618 0.843958 0.924350 -0.226481
O20   O     O_3   0.898519 0.706714 0.822881 -0.501266
H20   H     H_    0.884037 0.638603 0.785223 0.343650
S5    S     S_3+6 0.813768 0.331544 0.397097 0.071041
O21   O     O_2   0.925159 0.302475 0.327931 -0.240555
O22   O     O_2   0.748420 0.237275 0.458290 -0.241344
O23   O     O_3   0.733981 0.354565 0.316281 -0.522393
H21   H     H_    0.711558 0.285271 0.283367 0.360310
S6    S     S_3+6 0.187447 0.351390 0.787016 0.057519
O24   O     O_2   0.130318 0.425515 0.741142 -0.278542
O25   O     O_2   0.254982 0.286908 0.702228 -0.241852
O26   O     O_3   0.081280 0.269769 0.865357 -0.501138
H22   H     H_    0.014087 0.256144 0.831677 0.402673

loop_
_geom_bond_atom_site_label_1
_geom_bond_atom_site_label_2
_ccdc_geom_bond_type
C23   O5    A    
C31   O8    A    
C35   C36   A    
S3    O17   S    
C4    C8    A    
S4    O18   D    
C23   O6    A    
C11   C19   A    
C26   C27   A    
S1    O9    D    
C24   H7    S    
Cu1   Cu2   S    
S3    O16   D    
C18   C19   A    
C3    C7    A    
C5    C6    A    
C20   H2    S    
S5    O22   D    
C14   S1    S    
C9    H1    S    
C34   C35   A    
C14   C18   A    
C34   S6    S    
S1    O10   D    
C9    C32   A    
Cu1   O3    S    
C22   H6    S    
Cu2   O2    S    
C16   C17   A    
C35   H11   S    
C31   C33   S    
Cu1   O5    S    
Cu2   O8    S    
C6    S4    S    
C9    C33   A    
S4    O19   D    
C11   C20   A    
O14   H18   S    
C37   H15   S    
S3    O15   D    
C7    H12   S    
S6    O24   D    
S2    O13   D    
Cu1   N1    S    
S5    O21   D    
C24   N2    A    
C17   C21   A    
O17   H19   S    
C37   H16   S    
C31   O7    A    
C2    C4    A    
C1    O1    A    
C29   C30   A    
S6    O25   D    
Cu2   O4    S    
C30   S3    S    
C17   C18   A    
C10   C34   A    
C16   C37   S    
O20   H20   S    
C12   O3    A    
C10   C12   S    
C21   H3    S    
Cu1   O1    S    
C26   C30   A    
C22   C27   A    
C13   C15   A    
C22   C24   A    
C1    C13   S    
C12   O4    A    
S4    O20   S    
C2    C36   A    
S1    O11   S    
C32   H8    S    
C15   H4    S    
C25   N2    A    
C4    C5    A    
S5    O23   S    
S2    O14   S    
C6    C7    A    
C28   H5    S    
C37   H17   S    
C5    C32   A    
C2    C3    A    
C1    O2    A    
C8    H9    S    
S2    O12   D    
C3    C10   A    
C25   C26   A    
S6    O26   S    
C28   N1    A    
Cu2   N2    S    
C11   C23   S    
C25   S5    S    
C36   H10   S    
C8    C33   A    
O26   H22   S    
Cu1   O7    S    
Cu2   O6    S    
C19   H13   S    
C20   C21   A    
O11   H14   S    
C13   C16   A    
C27   C28   A    
C14   C15   A    
O23   H21   S    
C29   S2    S    
C29   N1    A    
