data_mof_unit_31229.cif
_audit_creation_date              2013-03-05T16:27:22-0500
_audit_creation_method            fapswitch 2.2
_symmetry_space_group_name_H-M    P1
_symmetry_Int_Tables_number       1
_space_group_crystal_system       triclinic
_cell_length_a                    18.250078
_cell_length_b                    18.331491
_cell_length_c                    18.358324
_cell_angle_alpha                 119.860407
_cell_angle_beta                  90.070632
_cell_angle_gamma                 120.07395
_cell_volume                      4344.52121203

loop_
_atom_site_label
_atom_site_type_symbol
_atom_site_description
_atom_site_fract_x
_atom_site_fract_y
_atom_site_fract_z
_atom_type_partial_charge
Zn1   Zn    Zn3+2 0.457010 0.413240 0.543760 1.138117
Zn2   Zn    Zn3+2 0.456230 0.586760 0.542990 1.063142
Zn3   Zn    Zn3+2 0.456230 0.413270 0.369490 1.057643
Zn4   Zn    Zn3+2 0.630520 0.586730 0.543760 1.126737
O1    O     O_3   0.500000 0.500000 0.500000 -0.541178
O2    O     O_R   0.676800 0.731580 0.616070 -0.590745
O3    O     O_R   0.384470 0.268410 0.445190 -0.594277
O4    O     O_R   0.383920 0.560720 0.615530 -0.634614
O5    O     O_R   0.554810 0.439290 0.323210 -0.633987
O6    O     O_R   0.383160 0.560750 0.443890 -0.640748
O7    O     O_R   0.677560 0.560680 0.616830 -0.589798
O8    O     O_R   0.383160 0.439320 0.322450 -0.631924
O9    O     O_R   0.556120 0.439250 0.616830 -0.604321
O10   O     O_R   0.384470 0.439280 0.616070 -0.578736
O11   O     O_R   0.676800 0.560710 0.445190 -0.636211
O12   O     O_R   0.554810 0.731590 0.615530 -0.643856
O13   O     O_R   0.383920 0.268420 0.323210 -0.630417
C1    C     C_R   0.640402 0.779921 0.641040 0.886232
C2    C     C_R   0.360083 0.220118 0.360450 0.891652
C3    C     C_R   0.358282 0.498454 0.638143 1.031926
C4    C     C_R   0.640143 0.500387 0.360470 0.851878
C5    C     C_R   0.361346 0.502208 0.359209 0.835727
C6    C     C_R   0.641270 0.500574 0.641675 0.928232
C7    C     C_3   0.799189 0.580539 0.719165 -0.384501
H1    H     H_    0.815454 0.658959 0.752453 0.284264
H2    H     H_    0.809256 0.563414 0.654290 0.247835
C8    C     C_3   0.863020 0.577701 0.772547 -0.222420
H3    H     H_    0.801482 0.632472 0.908342 0.206866
C9    C     C_3   0.680675 0.540081 0.796181 0.079147
C10   C     C_3   0.680480 0.396623 0.656017 -0.414681
C11   C     C_3   0.698735 0.504889 0.703432 -0.218159
H4    H     H_    0.607674 0.333860 0.628029 0.271115
H5    H     H_    0.703533 0.381016 0.597440 0.282455
C12   C     C_3   0.802673 0.505431 0.804615 -0.298697
C13   C     C_3   0.750031 0.549867 0.858695 0.053308
C14   C     C_3   0.729085 0.392493 0.721176 0.235374
H6    H     H_    0.678260 0.354480 0.745856 0.221050
C15   C     C_R   0.304343 0.052969 0.337436 -0.065892
C16   C     C_R   0.301845 0.108269 0.306299 -0.044126
C17   C     C_R   0.240321 0.053875 0.222306 -0.165858
H7    H     H_    0.234256 0.094599 0.198320 0.179195
C18   C     C_R   0.187419 0.946191 0.167621 -0.129708
H8    H     H_    0.140738 0.905713 0.102912 0.196253
C19   C     C_R   0.196326 0.891684 0.195797 -0.087086
C20   C     C_R   0.254118 0.946094 0.281179 0.004791
C21   C     C_3   0.330333 0.943976 0.307793 0.122677
C22   C     C_3   0.382550 0.061358 0.378116 0.508212
H9    H     H_    0.358435 0.923791 0.252838 0.099458
C23   C     C_R   0.783304 0.587091 0.334817 0.038167
C24   C     C_R   0.694818 0.502877 0.304021 -0.046469
C25   C     C_R   0.655671 0.421448 0.213522 -0.185405
H10   H     H_    0.585583 0.357239 0.187051 0.194174
C26   C     C_R   0.706537 0.418491 0.156845 -0.082753
C27   C     C_R   0.799979 0.499918 0.192076 -0.135037
C28   C     C_R   0.834263 0.585794 0.279885 0.112934
C29   C     C_3   0.920117 0.651472 0.354754 -0.377669
C30   C     C_3   0.862941 0.653821 0.417258 -0.248030
H11   H     H_    0.949294 0.608424 0.347380 0.178097
C31   C     C_R   0.786658 0.947420 0.752157 0.079292
C32   C     C_R   0.695813 0.890989 0.704310 -0.109936
C33   C     C_R   0.654942 0.942817 0.723915 -0.203548
H12   H     H_    0.583109 0.899929 0.693445 0.199100
C34   C     C_R   0.705586 0.050057 0.779661 -0.043561
C35   C     C_R   0.801000 0.107765 0.814941 -0.170091
C36   C     C_R   0.838212 0.053759 0.805428 0.023624
C37   C     C_3   0.921639 0.064406 0.786351 0.181394
C38   C     C_3   0.863486 0.945160 0.724958 0.119500
H13   H     H_    0.943371 0.099028 0.748360 0.144033
H14   H     H_    0.851711 0.914634 0.653340 0.097863
C39   C     C_R   0.265796 0.550982 0.337109 0.071673
C40   C     C_R   0.316830 0.513496 0.304457 -0.128283
C41   C     C_R   0.327988 0.494080 0.221491 -0.115246
C42   C     C_R   0.273823 0.494767 0.166630 -0.137297
C43   C     C_R   0.209911 0.514444 0.196617 -0.095126
C44   C     C_R   0.214245 0.552386 0.284700 0.167936
C45   C     C_3   0.142085 0.530267 0.325693 -0.521218
C46   C     C_3   0.199581 0.528771 0.384701 -0.236479
H15   H     H_    0.137194 0.596572 0.363498 0.219133
H16   H     H_    0.077122 0.454859 0.277208 0.218054
H17   H     H_    0.226972 0.594007 0.456130 0.193497
C47   C     C_R   0.293808 0.575422 0.741740 -0.008630
C48   C     C_R   0.290925 0.488302 0.681773 -0.205539
C49   C     C_R   0.217421 0.391570 0.660089 0.304582
C50   C     C_R   0.167830 0.390266 0.720618 0.247979
C51   C     C_R   0.182640 0.485807 0.790430 -0.238653
C52   C     C_R   0.238368 0.573071 0.791640 0.012032
C53   C     C_3   0.305690 0.683637 0.867265 -0.347866
C54   C     C_3   0.367454 0.686676 0.810749 0.156176
H18   H     H_    0.329757 0.692392 0.928737 0.164417
H19   H     H_    0.380259 0.736352 0.787587 0.146943
Zn5   Zn    Zn3+2 0.042950 0.586670 0.956190 1.104325
Zn6   Zn    Zn3+2 0.043720 0.586650 0.130470 1.044359
Zn7   Zn    Zn3+2 0.043720 0.413150 0.956960 1.126867
Zn8   Zn    Zn3+2 0.869430 0.413180 0.956190 1.138015
O14   O     O_3   0.999960 0.499910 0.999960 -0.553613
O15   O     O_R   0.823160 0.439210 0.054770 -0.598090
O16   O     O_R   0.115490 0.560640 0.883890 -0.614711
O17   O     O_R   0.116030 0.731490 0.176740 -0.583598
O18   O     O_R   0.945140 0.268320 0.884430 -0.579709
O19   O     O_R   0.116800 0.560590 0.177500 -0.624512
O20   O     O_R   0.822390 0.439230 0.883130 -0.555137
O21   O     O_R   0.116800 0.439160 0.056060 -0.605132
O22   O     O_R   0.943840 0.560660 0.883130 -0.604291
O23   O     O_R   0.115490 0.731510 0.054770 -0.621486
O24   O     O_R   0.823160 0.268340 0.883890 -0.612087
O25   O     O_R   0.945140 0.560620 0.176740 -0.643358
O26   O     O_R   0.116030 0.439190 0.884430 -0.563152
C55   C     C_R   0.859091 0.498569 0.139213 0.810567
C56   C     C_R   0.137077 0.496502 0.856885 0.886166
C57   C     C_R   0.141154 0.779816 0.139786 0.853050
C58   C     C_R   0.859238 0.219593 0.861360 0.850765
C59   C     C_R   0.143080 0.502100 0.140644 0.856958
C60   C     C_R   0.858968 0.502383 0.860856 0.986606
C61   C     C_2   0.581592 0.461465 0.779940 1.031010
O27   O     O_2   0.528269 0.484607 0.788883 -0.490327
O28   O     O_R   0.550145 0.361843 0.752567 -0.772794
H20   H     H_    0.484012 0.318333 0.744058 0.387440
S1    S     S_3+6 0.707836 0.514509 0.934169 0.071367
O29   O     O_2   0.648073 0.548615 0.967524 -0.223301
O30   O     O_2   0.656157 0.400341 0.889932 -0.201398
O31   O     O_3   0.795608 0.576146 0.022589 -0.555668
H21   H     H_    0.768640 0.565666 0.066253 0.390818
S2    S     S_3+6 0.300514 0.857358 0.339901 0.116843
O32   O     O_2   0.278398 0.757560 0.259639 -0.308438
O33   O     O_2   0.377661 0.898978 0.412711 -0.178817
O34   O     O_3   0.210133 0.834810 0.372793 -0.453734
H22   H     H_    0.189322 0.773797 0.373370 0.377190
S3    S     S_3+6 0.397477 0.107855 0.493844 0.149745
O35   O     O_2   0.311802 0.042519 0.503982 -0.208946
O36   O     O_2   0.470137 0.106185 0.529963 -0.159916
O37   O     O_3   0.428669 0.230106 0.555042 -0.516566
H23   H     H_    0.375592 0.226665 0.570560 0.392999
S4    S     S_3+6 0.486307 0.132802 0.363182 0.062097
O38   O     O_2   0.534366 0.246504 0.432590 -0.278695
O39   O     O_2   0.545716 0.101492 0.372804 -0.219348
O40   O     O_3   0.466273 0.109162 0.261600 -0.553446
H24   H     H_    0.461642 0.044764 0.220908 0.375828
C62   C     C_2   0.658742 0.324336 0.064661 0.988387
O41   O     O_2   0.648359 0.329685 0.002147 -0.501815
O42   O     O_R   0.617740 0.228306 0.050707 -0.757034
H25   H     H_    0.579657 0.168613 0.986299 0.381999
C63   C     C_2   0.987567 0.752773 0.367856 1.022745
O43   O     O_2   0.057956 0.816436 0.430542 -0.510652
O44   O     O_R   0.970803 0.773109 0.308077 -0.763696
H26   H     H_    0.022046 0.842932 0.323788 0.367520
C64   C     C_2   0.859962 0.598408 0.458277 0.956510
O45   O     O_2   0.875859 0.640210 0.538611 -0.532034
O46   O     O_R   0.838513 0.498657 0.403755 -0.788986
H27   H     H_    0.838123 0.469553 0.438543 0.370800
C65   C     C_2   0.880911 0.758442 0.483807 0.984762
O47   O     O_2   0.824495 0.774211 0.476564 -0.613998
O48   O     O_R   0.962694 0.836921 0.553933 -0.678891
H28   H     H_    0.968789 0.904237 0.592006 0.367260
C66   C     C_2   0.654573 0.095529 0.794164 0.999471
O49   O     O_2   0.658751 0.152202 0.869616 -0.582066
O50   O     O_R   0.596836 0.067645 0.720871 -0.728488
H29   H     H_    0.564452 0.102238 0.739034 0.385689
S5    S     S_3+6 0.010579 0.132989 0.887321 0.139215
O51   O     O_2   0.069672 0.095768 0.869623 -0.188703
O52   O     O_2   0.068344 0.245324 0.924078 -0.201475
O53   O     O_3   0.967156 0.120050 0.964304 -0.500557
H30   H     H_    0.019773 0.164828 0.018550 0.385275
C67   C     C_2   0.910730 0.536029 0.712971 1.041481
O54   O     O_2   0.986102 0.564256 0.746063 -0.550590
O55   O     O_R   0.869998 0.467232 0.620249 -0.766961
H31   H     H_    0.908847 0.446464 0.589205 0.378721
S6    S     S_3+6 0.890877 0.878233 0.752870 0.150967
O56   O     O_2   0.821174 0.764297 0.690782 -0.214065
O57   O     O_2   0.979466 0.899154 0.741880 -0.199114
O58   O     O_3   0.895052 0.914790 0.857712 -0.418412
H32   H     H_    0.943364 0.913505 0.880392 0.397346
C68   C     C_2   0.398127 0.478196 0.194670 0.987963
O59   O     O_2   0.477393 0.548987 0.237551 -0.604310
O60   O     O_R   0.373504 0.381639 0.122729 -0.710570
H33   H     H_    0.427407 0.380242 0.111974 0.359843
C69   C     C_2   0.286768 0.480650 0.081680 1.012203
O61   O     O_2   0.286743 0.406960 0.026038 -0.518695
O62   O     O_R   0.297426 0.551399 0.064999 -0.783715
H34   H     H_    0.304300 0.533109 0.004643 0.340277
C70   C     C_2   0.156450 0.425360 0.369903 0.968637
O63   O     O_2   0.125804 0.347021 0.294782 -0.606673
O64   O     O_R   0.151562 0.419947 0.443174 -0.757148
H35   H     H_    0.119845 0.346750 0.425420 0.383087
S7    S     S_3+6 0.181957 0.277455 0.553269 0.084998
O65   O     O_2   0.213880 0.220573 0.563278 -0.245144
O66   O     O_2   0.081200 0.209632 0.513803 -0.208436
O67   O     O_3   0.223077 0.305029 0.481631 -0.612244
H36   H     H_    0.201257 0.237456 0.425906 0.367818
S8    S     S_3+6 0.096982 0.275874 0.717218 0.109237
O68   O     O_2   0.007180 0.257861 0.718283 -0.265010
O69   O     O_2   0.081618 0.179560 0.638371 -0.177932
O70   O     O_3   0.145477 0.294973 0.808669 -0.462646
H37   H     H_    0.206054 0.312569 0.806793 0.366133
C71   C     C_2   0.273420 0.749667 0.882503 1.017667
O71   O     O_2   0.280607 0.809999 0.958165 -0.595606
O72   O     O_R   0.234707 0.741394 0.810563 -0.753244
H38   H     H_    0.215043 0.789156 0.829645 0.370239
C72   C     C_2   0.937401 0.691303 0.847670 0.966541
O73   O     O_2   0.953174 0.723889 0.926399 -0.623246
O74   O     O_R   0.989133 0.758849 0.824447 -0.741239
H39   H     H_    0.036127 0.831480 0.878263 0.359460
S9    S     S_3+6 0.467674 0.707920 0.858815 0.088319
O75   O     O_2   0.527842 0.721472 0.804086 -0.225257
O76   O     O_2   0.515908 0.804304 0.952259 -0.218472
O77   O     O_3   0.443381 0.607327 0.860387 -0.465737
H40   H     H_    0.408104 0.606118 0.901229 0.346334
S10   S     S_3+6 0.700294 0.667393 0.851997 0.102392
O78   O     O_2   0.655685 0.672952 0.787965 -0.216340
O79   O     O_2   0.661259 0.685108 0.926235 -0.160655
O80   O     O_3   0.810486 0.764000 0.896184 -0.551370
H41   H     H_    0.825940 0.798540 0.961454 0.393381
S11   S     S_3+6 0.760338 0.303314 0.664644 0.072684
O81   O     O_2   0.859109 0.353973 0.700769 -0.317238
O82   O     O_2   0.709971 0.218655 0.677873 -0.236465
O83   O     O_3   0.731127 0.249731 0.554510 -0.459411
H42   H     H_    0.743960 0.197124 0.528807 0.411124

loop_
_geom_bond_atom_site_label_1
_geom_bond_atom_site_label_2
_geom_bond_distance
_ccdc_geom_bond_type
C71   O72   1.399028 S    
C9    C61   1.547471 S    
Zn8   O24   1.940464 S    
O34   H22   0.990641 S    
O17   C57   1.283514 A    
C3    C48   1.452193 S    
O20   C60   1.284750 A    
C42   C43   1.420976 A    
O21   C59   1.277491 A    
C67   O54   1.224945 D    
C7    C8    1.558469 S    
C37   S5    1.810522 S    
Zn5   O23   1.940084 S    
C53   C54   1.532212 S    
S3    O35   1.503239 D    
O53   H30   0.990603 S    
Zn6   O17   1.937129 S    
C22   S3    1.810294 S    
S6    O57   1.502706 D    
O55   H31   1.013847 S    
C20   C21   1.498752 S    
O6    C5    1.279039 A    
C12   C60   1.495682 S    
O4    C3    1.277192 A    
S9    O76   1.502941 D    
Zn1   O1    1.952868 S    
C41   C68   1.482601 S    
O50   H29   1.013982 S    
C67   O55   1.400083 S    
C45   H15   1.111714 S    
C51   C56   1.464924 S    
C43   C59   1.443421 S    
C10   C11   1.556917 S    
S2    O33   1.501444 D    
O58   H32   0.990427 S    
C2    C16   1.451029 S    
C38   S6    1.804908 S    
O8    C5    1.276255 A    
C23   C30   1.506148 S    
S7    O65   1.503283 D    
O9    C6    1.274163 A    
C33   C34   1.392663 A    
C12   C13   1.598004 S    
C21   C22   1.542910 S    
O7    C6    1.276914 A    
S8    O69   1.499696 D    
O60   H33   1.013951 S    
C15   C20   1.388580 A    
Zn3   O8    1.948888 S    
S5    O53   1.682195 S    
C8    C67   1.541076 S    
S1    O29   1.503103 D    
O80   H41   0.990415 S    
C63   O43   1.221891 D    
C31   C36   1.379420 A    
Zn8   O20   1.951881 S    
C70   O64   1.396965 S    
O74   H39   1.013880 S    
S9    O77   1.682684 S    
S10   O80   1.683620 S    
C45   H16   1.112826 S    
Zn3   O13   1.937233 S    
C39   C40   1.389838 A    
C10   H4    1.109381 S    
Zn2   O12   1.935245 S    
Zn7   O18   1.935243 S    
C66   O50   1.397811 S    
C47   C52   1.364796 A    
C41   C42   1.419268 A    
C29   C63   1.511636 S    
C33   H12   1.084851 S    
C69   O62   1.398739 S    
C71   O71   1.222376 D    
O15   C55   1.272740 A    
C31   C32   1.401107 A    
Zn7   O14   1.953155 S    
C30   C64   1.519315 S    
C22   S4    1.802590 S    
C39   C46   1.501050 S    
S5    O52   1.498700 D    
O26   C56   1.277537 A    
Zn8   O14   1.943059 S    
C8    C72   1.543932 S    
C18   C19   1.403426 A    
C4    C24   1.440712 S    
Zn5   O16   1.936187 S    
C68   O60   1.397411 S    
C61   O27   1.224234 D    
S6    O58   1.680329 S    
C64   O46   1.399255 S    
C45   C46   1.526730 S    
C8    C12   1.621901 S    
O42   H25   1.012876 S    
O2    C1    1.273915 A    
C21   H9    1.112443 S    
C46   C70   1.509350 S    
O31   H21   0.990573 S    
S9    O75   1.501615 D    
C25   H10   1.085199 S    
O62   H34   1.014118 S    
S2    O32   1.501708 D    
C7    H1    1.106902 S    
H3    C13   1.097228 S    
Zn4   O2    1.940564 S    
C43   C44   1.389062 A    
Zn5   O22   1.946999 S    
S6    O56   1.497565 D    
C52   C53   1.497688 S    
Zn4   O1    1.942909 S    
C35   C58   1.460396 S    
Zn3   O1    1.958474 S    
C51   C52   1.388457 A    
Zn6   O14   1.958474 S    
C47   C48   1.389299 A    
S10   O78   1.501698 D    
C32   C33   1.399627 A    
C38   H14   1.110914 S    
S1    O31   1.682495 S    
C6    C11   1.488672 S    
S8    O70   1.680782 S    
C44   C45   1.495387 S    
Zn3   O5    1.932192 S    
O10   C3    1.285160 A    
S4    O40   1.683451 S    
S4    O38   1.502558 D    
O16   C56   1.291368 A    
C31   C38   1.502125 S    
S7    O66   1.503476 D    
C49   C50   1.435872 A    
S11   O83   1.682822 S    
O18   C58   1.285753 A    
C30   C65   1.521117 S    
C28   C29   1.499977 S    
C24   C25   1.399143 A    
C66   O49   1.221143 D    
C50   S8    1.795837 S    
C50   C51   1.439653 A    
Zn4   O7    1.952030 S    
Zn8   O15   1.940022 S    
C15   C22   1.510490 S    
C72   O73   1.222940 D    
C62   O42   1.398109 S    
C14   S11   1.822473 S    
C1    C32   1.447705 S    
C69   O61   1.222123 D    
S11   O82   1.502842 D    
C23   C24   1.393122 A    
O3    C2    1.278257 A    
C26   C62   1.477422 S    
C53   H18   1.113564 S    
S5    O51   1.500579 D    
C65   O48   1.397755 S    
C21   S2    1.797670 S    
Zn2   O1    1.953303 S    
Zn1   O9    1.947102 S    
C18   H8    1.083411 S    
O37   H23   0.990338 S    
Zn2   O6    1.951544 S    
S3    O37   1.679666 S    
C5    C40   1.444590 S    
C16   C17   1.405420 A    
C68   O59   1.222647 D    
Zn6   O19   1.949075 S    
S4    O39   1.503454 D    
C64   O45   1.223597 D    
C46   H17   1.112314 S    
Zn6   O25   1.932088 S    
C29   C30   1.551171 S    
O77   H40   0.990253 S    
C27   C28   1.397018 A    
C17   H7    1.083286 S    
C10   H5    1.109354 S    
O22   C60   1.269913 A    
Zn1   O3    1.939934 S    
Zn2   O4    1.936189 S    
C19   C20   1.396053 A    
C7    H2    1.112128 S    
C34   C66   1.479814 S    
C54   H19   1.112299 S    
O72   H38   1.013851 S    
S2    O34   1.680438 S    
S3    O36   1.502579 D    
Zn7   O21   1.951645 S    
C61   O28   1.397128 S    
C26   C27   1.428029 A    
C37   H13   1.111624 S    
C10   C14   1.542190 S    
C53   C71   1.505943 S    
C9    C13   1.585951 S    
C9    S10   1.845310 S    
S7    O67   1.683019 S    
C27   C55   1.453167 S    
O44   H26   1.013958 S    
C54   S9    1.793215 S    
O70   H37   0.990541 S    
C42   C69   1.488369 S    
C72   O74   1.400471 S    
C7    C11   1.555424 S    
C40   C41   1.421829 A    
C9    C11   1.595221 S    
C23   C28   1.372242 A    
C35   C36   1.404918 A    
O23   C57   1.282862 A    
O5    C4    1.278276 A    
O19   C59   1.277205 A    
C15   C16   1.407047 A    
O25   C55   1.288931 A    
C14   H6    1.104032 S    
Zn4   O11   1.939976 S    
O28   H20   1.013861 S    
C17   C18   1.396727 A    
O13   C2    1.287696 A    
C12   C14   1.576903 S    
C29   H11   1.113360 S    
C49   S7    1.787612 S    
C37   C38   1.547149 S    
C63   O44   1.399222 S    
O46   H27   1.013932 S    
C36   C37   1.500153 S    
O83   H42   0.990465 S    
O24   C58   1.274932 A    
S8    O68   1.503167 D    
S1    O30   1.502177 D    
C47   C54   1.498851 S    
C62   O41   1.221776 D    
Zn5   O14   1.953016 S    
C34   C35   1.428120 A    
O11   C4    1.277791 A    
O48   H28   1.013432 S    
O12   C1    1.281529 A    
C48   C49   1.419189 A    
C39   C44   1.363150 A    
S10   O79   1.504644 D    
C65   O47   1.223743 D    
O40   H24   0.990192 S    
C13   S1    1.824719 S    
O67   H36   0.991116 S    
Zn1   O10   1.936335 S    
C25   C26   1.394279 A    
Zn7   O26   1.936040 S    
C70   O63   1.223930 D    
O64   H35   1.013583 S    
S11   O81   1.502531 D    
C19   C57   1.450789 S    
