data_mof_unit_17056.cif
_audit_creation_date              2012-12-10T18:18:17-0500
_audit_creation_method            fapswitch 2.2
_symmetry_space_group_name_H-M    P1
_symmetry_Int_Tables_number       1
_space_group_crystal_system       triclinic
_cell_length_a                    14.190477
_cell_length_b                    14.964076
_cell_length_c                    15.336033
_cell_angle_alpha                 88.868759
_cell_angle_beta                  66.581632
_cell_angle_gamma                 89.392652
_cell_volume                      2987.71818511

loop_
_atom_site_label
_atom_site_type_symbol
_atom_type_description
_atom_site_fract_x
_atom_site_fract_y
_atom_site_fract_z
_atom_type_partial_charge
C1    C     C_R   0.500413 0.673147 0.498620 0.932329
C2    C     C_R   0.501954 0.769013 0.496862 -0.071759
C3    C     C_R   0.454593 0.187575 0.447160 -0.195235
C4    C     C_R   0.549935 0.813056 0.547459 -0.151464
C5    C     C_R   0.455373 0.095053 0.445327 0.111903
C6    C     C_R   0.549517 0.905486 0.548878 0.092902
C7    C     C_R   0.501565 0.046714 0.497979 0.060593
C8    C     C_R   0.502850 0.953729 0.496622 0.061406
C9    C     C_R   0.545956 0.091396 0.552462 0.119901
C10   C     C_R   0.457722 0.908932 0.442828 0.124926
C11   C     C_R   0.411344 0.050208 0.391579 -0.179596
C12   C     C_R   0.500028 0.326945 0.500489 0.867212
C13   C     C_R   0.594010 0.950272 0.602261 -0.181506
C14   C     C_R   0.412616 0.957284 0.390249 -0.202809
C15   C     C_R   0.591776 0.043101 0.604433 -0.200212
C16   C     C_R   0.434911 0.501570 0.676730 0.955145
C17   C     C_R   0.565023 0.497556 0.323463 0.853574
C18   C     C_R   0.178849 0.437881 0.554368 0.024952
C19   C     C_R   0.820967 0.562376 0.445973 0.032186
C20   C     C_R   0.224767 0.559501 0.443152 0.049394
C21   C     C_R   0.775570 0.439775 0.556021 0.052066
C22   C     C_R   0.125240 0.560099 0.441355 -0.039267
C23   C     C_R   0.385528 0.465079 0.108974 -0.192591
C24   C     C_R   0.874765 0.439761 0.558516 -0.046046
C25   C     C_R   0.050589 0.499553 0.499670 0.068879
C26   C     C_R   0.949216 0.500701 0.500668 0.069928
C27   C     C_R   0.077030 0.437957 0.557034 0.006532
C28   C     C_R   0.922740 0.562363 0.443379 0.005919
C29   C     C_R   0.098234 0.620084 0.382973 -0.200903
C30   C     C_R   0.901654 0.379949 0.617104 -0.206883
C31   C     C_R   0.999568 0.620807 0.383520 -0.125203
C32   C     C_R   0.000152 0.379566 0.616956 -0.118934
C33   C     C_R   0.391763 0.502639 0.780640 -0.050018
C34   C     C_R   0.617938 0.511061 0.889798 -0.298991
C35   C     C_R   0.608193 0.492211 0.220003 -0.129915
C36   C     C_R   0.268573 0.446898 0.931674 -0.098551
C37   C     C_R   0.733131 0.539732 0.066316 -0.117999
C38   C     C_R   0.299669 0.458448 0.833758 -0.259019
C39   C     C_R   0.700318 0.535289 0.164851 -0.212642
C40   C     C_R   0.449980 0.538002 0.827233 -0.017832
C41   C     C_R   0.552161 0.450007 0.175344 -0.030976
C42   C     C_R   0.434232 0.503229 0.917833 -0.014454
C43   C     C_R   0.569145 0.477443 0.081947 0.091165
C44   C     C_R   0.335536 0.469197 0.975489 0.126307
C45   C     C_R   0.308922 0.457165 0.074006 -0.043363
C46   C     C_R   0.667592 0.511580 0.023186 0.101476
C47   C     C_R   0.513877 0.499621 0.951519 0.043788
C48   C     C_R   0.489669 0.477875 0.047805 0.113140
C49   C     C_2   0.202498 0.440916 0.144515 0.398412
C50   C     C_2   0.801310 0.534399 0.853484 0.397174
C51   C     C_2   0.209977 0.369584 0.608476 0.450712
C52   C     C_2   0.790007 0.630296 0.391373 0.445836
C53   C     C_2   0.300210 0.626112 0.386118 0.480037
C54   C     C_2   0.701719 0.370665 0.609850 0.474384
C55   C     C_2   0.492153 0.367802 0.219962 0.366922
C56   C     C_R   0.694697 0.519709 0.924304 -0.032044
C57   C     C_2   0.510265 0.622002 0.791599 0.378661
C58   C     C_R   0.543658 0.183820 0.553933 -0.251535
C59   C     C_R   0.458255 0.816360 0.442997 -0.265800
C60   C     C_R   0.499909 0.231271 0.500249 -0.056804
H1    H     H_    0.153282 0.667089 0.335765 0.164965
H2    H     H_    0.640471 0.513934 0.813606 0.184457
H3    H     H_    0.573557 0.218655 0.598421 0.154325
H4    H     H_    0.427246 0.781410 0.399504 0.151238
H5    H     H_    0.419815 0.225611 0.406710 0.160962
H6    H     H_    0.586511 0.775443 0.586524 0.210452
H7    H     H_    0.375985 0.086948 0.350820 0.168673
H8    H     H_    0.629806 0.913537 0.642654 0.161658
H9    H     H_    0.378003 0.923256 0.348653 0.156725
H10   H     H_    0.626078 0.077104 0.646302 0.156606
H11   H     H_    0.190289 0.409655 0.212655 0.084199
H12   H     H_    0.846555 0.332974 0.664314 0.168017
H13   H     H_    0.814005 0.562374 0.783836 0.074670
H14   H     H_    0.246156 0.388766 0.655083 0.085691
H15   H     H_    0.754992 0.610665 0.343937 0.082624
H16   H     H_    0.301862 0.689932 0.417016 0.032862
H17   H     H_    0.704807 0.306662 0.577405 0.031292
H18   H     H_    0.470653 0.352478 0.294687 0.077693
H19   H     H_    0.548759 0.652841 0.831800 0.073389
H20   H     H_    0.985070 0.667249 0.335368 0.186649
H21   H     H_    0.014515 0.333347 0.665363 0.189292
H22   H     H_    0.746451 0.565933 0.197708 0.155623
H23   H     H_    0.252219 0.432318 0.799824 0.157257
H24   H     H_    0.196306 0.413635 0.970352 0.197060
H25   H     H_    0.805131 0.572833 0.026122 0.194963
H26   H     H_    0.362221 0.461832 0.185193 0.173834
N1    N     N_R   0.249980 0.499930 0.499960 -0.169705
N2    N     N_R   0.750020 0.500070 0.500040 -0.166032
O1    O     O_R   0.419720 0.632140 0.499980 -0.636184
O2    O     O_2   0.875687 0.511103 0.869454 -0.569322
O3    O     O_2   0.197845 0.290221 0.599150 -0.582913
O4    O     O_2   0.801238 0.709774 0.400970 -0.586149
O5    O     O_2   0.354434 0.612671 0.302847 -0.598896
O6    O     O_2   0.643423 0.382279 0.692318 -0.592893
O7    O     O_2   0.471263 0.313297 0.172166 -0.563477
O8    O     O_2   0.512093 0.661294 0.720537 -0.598476
O9    O     O_R   0.580280 0.367860 0.500020 -0.637305
O10   O     O_R   0.580270 0.632160 0.499970 -0.597661
O11   O     O_R   0.419730 0.367840 0.500030 -0.626707
O12   O     O_R   0.373870 0.499980 0.632250 -0.657925
O13   O     O_R   0.626130 0.500020 0.367750 -0.645362
O14   O     O_R   0.534420 0.500000 0.632240 -0.542841
O15   O     O_R   0.465580 0.500000 0.367760 -0.586272
O16   O     O_2   0.127811 0.466475 0.130259 -0.573530
Zn1   Zn    Zn3+2 0.392800 0.499980 0.500010 0.952368
Zn2   Zn    Zn3+2 0.607200 0.500020 0.499990 0.978691

loop_
_geom_bond_atom_site_label_1
_geom_bond_atom_site_label_2
_ccdc_geom_bond_type
C30   C32   A    
C34   C56   A    
C23   C45   A    
C22   C29   A    
C38   H23   S    
C57   H19   S    
C2    C4    A    
C51   H14   S    
C52   H15   S    
C49   O16   D    
C7    C8    A    
C32   H21   S    
C23   H26   S    
O12   Zn1   S    
C37   H25   S    
C24   C26   A    
C1    C2    S    
C21   C54   S    
C8    C10   A    
C11   C14   A    
C58   C60   A    
C20   N1    A    
C34   H2    S    
C9    C58   A    
C17   O13   A    
C41   C55   S    
C12   O11   A    
C51   O3    D    
C19   C52   S    
C50   O2    D    
C22   C25   A    
C40   C57   S    
C43   C48   A    
C54   H17   S    
C3    C60   A    
C40   C42   A    
C21   N2    A    
C41   C43   A    
C3    H5    S    
C42   C44   A    
C11   H7    S    
C18   C51   S    
O11   Zn1   S    
C29   H1    S    
C33   C40   A    
C4    C6    A    
C31   H20   S    
C55   O7    D    
C19   N2    A    
C10   C14   A    
C50   H13   S    
C5    C7    A    
C55   H18   S    
C2    C59   A    
C16   O12   A    
C6    C8    A    
C25   C26   A    
C53   O5    D    
C57   O8    D    
C50   C56   S    
C35   C39   A    
C16   C33   S    
N2    Zn2   S    
C47   C48   A    
N1    Zn1   S    
C45   C49   S    
C59   H4    S    
O15   Zn1   S    
C19   C28   A    
C12   O9    A    
O9    Zn2   S    
C16   O14   A    
C20   C22   A    
C13   C15   A    
C14   H9    S    
C36   C44   A    
C53   H16   S    
C46   C56   A    
C44   C45   A    
O13   Zn2   S    
C7    C9    A    
C15   H10   S    
C1    O1    A    
C23   C48   A    
C27   C32   A    
C28   C31   A    
C18   C27   A    
C58   H3    S    
C39   H22   S    
C20   C53   S    
C3    C5    A    
C1    O10   A    
C30   H12   S    
C5    C11   A    
C25   C27   A    
C26   C28   A    
C18   N1    A    
O10   Zn2   S    
C36   C38   A    
C10   C59   A    
C17   O15   A    
C29   C31   A    
C6    C13   A    
C4    H6    S    
C36   H24   S    
O14   Zn2   S    
C42   C47   A    
C9    C15   A    
C35   C41   A    
C43   C46   A    
C24   C30   A    
C54   O6    D    
C52   O4    D    
C12   C60   S    
C37   C39   A    
C49   H11   S    
C21   C24   A    
O1    Zn1   S    
C33   C38   A    
C34   C47   A    
C17   C35   S    
C37   C46   A    
C13   H8    S    
