data_mof_unit_26793.cif
_audit_creation_date              2012-12-10T17:57:27-0500
_audit_creation_method            fapswitch 2.2
_symmetry_space_group_name_H-M    P1
_symmetry_Int_Tables_number       1
_space_group_crystal_system       triclinic
_cell_length_a                    9.534584
_cell_length_b                    10.827109
_cell_length_c                    13.527414
_cell_angle_alpha                 90.341107
_cell_angle_beta                  73.431882
_cell_angle_gamma                 89.955013
_cell_volume                      1338.4543824

loop_
_atom_site_label
_atom_site_type_symbol
_atom_type_description
_atom_site_fract_x
_atom_site_fract_y
_atom_site_fract_z
_atom_type_partial_charge
C1    C     C_R   0.500236 0.737854 0.499455 0.780826
C2    C     C_R   0.439988 0.496655 0.977212 0.096604
C3    C     C_R   0.480074 0.467146 0.870407 0.081330
C4    C     C_R   0.547191 0.488581 0.031022 0.076415
C5    C     C_R   0.694884 0.466052 0.976186 0.095265
C6    C     C_R   0.729635 0.424818 0.874472 -0.227883
C7    C     C_R   0.621239 0.417404 0.824585 -0.205332
C8    C     C_R   0.512022 0.500117 0.138117 -0.324671
C9    C     C_R   0.769468 0.519655 0.128272 0.456520
C10   C     C_R   0.379055 0.491584 0.812905 -0.097860
C11   C     C_R   0.631423 0.935884 0.488610 -0.192624
C12   C     C_R   0.423013 0.493346 0.699464 0.793014
C13   C     C_R   0.631398 0.063679 0.488765 -0.183873
C14   C     C_R   0.500668 0.128217 0.498474 -0.017302
C15   C     C_R   0.370229 0.063982 0.507217 -0.186067
C16   C     C_R   0.370215 0.936236 0.507191 -0.185093
C17   C     C_R   0.500660 0.871700 0.498347 -0.016731
C18   C     C_R   0.897672 0.570607 0.569099 -0.038039
C19   C     C_R   0.046369 0.570491 0.569138 -0.031312
C20   C     C_R   0.102327 0.429508 0.430798 -0.025704
C21   C     C_R   0.953607 0.429558 0.430813 -0.020468
C22   C     C_R   0.500234 0.262117 0.499460 0.786921
C23   C     C_R   0.577588 0.504677 0.300675 0.810380
C24   C     C_R   0.805182 0.484009 0.024491 -0.266485
C25   C     C_R   0.621525 0.509604 0.187804 -0.169132
C26   C     C_R   0.237402 0.532426 0.864158 -0.211892
C27   C     C_R   0.198253 0.557685 0.968667 -0.153833
C28   C     C_R   0.297515 0.541779 0.024913 -0.167377
Cu1   Cu    Cu3+1 0.359340 0.499980 0.500000 0.937934
Cu2   Cu    Cu3+1 0.640660 0.500020 0.500000 0.935020
H1    H     H_    0.268068 0.112158 0.514691 0.150129
H2    H     H_    0.268043 0.888305 0.514711 0.148281
H3    H     H_    0.819373 0.627294 0.624477 0.131429
H4    H     H_    0.079880 0.627095 0.624516 0.116730
H5    H     H_    0.180604 0.372792 0.375429 0.123053
H6    H     H_    0.920072 0.372997 0.375422 0.137976
H7    H     H_    0.840331 0.396708 0.833828 0.146745
H8    H     H_    0.918263 0.472415 0.980662 0.148118
H9    H     H_    0.399430 0.496103 0.184267 0.175906
H10   H     H_    0.158462 0.552209 0.822450 0.149795
H11   H     H_    0.261774 0.571287 0.104444 0.134581
H12   H     H_    0.092213 0.596142 0.005161 0.171726
H13   H     H_    0.651621 0.373760 0.749606 0.178755
N1    N     N_R   0.147940 0.499970 0.499970 -0.158265
N2    N     N_R   0.852060 0.500060 0.499990 -0.168876
O1    O     O_R   0.381250 0.680340 0.500010 -0.585599
O2    O     O_R   0.618820 0.680370 0.500010 -0.597094
O3    O     O_R   0.323240 0.499950 0.650980 -0.583735
O4    O     O_R   0.560810 0.499980 0.650980 -0.590690
O5    O     O_R   0.381180 0.319630 0.499990 -0.586676
O6    O     O_R   0.618750 0.319660 0.499990 -0.592018
O7    O     O_R   0.439190 0.500020 0.349020 -0.589036
O8    O     O_R   0.676760 0.500050 0.349020 -0.565955
O9    O     O_3   0.881309 0.553447 0.170146 -0.622201
C29   C     C_3   0.856585 0.673488 0.215796 0.096139
H14   H     H_    0.880142 0.669340 0.291589 0.186041
H15   H     H_    0.742086 0.708101 0.231256 0.114385
C30   C     C_3   0.959319 0.768416 0.149234 -0.401904
H16   H     H_    0.074600 0.741287 0.140318 0.221990
H17   H     H_    0.940481 0.772019 0.071926 0.217037
C31   C     C_3   0.933543 0.896871 0.198420 -0.899213
H18   H     H_    0.819661 0.927950 0.206698 0.259493
H19   H     H_    0.010177 0.963589 0.148821 0.260524
H20   H     H_    0.952866 0.896048 0.275623 0.248824
H21   H     H_    0.733554 0.111654 0.481197 0.148515
H22   H     H_    0.733623 0.887636 0.480863 0.146539

loop_
_geom_bond_atom_site_label_1
_geom_bond_atom_site_label_2
_ccdc_geom_bond_type
C31   H20   S    
C2    C4    A    
C29   H14   S    
C9    C24   A    
C15   H1    S    
C6    C7    A    
C8    H9    S    
C7    H13   S    
C16   H2    S    
C2    C28   A    
C28   H11   S    
Cu2   N2    S    
C24   H8    S    
C31   H18   S    
C11   H22   S    
C4    C8    A    
Cu1   O1    S    
C12   O3    A    
C10   C26   A    
C30   C31   S    
C29   H15   S    
C12   O4    A    
C26   C27   A    
C6    H7    S    
C9    C25   A    
C3    C10   A    
C13   H21   S    
C13   C14   A    
C19   N1    A    
C8    C25   A    
C11   C13   A    
C27   H12   S    
C26   H10   S    
C23   O7    A    
Cu1   Cu2   S    
C5    C24   A    
C10   C12   S    
C1    O2    A    
C20   N1    A    
Cu2   O4    S    
C23   O8    A    
C3    C7    A    
C21   N2    A    
Cu1   O5    S    
C23   C25   S    
Cu1   N1    S    
C5    C6    A    
Cu2   O8    S    
C1    O1    A    
C18   H3    S    
Cu1   O3    S    
C30   H17   S    
C15   C16   A    
Cu2   O6    S    
C18   N2    A    
Cu2   O2    S    
C4    C5    A    
C20   C21   A    
C14   C22   S    
C18   C19   A    
C29   C30   S    
C27   C28   A    
C21   H6    S    
C22   O5    A    
C14   C15   A    
C16   C17   A    
C2    C3    A    
C9    O9    S    
C30   H16   S    
O9    C29   S    
C20   H5    S    
C1    C17   S    
C19   H4    S    
C31   H19   S    
C11   C17   A    
C22   O6    A    
Cu1   O7    S    
