data_mof_unit_33196.cif
_audit_creation_date              2013-03-05T15:47:38-0500
_audit_creation_method            fapswitch 2.2
_symmetry_space_group_name_H-M    P1
_symmetry_Int_Tables_number       1
_space_group_crystal_system       triclinic
_cell_length_a                    10.12392
_cell_length_b                    10.635334
_cell_length_c                    10.84065
_cell_angle_alpha                 91.23346
_cell_angle_beta                  96.889192
_cell_angle_gamma                 82.390753
_cell_volume                      1148.57610786

loop_
_atom_site_label
_atom_site_type_symbol
_atom_site_description
_atom_site_fract_x
_atom_site_fract_y
_atom_site_fract_z
_atom_type_partial_charge
O1    O     O_R   0.568940 0.489540 0.307530 -0.698594
O2    O     O_R   0.348880 0.522880 0.340350 -0.501396
C1    C     C_R   0.442358 0.507773 0.267224 0.845662
O3    O     O_R   0.610030 0.298130 0.483570 -0.621643
O4    O     O_R   0.389960 0.331470 0.516390 -0.547038
C2    C     C_R   0.496987 0.258408 0.494219 1.022936
Zn1   Zn    Zn3+2 0.646940 0.477740 0.478080 1.018891
Zn2   Zn    Zn3+2 0.353060 0.522260 0.521920 1.051704
O5    O     O_R   0.651120 0.477120 0.659650 -0.521675
O6    O     O_R   0.431060 0.510460 0.692470 -0.644143
O7    O     O_R   0.610040 0.668530 0.483610 -0.535336
O8    O     O_R   0.389970 0.701870 0.516430 -0.637019
C3    C     C_R   0.557733 0.492436 0.732607 0.882226
C4    C     C_R   0.497828 0.741309 0.488250 1.029122
C5    C     C_3   0.588021 0.062503 0.391960 0.125953
H1    H     H_    0.687342 0.095727 0.416037 0.141188
C6    C     C_3   0.607184 0.913904 0.399243 0.927371
C7    C     C_3   0.547755 0.065806 0.622954 0.557580
C8    C     C_3   0.348676 0.089740 0.445793 0.274456
C9    C     C_3   0.494496 0.121665 0.490270 -0.350648
H2    H     H_    0.316095 0.135090 0.353137 0.198627
C10   C     C_3   0.498632 0.878133 0.483125 -0.326511
C11   C     C_3   0.526225 0.924444 0.621264 0.198019
C12   C     C_3   0.354183 0.944451 0.432837 0.024786
H3    H     H_    0.279513 0.914834 0.490090 0.182952
H4    H     H_    0.432166 0.916835 0.663967 0.123957
H5    H     H_    0.400623 0.572316 0.894847 0.202043
H6    H     H_    0.602947 0.437824 0.104380 0.197172
C13   C     C_2   0.407754 0.519991 0.134499 0.285039
C14   C     C_2   0.506630 0.486388 0.064171 -0.266800
C15   C     C_2   0.592990 0.483060 0.865458 0.333731
C16   C     C_2   0.494318 0.519347 0.935339 -0.213334
N1    N     N_2   0.157300 0.551950 0.551120 -0.209415
C17   C     C_2   0.054228 0.536140 0.471672 0.201755
H7    H     H_    0.879302 0.396319 0.376063 0.138730
N2    N     N_2   0.842730 0.448000 0.448950 -0.230877
C18   C     C_2   0.917899 0.523778 0.510832 0.489520
H8    H     H_    0.147312 0.533475 0.641878 0.164481
Cl1   Cl    Cl    0.461449 0.147361 0.743692 -0.520486
O9    O     O_3   0.714342 0.416291 0.913936 -0.572868
C19   C     C_3   0.806830 0.503494 0.943512 -0.210660
H9    H     H_    0.771971 0.574915 0.013177 0.129831
H10   H     H_    0.826722 0.551387 0.858757 0.185851
H11   H     H_    0.903281 0.450963 0.985220 0.239288
Cl2   Cl    Cl    0.245801 0.591824 0.074437 -0.503407
O10   O     O_3   0.863058 0.593406 0.608073 -0.558761
C20   C     C_3   0.935840 0.690260 0.660264 -0.190612
H12   H     H_    0.983987 0.739448 0.592128 0.154291
H13   H     H_    0.007988 0.653425 0.740422 0.136319
H14   H     H_    0.866671 0.764214 0.700126 0.271938
Cl3   Cl    Cl    0.067435 0.533276 0.311651 -0.583052
O11   O     O_3   0.528260 0.103722 0.271015 -0.572249
C21   C     C_3   0.619265 0.153538 0.202540 -0.181755
H15   H     H_    0.694917 0.077081 0.173628 0.170540
H16   H     H_    0.668256 0.229587 0.254410 0.141265
H17   H     H_    0.562547 0.196627 0.116496 0.220074
O12   O     O_3   0.577211 0.864356 0.275969 -0.560440
C22   C     C_3   0.668232 0.764285 0.234543 -0.169916
H18   H     H_    0.720815 0.699183 0.308061 0.208751
H19   H     H_    0.741938 0.803055 0.183086 0.150527
H20   H     H_    0.610955 0.706481 0.166875 0.170138
O13   O     O_3   0.737992 0.864983 0.458973 -0.592758
C23   C     C_3   0.848479 0.902080 0.406047 -0.334849
H21   H     H_    0.902070 0.963700 0.473038 0.205781
H22   H     H_    0.822011 0.952219 0.316450 0.142141
H23   H     H_    0.919351 0.816368 0.389356 0.215196
Cl4   Cl    Cl    0.721982 0.085023 0.666313 -0.535065
O14   O     O_3   0.636997 0.847683 0.686488 -0.546443
C24   C     C_3   0.615124 0.828885 0.810684 -0.196661
H24   H     H_    0.530502 0.772797 0.814382 0.123259
H25   H     H_    0.596814 0.920461 0.860993 0.228943
H26   H     H_    0.706417 0.774308 0.859738 0.152002
O15   O     O_3   0.258719 0.135504 0.532767 -0.556424
C25   C     C_3   0.127267 0.167716 0.472606 -0.229733
H27   H     H_    0.091513 0.086598 0.417826 0.156874
H28   H     H_    0.122040 0.251498 0.411806 0.178797
H29   H     H_    0.058519 0.193523 0.544129 0.204871
Cl5   Cl    Cl    0.294568 0.898529 0.277700 -0.484009

loop_
_geom_bond_atom_site_label_1
_geom_bond_atom_site_label_2
_geom_bond_distance
_ccdc_geom_bond_type
C11   O14   1.419947 S    
C24   H26   1.107808 S    
Zn1   O7    2.014906 S    
C7    Cl1   1.803809 S    
C23   H22   1.105253 S    
C5    C6    1.569081 S    
O13   C23   1.420075 S    
C6    O13   1.438765 S    
O4    Zn2   2.014906 S    
C17   C18   1.514401 S    
C2    C9    1.457482 S    
C19   H9    1.113612 S    
C7    C9    1.574332 S    
N1    H8    1.026785 S    
C18   O10   1.402062 S    
Zn2   O8    1.997838 S    
C4    C10   1.458555 S    
C8    C9    1.575457 S    
H6    C14   1.087169 S    
C8    C12   1.542778 S    
C17   Cl3   1.755105 S    
C23   H23   1.108758 S    
C20   H13   1.108467 S    
O1    Zn1   1.921235 S    
C21   H15   1.108024 S    
O11   C21   1.410974 S    
C25   H29   1.109339 S    
C14   C16   1.434123 S    
C19   H10   1.111700 S    
C1    C13   1.443919 S    
O12   C22   1.415095 S    
C13   C14   1.337020 D    
C25   H28   1.111582 S    
C22   H20   1.106913 S    
O3    Zn1   1.997838 S    
O4    C2    1.291144 A    
C12   Cl5   1.797330 S    
O9    C19   1.408840 S    
C8    H2    1.117853 S    
O8    C4    1.291680 A    
N1    C17   1.297524 D    
C20   H14   1.099014 S    
O2    C1    1.297712 A    
C24   H24   1.111742 S    
C21   H16   1.111802 S    
Zn1   N2    2.026958 S    
C5    C9    1.575958 S    
O14   C24   1.412995 S    
C19   H11   1.109283 S    
C10   C12   1.576520 S    
C21   H17   1.109060 S    
O3    C2    1.289716 A    
C5    H1    1.109602 S    
C23   H21   1.109229 S    
C22   H19   1.108717 S    
C7    C11   1.546863 S    
C15   C16   1.337007 D    
C20   H12   1.107880 S    
Zn1   O5    1.963846 S    
C25   H27   1.112235 S    
C8    O15   1.422708 S    
C12   H3    1.113517 S    
C7    Cl4   1.807303 S    
Zn2   O6    1.921237 S    
O15   C25   1.412238 S    
C11   H4    1.120445 S    
C13   Cl2   1.769032 S    
O7    C4    1.292817 A    
C24   H25   1.110832 S    
O5    C3    1.295750 A    
O10   C20   1.414208 S    
N2    C18   1.302061 D    
H7    N2    1.030106 S    
C15   O9    1.385612 S    
H5    C16   1.085840 S    
C5    O11   1.428800 S    
C22   H18   1.105587 S    
C3    C15   1.443926 S    
C10   C11   1.570828 S    
O2    Zn2   1.963844 S    
C6    C10   1.595217 S    
C6    O12   1.438890 S    
Zn2   N1    2.026854 S    
O1    C1    1.293943 A    
O6    C3    1.294341 A    
