data_mof_unit_12667.cif
_audit_creation_date              2012-12-11T14:54:32-0500
_audit_creation_method            fapswitch 2.2
_symmetry_space_group_name_H-M    P1
_symmetry_Int_Tables_number       1
_space_group_crystal_system       triclinic
_cell_length_a                    19.168551
_cell_length_b                    11.087522
_cell_length_c                    18.821404
_cell_angle_alpha                 90.006112
_cell_angle_beta                  90.413161
_cell_angle_gamma                 90.278316
_cell_volume                      3999.99433776

loop_
_atom_site_label
_atom_site_type_symbol
_atom_type_description
_atom_site_fract_x
_atom_site_fract_y
_atom_site_fract_z
_atom_type_partial_charge
C1    C     C_R   0.713767 0.335935 0.638323 0.555100
C2    C     C_R   0.307499 0.911063 0.469879 0.246883
C3    C     C_R   0.036808 0.576017 0.451631 0.289980
C4    C     C_3   0.546312 0.859186 0.563423 0.022003
C5    C     C_3   0.603355 0.988515 0.384823 -0.129250
C6    C     C_3   0.030972 0.367459 0.557627 -0.011386
C7    C     C_3   0.116964 0.543141 0.364342 -0.091018
C8    C     C_3   0.577082 0.840269 0.948155 -0.091827
C9    C     C_3   0.397825 0.771702 0.079068 -0.108106
C10   C     C_3   0.077037 0.340329 0.948224 -0.092141
C11   C     C_3   0.897846 0.271714 0.079038 -0.107638
C12   C     C_3   0.722449 0.674947 0.633086 -0.097307
C13   C     C_R   0.214150 0.342292 0.543814 0.282462
C14   C     C_3   0.401133 0.816889 0.422173 0.013477
C15   C     C_3   0.220903 0.181503 0.617361 -0.118552
C16   C     C_3   0.903270 0.320095 0.420738 -0.062321
C17   C     C_3   0.635139 0.671107 0.454236 -0.072806
C18   C     C_3   0.355162 0.002721 0.626127 -0.046401
C19   C     C_3   0.126267 0.193440 0.440735 -0.064626
C20   C     C_3   0.859625 0.499582 0.623878 -0.116859
C21   C     C_3   0.476811 0.452044 0.087566 -0.004314
C22   C     C_3   0.550306 0.457616 0.922620 0.008642
C23   C     C_3   0.976870 0.952042 0.087593 -0.004457
C24   C     C_R   0.808293 0.408775 0.469124 0.260184
C25   C     C_3   0.050323 0.957621 0.922631 0.008470
C26   C     C_R   0.729889 0.791983 0.478573 0.249344
C27   C     C_R   0.295506 0.894312 0.542137 0.309766
C28   C     C_R   0.216883 0.319564 0.470803 0.286012
C29   C     C_R   0.796713 0.392492 0.541550 0.322397
C30   C     C_R   0.766107 0.871766 0.433342 -0.048748
C31   C     C_R   0.227793 0.862335 0.564494 -0.040029
C32   C     C_R   0.252164 0.403336 0.426648 -0.057061
C33   C     C_R   0.271197 0.371943 0.355114 0.539603
C34   C     C_R   0.728790 0.364092 0.564651 -0.032922
C35   C     C_R   0.790069 0.982322 0.458045 -0.195412
C36   C     C_R   0.173527 0.849321 0.514700 -0.174467
C37   C     C_R   0.283533 0.505482 0.454747 -0.190943
C38   C     C_R   0.673754 0.355632 0.515834 -0.176557
C39   C     C_R   0.790903 0.005664 0.528833 0.142722
C40   C     C_R   0.184789 0.875254 0.443441 0.148857
C41   C     C_R   0.287813 0.519978 0.526688 0.152168
C42   C     C_R   0.684449 0.378779 0.444331 0.158789
C43   C     C_R   0.753221 0.930399 0.575486 -0.000804
C44   C     C_R   0.213074 0.834461 0.638348 0.555864
C45   C     C_R   0.250554 0.913663 0.421798 0.014091
C46   C     C_R   0.249236 0.442730 0.571844 0.016831
C47   C     C_R   0.750748 0.412749 0.421490 0.028186
C48   C     C_R   0.463677 0.070443 0.951329 -0.213643
C49   C     C_R   0.454658 0.069232 0.024051 -0.216013
C50   C     C_R   0.963658 0.570470 0.951330 -0.213817
C51   C     C_R   0.954636 0.569261 0.024053 -0.215932
C52   C     C_R   0.478189 0.164761 0.067035 0.001467
C53   C     C_R   0.493123 0.171116 0.919298 0.018851
C54   C     C_R   0.978196 0.664765 0.067041 0.001178
C55   C     C_R   0.784900 0.838352 0.361878 0.581611
C56   C     C_R   0.993128 0.671125 0.919304 0.018935
C57   C     C_R   0.500722 0.272096 0.033881 0.266199
C58   C     C_R   0.501355 0.277785 0.958821 0.285701
C59   C     C_R   0.000746 0.772092 0.033891 0.265985
C60   C     C_R   0.001376 0.777787 0.958831 0.285799
C61   C     C_R   0.531623 0.154118 0.646711 0.524341
C62   C     C_R   0.466245 0.155540 0.354465 0.599292
C63   C     C_R   0.035626 0.653336 0.644898 0.540267
C64   C     C_R   0.966298 0.656161 0.353713 0.596715
C65   C     C_R   0.802120 0.996128 0.971558 0.186675
C66   C     C_3   0.428409 0.354273 0.469588 -0.212857
C67   C     C_R   0.209066 0.017703 0.024894 0.192249
C68   C     C_R   0.302096 0.496179 0.971578 0.186649
C69   C     C_R   0.709055 0.517683 0.024894 0.192164
C70   C     C_R   0.797378 0.997941 0.044172 -0.095446
C71   C     C_R   0.216754 0.015225 0.952161 -0.134360
C72   C     C_R   0.297354 0.498000 0.044193 -0.095374
C73   C     C_R   0.716744 0.515217 0.952161 -0.134802
C74   C     C_R   0.748977 0.926715 0.079080 -0.057015
C75   C     C_R   0.254049 0.922471 0.921302 -0.071601
C76   C     C_R   0.248954 0.426774 0.079104 -0.056788
C77   C     C_3   0.437162 0.353577 0.549523 -0.247966
C78   C     C_R   0.754050 0.422480 0.921298 -0.071503
C79   C     C_R   0.694837 0.873306 0.040540 -0.119562
C80   C     C_R   0.296255 0.848153 0.964056 -0.137764
C81   C     C_R   0.194803 0.373393 0.040568 -0.119397
C82   C     C_R   0.796265 0.348171 0.964049 -0.137543
C83   C     C_R   0.694346 0.877815 0.965823 0.235780
C84   C     C_R   0.296286 0.859434 0.038232 0.217179
C85   C     C_R   0.194308 0.377904 0.965849 0.235946
C86   C     C_R   0.796296 0.359447 0.038225 0.217368
C87   C     C_R   0.748961 0.939641 0.930648 0.050726
C88   C     C_3   0.965562 0.885404 0.473946 -0.238551
C89   C     C_R   0.251565 0.944418 0.068956 0.075648
C90   C     C_R   0.248935 0.439699 0.930670 0.051157
C91   C     C_R   0.751566 0.444414 0.068953 0.075949
C92   C     C_R   0.741296 0.972263 0.647045 0.571944
C93   C     C_R   0.259294 0.969427 0.352384 0.630222
C94   C     C_R   0.240370 0.475688 0.645668 0.577697
C95   C     C_R   0.759213 0.468903 0.352164 0.630541
C96   C     C_R   0.731021 0.379547 0.851526 0.539173
C97   C     C_R   0.269119 0.380998 0.148936 0.548002
C98   C     C_R   0.231020 0.879541 0.851529 0.540654
C99   C     C_3   0.973266 0.875103 0.553892 -0.253545
C100  C     C_R   0.769127 0.880980 0.148926 0.558009
C101  C     C_R   0.529808 0.157739 0.851494 0.548905
C102  C     C_R   0.463212 0.156778 0.143749 0.579114
C103  C     C_R   0.029809 0.657741 0.851495 0.548061
C104  C     C_R   0.963225 0.656780 0.143756 0.576526
C105  C     C_R   0.740983 0.973827 0.855678 0.580167
C106  C     C_R   0.259081 0.975245 0.144164 0.604234
C107  C     C_R   0.240975 0.473850 0.855689 0.578515
C108  C     C_R   0.759083 0.475248 0.144161 0.605030
C109  C     C_R   0.497588 0.165783 0.425160 0.042031
C110  C     C_R   0.722516 0.823396 0.550550 0.200505
C111  C     C_R   0.503628 0.156819 0.574412 -0.040476
C112  C     C_R   0.995760 0.669336 0.423849 0.055772
C113  C     C_R   0.014741 0.652912 0.571064 -0.035666
C114  C     C_R   0.487731 0.269073 0.466831 0.014790
C115  C     C_R   0.495447 0.266641 0.540029 -0.066909
C116  C     C_R   0.963182 0.750142 0.470262 -0.013578
C117  C     C_R   0.973082 0.742564 0.542555 -0.083153
C118  C     C_R   0.510766 0.051166 0.532979 0.280764
C119  C     C_R   0.520919 0.060677 0.459402 0.281738
C120  C     C_R   0.041875 0.562693 0.525184 0.267655
Cl1   Cl    Cl    0.879397 0.060215 0.937268 -0.639811
Cl2   Cl    Cl    0.135540 0.095763 0.055634 -0.670963
Cl3   Cl    Cl    0.379383 0.560217 0.937284 -0.639045
Cl4   Cl    Cl    0.635511 0.595691 0.055637 -0.670517
Cl5   Cl    Cl    0.846950 0.124388 0.554151 -0.645209
Cl6   Cl    Cl    0.118673 0.850594 0.379920 -0.716362
Cl7   Cl    Cl    0.350043 0.627172 0.555128 -0.625180
Cl8   Cl    Cl    0.615232 0.361716 0.383214 -0.670403
Cr1   Cr    Cr6+3 0.771950 0.169480 0.750100 1.109773
Cr2   Cr    Cr6+3 0.383410 0.010620 0.249390 1.026698
Cr3   Cr    Cr6+3 0.116590 0.510620 0.750610 1.061767
Cr4   Cr    Cr6+3 0.883410 0.510620 0.249390 1.024282
Cr5   Cr    Cr6+3 0.228050 0.169480 0.249900 1.087041
Cr6   Cr    Cr6+3 0.271950 0.669480 0.750100 1.115264
Cr7   Cr    Cr6+3 0.728050 0.669480 0.249900 1.083819
Cr8   Cr    Cr6+3 0.614930 0.323340 0.749170 1.015262
Cr9   Cr    Cr6+3 0.385070 0.323340 0.250830 1.031216
Cr10  Cr    Cr6+3 0.114930 0.823340 0.749170 1.010677
Cr11  Cr    Cr6+3 0.885070 0.823340 0.250830 1.027005
Cr12  Cr    Cr6+3 0.616590 0.010620 0.750610 1.039649
H1    H     H_    0.837274 0.044297 0.073869 0.187452
H2    H     H_    0.023543 0.911451 0.574521 0.164285
H3    H     H_    0.379306 0.310051 0.451996 0.148470
H4    H     H_    0.456266 0.440889 0.571352 0.201695
H5    H     H_    0.440841 0.442718 0.444801 0.181172
H6    H     H_    0.391838 0.313786 0.577908 0.124322
H7    H     H_    0.011507 0.927652 0.449060 0.193788
H8    H     H_    0.926360 0.904593 0.583340 0.193364
H9    H     H_    0.815853 0.046352 0.423351 0.176923
H10   H     H_    0.122910 0.817322 0.531166 0.143404
H11   H     H_    0.312411 0.566636 0.420932 0.161000
H12   H     H_    0.183770 0.072401 0.919648 0.189542
H13   H     H_    0.622617 0.330529 0.533755 0.158954
H14   H     H_    0.450801 0.990508 0.920733 0.137656
H15   H     H_    0.429268 0.992710 0.046606 0.140049
H16   H     H_    0.950763 0.490549 0.920731 0.137241
H17   H     H_    0.929220 0.492761 0.046607 0.140156
H18   H     H_    0.595197 0.894828 0.540066 0.135888
H19   H     H_    0.529425 0.776774 0.534928 0.125988
H20   H     H_    0.556784 0.832653 0.619274 0.191425
H21   H     H_    0.645456 0.015223 0.422690 0.116248
H22   H     H_    0.595821 0.060631 0.344551 0.162795
H23   H     H_    0.337256 0.544337 0.073889 0.187385
H24   H     H_    0.620448 0.907465 0.355523 0.159206
H25   H     H_    0.022185 0.325932 0.505114 0.110318
H26   H     H_    0.980616 0.393643 0.580778 0.172517
H27   H     H_    0.052530 0.298634 0.594025 0.182300
H28   H     H_    0.157530 0.591065 0.396224 0.154326
H29   H     H_    0.093793 0.605284 0.324664 0.167817
H30   H     H_    0.142254 0.471224 0.333218 0.137311
H31   H     H_    0.540947 0.824834 0.902744 0.158906
H32   H     H_    0.572003 0.935678 0.965153 0.123546
H33   H     H_    0.560494 0.779697 0.991740 0.148827
H34   H     H_    0.683753 0.572383 0.919650 0.188980
H35   H     H_    0.417563 0.685375 0.100113 0.115163
H36   H     H_    0.418296 0.840241 0.116555 0.159906
H37   H     H_    0.419390 0.783393 0.024752 0.120009
H38   H     H_    0.040888 0.324969 0.902816 0.158286
H39   H     H_    0.071956 0.435704 0.965288 0.122976
H40   H     H_    0.060466 0.279673 0.991775 0.148865
H41   H     H_    0.917586 0.185372 0.100059 0.115395
H42   H     H_    0.918327 0.340233 0.116534 0.159993
H43   H     H_    0.919400 0.283438 0.024721 0.119552
H44   H     H_    0.770680 0.717365 0.655435 0.088371
H45   H     H_    0.654916 0.825027 0.068788 0.193135
H46   H     H_    0.734972 0.598968 0.597696 0.150701
H47   H     H_    0.691901 0.639962 0.678468 0.176730
H48   H     H_    0.360885 0.757525 0.397036 0.071291
H49   H     H_    0.427415 0.768581 0.466118 0.195203
H50   H     H_    0.440460 0.833733 0.380584 0.178616
H51   H     H_    0.192632 0.134269 0.660312 0.180702
H52   H     H_    0.268429 0.222766 0.641843 0.073362
H53   H     H_    0.234965 0.114732 0.576160 0.140644
H54   H     H_    0.866926 0.270802 0.384386 0.109684
H55   H     H_    0.918015 0.260660 0.465311 0.166198
H56   H     H_    0.323733 0.774449 0.940377 0.208965
H57   H     H_    0.951437 0.339437 0.390559 0.166467
H58   H     H_    0.617352 0.631442 0.505114 0.160466
H59   H     H_    0.608759 0.757623 0.442844 0.115486
H60   H     H_    0.617761 0.609401 0.411557 0.199106
H61   H     H_    0.310430 0.012115 0.662639 0.090003
H62   H     H_    0.359330 0.081087 0.589446 0.091960
H63   H     H_    0.402359 0.002329 0.660430 0.181003
H64   H     H_    0.103829 0.172802 0.493435 0.144039
H65   H     H_    0.101311 0.272763 0.415389 0.153869
H66   H     H_    0.113527 0.115169 0.406514 0.180748
H67   H     H_    0.154880 0.325125 0.068820 0.192909
H68   H     H_    0.818954 0.507171 0.665128 0.118060
H69   H     H_    0.859445 0.578039 0.586942 0.110718
H70   H     H_    0.909751 0.501233 0.653322 0.145362
H71   H     H_    0.483218 0.484989 0.142896 0.153098
H72   H     H_    0.423155 0.416135 0.081581 0.139392
H73   H     H_    0.483427 0.530253 0.052018 0.167503
H74   H     H_    0.559043 0.486065 0.867031 0.170883
H75   H     H_    0.597381 0.411555 0.943744 0.151536
H76   H     H_    0.540834 0.542201 0.951789 0.182758
H77   H     H_    0.983300 0.984987 0.142922 0.152482
H78   H     H_    0.823748 0.274474 0.940367 0.208967
H79   H     H_    0.923207 0.916156 0.081627 0.139302
H80   H     H_    0.983483 0.030245 0.052041 0.167609
H81   H     H_    0.059055 0.986066 0.867042 0.170917
H82   H     H_    0.097398 0.911560 0.943754 0.151333
H83   H     H_    0.040853 0.042208 0.951799 0.182795
H84   H     H_    0.916338 0.926332 0.456685 0.171447
O1    O     O_R   0.787510 0.042610 0.670410 -0.453967
O2    O     O_R   0.454250 0.051070 0.169440 -0.549897
O3    O     O_R   0.045750 0.551070 0.830560 -0.534007
O4    O     O_R   0.954250 0.551070 0.169440 -0.549831
O5    O     O_R   0.681210 0.959150 0.825320 -0.469113
O6    O     O_R   0.318790 0.959150 0.174680 -0.508247
O7    O     O_R   0.181210 0.459150 0.825320 -0.471699
O8    O     O_R   0.818790 0.459150 0.174680 -0.506828
O9    O     O_3   0.667820 0.167810 0.749960 -0.301333
O10   O     O_3   0.332180 0.167810 0.250040 -0.288371
O11   O     O_3   0.167820 0.667810 0.749960 -0.305259
O12   O     O_R   0.212490 0.042610 0.329590 -0.447433
O13   O     O_3   0.832180 0.667810 0.250040 -0.299498
O14   O     O_R   0.765670 0.292090 0.675090 -0.424382
O15   O     O_R   0.234330 0.292090 0.324910 -0.470427
O16   O     O_R   0.265670 0.792090 0.675090 -0.425295
O17   O     O_R   0.734330 0.792090 0.324910 -0.491288
O18   O     O_R   0.670220 0.409020 0.668560 -0.550848
O19   O     O_R   0.329780 0.409020 0.331440 -0.540266
O20   O     O_R   0.170220 0.909020 0.668560 -0.555268
O21   O     O_R   0.829780 0.909020 0.331440 -0.541207
O22   O     O_R   0.556580 0.251590 0.674980 -0.507540
O23   O     O_R   0.287510 0.542610 0.670410 -0.464084
O24   O     O_R   0.443420 0.251590 0.325020 -0.485217
O25   O     O_R   0.056580 0.751590 0.674980 -0.519328
O26   O     O_R   0.943420 0.751590 0.325020 -0.496557
O27   O     O_R   0.545890 0.049670 0.670030 -0.503398
O28   O     O_R   0.454110 0.049670 0.329970 -0.470569
O29   O     O_R   0.045890 0.549670 0.670030 -0.492189
O30   O     O_R   0.954110 0.549670 0.329970 -0.475746
O31   O     O_R   0.681340 0.957860 0.676500 -0.493612
O32   O     O_R   0.318660 0.957860 0.323500 -0.498495
O33   O     O_R   0.181340 0.457860 0.676500 -0.449513
O34   O     O_R   0.712490 0.542610 0.329590 -0.451978
O35   O     O_R   0.818660 0.457860 0.323500 -0.495511
O36   O     O_R   0.787380 0.044010 0.830940 -0.454472
O37   O     O_R   0.212620 0.044010 0.169060 -0.439924
O38   O     O_R   0.287380 0.544010 0.830940 -0.454639
O39   O     O_R   0.712620 0.544010 0.169060 -0.439744
O40   O     O_R   0.765540 0.293390 0.823910 -0.492264
O41   O     O_R   0.234460 0.293390 0.176090 -0.488542
O42   O     O_R   0.265540 0.793390 0.823910 -0.492139
O43   O     O_R   0.734460 0.793390 0.176090 -0.484090
O44   O     O_R   0.670090 0.410410 0.829090 -0.553307
O45   O     O_R   0.556450 0.252890 0.823790 -0.477918
O46   O     O_R   0.329910 0.410410 0.170910 -0.551227
O47   O     O_R   0.170090 0.910410 0.829090 -0.551640
O48   O     O_R   0.829910 0.910410 0.170910 -0.548034
O49   O     O_3   0.491218 0.941757 0.562441 -0.506852
O50   O     O_3   0.541167 0.960383 0.421218 -0.593756
O51   O     O_3   0.078052 0.465134 0.551870 -0.525954
O52   O     O_3   0.066332 0.489289 0.408377 -0.587749
O53   O     O_3   0.645437 0.813168 0.926233 -0.547634
O54   O     O_3   0.324307 0.769439 0.080746 -0.561768
O55   O     O_3   0.145387 0.313281 0.926261 -0.547045
O56   O     O_R   0.443550 0.252890 0.176210 -0.483177
O57   O     O_3   0.824328 0.269456 0.080736 -0.560553
O58   O     O_3   0.680828 0.755825 0.595007 -0.609406
O59   O     O_3   0.375076 0.928526 0.446838 -0.510923
O60   O     O_3   0.176178 0.267627 0.587708 -0.564099
O61   O     O_3   0.875696 0.429810 0.446301 -0.543763
O62   O     O_3   0.708609 0.680213 0.453474 -0.560966
O63   O     O_3   0.352062 0.893134 0.588370 -0.438466
O64   O     O_3   0.199319 0.205873 0.445452 -0.555290
O65   O     O_3   0.853611 0.389180 0.587267 -0.505548
O66   O     O_3   0.528471 0.365385 0.074118 -0.536463
O67   O     O_R   0.056450 0.752890 0.823790 -0.478099
O68   O     O_3   0.490093 0.385566 0.923823 -0.520891
O69   O     O_3   0.028514 0.865361 0.074131 -0.537196
O70   O     O_3   0.990110 0.885573 0.923840 -0.520980
O71   O     O_R   0.943550 0.752890 0.176210 -0.484450
O72   O     O_R   0.545750 0.051070 0.830560 -0.531521

loop_
_geom_bond_atom_site_label_1
_geom_bond_atom_site_label_2
_ccdc_geom_bond_type
C7    H28   S    
Cr9   O56   S    
C39   Cl5   S    
C107  O7    A    
Cr11  O13   S    
C11   H41   S    
Cr1   O36   S    
C114  C115  A    
C3    O52   S    
C111  C118  A    
C90   C107  S    
C97   O46   A    
C64   C112  S    
C94   O33   A    
C103  O3    A    
C9    H36   S    
C14   H49   S    
C78   C96   S    
C89   C106  S    
C70   C74   A    
C68   C90   A    
C18   H63   S    
C43   C110  A    
C20   H70   S    
C66   C114  S    
C94   O23   A    
Cr4   O30   S    
C81   H67   S    
Cr10  O25   S    
C62   O28   A    
C6    H25   S    
Cr12  O5    S    
C93   O12   A    
Cr10  O11   S    
Cr12  O27   S    
C104  O4    A    
C80   H56   S    
C85   C90   A    
C23   H79   S    
C27   C31   A    
C28   C32   A    
Cr9   O24   S    
C74   C100  S    
C66   H3    S    
Cr3   O11   S    
C51   H17   S    
C75   C98   S    
Cr7   O13   S    
C5    H21   S    
Cr10  O67   S    
C113  C120  A    
C78   C82   A    
C103  O67   A    
C71   H12   S    
C3    C112  A    
C68   C72   A    
C64   O26   A    
C97   O41   A    
C92   O1    A    
C74   C79   A    
Cr12  O9    S    
C14   O59   S    
C9    O54   S    
Cr11  O21   S    
C9    H37   S    
C66   C77   S    
C15   H51   S    
Cr7   O34   S    
Cr6   O11   S    
C49   H15   S    
C56   C103  S    
C83   O53   S    
C53   C58   A    
Cr3   O29   S    
C13   O60   S    
Cr5   O41   S    
C98   O47   A    
Cr7   O17   S    
C16   H55   S    
C32   C33   S    
C36   H10   S    
C82   H78   S    
C72   H23   S    
C17   H59   S    
C18   H61   S    
Cr5   O10   S    
C88   C99   S    
C63   C113  S    
C92   O31   A    
Cr2   O2    S    
C7    H30   S    
C31   C36   A    
C21   O66   S    
C16   O61   S    
C77   C115  S    
C57   O66   S    
C96   O44   A    
Cr11  O71   S    
C23   H77   S    
C41   Cl7   S    
C45   C93   S    
C8    O53   S    
C93   O32   A    
C104  O71   A    
Cr5   O37   S    
C10   H39   S    
C65   C70   A    
C84   O54   S    
C88   H84   S    
C10   O55   S    
Cr1   O40   S    
C8    H31   S    
C96   O40   A    
C22   H75   S    
C15   O60   S    
C44   O16   A    
C68   Cl3   S    
C1    C34   S    
C54   C59   A    
C2    C45   A    
C48   C53   A    
C7    O52   S    
C11   O57   S    
C61   O22   A    
C12   H47   S    
C101  O45   A    
C50   C56   A    
Cr5   O12   S    
Cr9   O19   S    
C59   C60   A    
Cr3   O3    S    
C99   C117  S    
C62   O24   A    
C87   C105  S    
Cr8   O22   S    
C25   H82   S    
Cr12  O31   S    
C32   C37   A    
Cr8   O45   S    
C109  C114  A    
C113  C117  A    
C26   C30   A    
C105  O36   A    
C21   H73   S    
C33   O19   A    
C112  C116  A    
C44   O20   A    
C108  O8    A    
Cr3   O7    S    
C48   H14   S    
C70   H1    S    
C110  O58   S    
C42   Cl8   S    
Cr11  O48   S    
C43   C92   S    
C21   H72   S    
Cr8   O44   S    
C119  O50   S    
C17   O62   S    
C57   C58   A    
C62   C109  S    
C98   O42   A    
C19   O64   S    
C9    H35   S    
C37   C41   A    
C16   H54   S    
C1    O18   A    
C27   O63   S    
C14   H50   S    
C28   O64   S    
Cr1   O1    S    
Cr5   O15   S    
C38   H13   S    
Cr9   O10   S    
C69   C91   A    
C77   H6    S    
C81   C85   A    
C95   O34   A    
C83   C87   A    
C6    H26   S    
C80   C84   A    
C52   C102  S    
C54   C104  S    
C86   C91   A    
Cr4   O4    S    
Cr1   O14   S    
C4    H19   S    
Cr2   O6    S    
C46   C94   S    
C102  O2    A    
C73   H34   S    
C24   C29   A    
C24   O61   S    
C53   C101  S    
C19   H66   S    
C13   C28   A    
C69   C73   A    
C2    C27   A    
C65   Cl1   S    
C58   O68   S    
C15   H52   S    
C11   H42   S    
Cr10  O47   S    
C40   C45   A    
C18   O63   S    
C69   Cl4   S    
C76   C97   S    
C82   C86   A    
C29   C34   A    
Cr2   O10   S    
C56   C60   A    
C105  O5    A    
C35   C39   A    
C14   H48   S    
C61   O27   A    
C49   C52   A    
C12   H46   S    
C50   C51   A    
C17   H58   S    
C18   H62   S    
C20   H69   S    
C48   C49   A    
C63   O25   A    
C7    H29   S    
Cr11  O26   S    
C4    O49   S    
C29   O65   S    
Cr6   O23   S    
Cr10  O20   S    
C109  C119  A    
C100  O48   A    
C23   H80   S    
C55   O17   A    
C91   C108  S    
C102  O56   A    
Cr9   O46   S    
C38   C42   A    
Cr2   O28   S    
C30   C55   S    
Cr8   O18   S    
C10   H40   S    
C5    H22   S    
C79   C83   A    
C12   H44   S    
C19   H64   S    
C88   H7    S    
C107  O38   A    
C67   C71   A    
C52   C57   A    
C15   H53   S    
C106  O6    A    
C5    O50   S    
C35   H9    S    
C23   O69   S    
C16   H57   S    
C8    H32   S    
Cr6   O42   S    
C99   H8    S    
Cr7   O39   S    
C22   H76   S    
C25   O70   S    
C99   H2    S    
C72   C76   A    
C4    H20   S    
C95   O35   A    
C30   C35   A    
C108  O39   A    
C20   O65   S    
C26   O62   S    
C13   C46   A    
C67   C89   A    
C116  C117  A    
C17   H60   S    
C118  C119  A    
C66   H5    S    
Cr3   O33   S    
C60   O70   S    
C50   H16   S    
C41   C46   A    
C25   H81   S    
C22   O68   S    
C75   C80   A    
C26   C110  A    
Cr6   O38   S    
Cr7   O43   S    
C37   H11   S    
Cr4   O8    S    
Cr4   O35   S    
C64   O30   A    
C4    H18   S    
C31   C44   S    
C10   H38   S    
C5    H24   S    
C36   C40   A    
C11   H43   S    
C8    H33   S    
C39   C43   A    
C106  O37   A    
C21   H71   S    
Cr1   O9    S    
C88   C116  S    
Cr4   O13   S    
C33   O15   A    
C59   O69   S    
C73   C78   A    
C40   Cl6   S    
Cr8   O9    S    
C85   O55   S    
C65   C87   A    
C6    O51   S    
C22   H74   S    
C84   C89   A    
C20   H68   S    
C61   C111  S    
C67   Cl2   S    
C120  O51   S    
C6    H27   S    
C79   H45   S    
C34   C38   A    
C24   C47   A    
Cr6   O16   S    
C76   C81   A    
Cr12  O72   S    
C101  O72   A    
C2    O59   S    
C100  O43   A    
C1    O14   A    
C51   C54   A    
C77   H4    S    
C71   C75   A    
C63   O29   A    
C86   O57   S    
C25   H83   S    
C42   C47   A    
C3    C120  A    
C55   O21   A    
C19   H65   S    
C47   C95   S    
C111  C115  A    
C118  O49   S    
C12   O58   S    
Cr2   O32   S    
