data_mof_unit_62864.cif
_audit_creation_date              2012-12-11T15:45:13-0500
_audit_creation_method            fapswitch 2.2
_symmetry_space_group_name_H-M    P1
_symmetry_Int_Tables_number       1
_space_group_crystal_system       triclinic
_cell_length_a                    8.293824
_cell_length_b                    19.065256
_cell_length_c                    22.868103
_cell_angle_alpha                 95.92877
_cell_angle_beta                  89.585359
_cell_angle_gamma                 94.835509
_cell_volume                      3583.84633864

loop_
_atom_site_label
_atom_site_type_symbol
_atom_type_description
_atom_site_fract_x
_atom_site_fract_y
_atom_site_fract_z
_atom_type_partial_charge
Ba1   Ba    Ba6+2 0.850680 0.532880 0.472010 2.076161
Ba2   Ba    Ba6+2 0.339140 0.467180 0.527990 1.950719
C1    C     C_3   0.702649 0.784528 0.283262 -0.193545
C2    C     C_3   0.626238 0.715840 0.303501 0.876493
C3    C     C_3   0.510369 0.350153 0.346907 1.183896
C4    C     C_3   0.539816 0.327877 0.282112 0.581938
C5    C     C_3   0.055887 0.306753 0.691485 0.793955
C6    C     C_3   0.057737 0.276715 0.750656 0.602958
C7    C     C_3   0.557207 0.280720 0.696828 1.246341
C8    C     C_3   0.463628 0.209410 0.701867 -0.150611
C9    C     C_R   0.338771 0.519769 0.331078 0.358259
C10   C     C_R   0.927600 0.524389 0.952714 -0.094080
C11   C     C_R   0.886249 0.521635 0.892412 0.685179
C12   C     C_3   0.141826 0.687209 0.311610 1.177621
C13   C     C_R   0.134312 0.470786 0.864672 0.756627
C14   C     C_R   0.179863 0.473005 0.924704 -0.113211
C15   C     C_R   0.074831 0.499775 0.968936 -0.113350
C16   C     C_R   0.824337 0.551005 0.997229 -0.081595
C17   C     C_R   0.865887 0.553798 0.056697 0.668272
C18   C     C_R   0.012910 0.529319 0.073889 -0.130512
C19   C     C_R   0.116875 0.501758 0.029644 -0.121249
C20   C     C_R   0.326818 0.448483 0.941887 0.650107
C21   C     C_R   0.366504 0.449761 0.001370 -0.078693
C22   C     C_R   0.262699 0.475977 0.045861 -0.105135
C23   C     C_3   0.168618 0.717017 0.252685 0.606371
C24   C     C_R   0.301903 0.476770 0.106151 0.740313
C25   C     C_R   0.059284 0.532039 0.133931 0.734854
C26   C     C_2   0.804927 0.446787 0.768744 0.043059
C27   C     C_3   0.772546 0.427348 0.703636 0.002541
C28   C     C_1   0.001494 0.513328 0.685026 0.028216
C29   C     C_2   0.043593 0.522196 0.741801 0.664343
C30   C     C_2   0.940151 0.487844 0.787090 0.199631
C31   C     C_R   0.399689 0.544832 0.231101 0.409572
C32   C     C_R   0.444915 0.548577 0.290557 -0.140488
C33   C     C_R   0.191015 0.484225 0.313466 -0.063021
C34   C     C_3   0.183447 0.686879 0.599631 0.346584
C35   C     C_R   0.146947 0.477815 0.253392 0.473100
C36   C     C_R   0.249238 0.509632 0.211610 0.056205
C37   C     C_2   0.871032 0.473674 0.664671 -0.350900
C38   C     C_R   0.393518 0.701138 0.475136 0.344103
C39   C     C_R   0.537607 0.723767 0.504812 0.006019
C40   C     C_R   0.591141 0.795893 0.510991 -0.149254
C41   C     C_R   0.500297 0.845771 0.487601 -0.005950
C42   C     C_R   0.352505 0.822028 0.458590 0.557840
C43   C     C_R   0.297599 0.749852 0.453877 -0.018427
C44   C     C_R   0.563083 0.962824 0.447564 -0.085515
C45   C     C_3   0.160612 0.764962 0.616672 1.529027
C46   C     C_R   0.612819 0.035233 0.454885 -0.016314
C47   C     C_R   0.657197 0.069303 0.510642 -0.001912
C48   C     C_R   0.654139 0.028926 0.558713 -0.105333
C49   C     C_R   0.603842 0.956389 0.551557 0.648207
C50   C     C_R   0.556692 0.922567 0.495769 0.017651
C51   C     C_R   0.849467 0.173821 0.547537 -0.165744
C52   C     C_R   0.896645 0.246707 0.552048 0.017220
C53   C     C_R   0.655079 0.267218 0.499922 -0.031483
C54   C     C_R   0.607313 0.194473 0.494533 0.547680
C55   C     C_R   0.703774 0.146940 0.518647 -0.031768
C56   C     C_3   0.992833 0.318745 0.407075 0.392447
C57   C     C_R   0.795967 0.292998 0.530338 -0.250253
C58   C     C_3   0.965596 0.238986 0.392135 -0.299525
C59   C     C_3   0.685060 0.623527 0.648283 0.305131
C60   C     C_3   0.682113 0.644917 0.714343 1.075602
H1    H     H_    0.088822 0.329962 0.440981 0.046248
H2    H     H_    0.862750 0.226121 0.360961 0.147406
H3    H     H_    0.938433 0.212493 0.432284 0.007564
H4    H     H_    0.596436 0.577087 0.637781 -0.051596
H5    H     H_    0.815490 0.802138 0.308355 0.159620
H6    H     H_    0.730946 0.776877 0.235611 0.150590
H7    H     H_    0.927973 0.307730 0.678013 -0.007978
H8    H     H_    0.549402 0.167552 0.700526 0.099034
H9    H     H_    0.845862 0.465127 0.617870 0.060060
H10   H     H_    0.617387 0.064667 0.416775 0.131130
H11   H     H_    0.530344 0.938054 0.404023 0.137727
H12   H     H_    0.928867 0.138095 0.564064 0.107254
H13   H     H_    0.833767 0.348969 0.532975 0.023737
H14   H     H_    0.106912 0.667771 0.560687 -0.042791
N1    N     N_R   0.988672 0.494693 0.849038 -0.438164
N2    N     N_R   0.202086 0.505584 0.149647 -0.414889
O1    O     O_2   0.896730 0.461690 0.361000 -0.376410
O2    O     O_3   0.644417 0.681294 0.620087 -0.610725
O3    O     O_3   0.069955 0.737012 0.351248 -0.607730
O4    O     O_2   0.292960 0.538340 0.639040 -0.432739
O5    O     O_3   0.052540 0.537650 0.567960 -0.520068
O6    O     O_3   0.532200 0.411510 0.604930 -0.478090
O7    O     O_3   0.139939 0.650703 0.648199 -0.587614
O8    O     O_3   0.629030 0.416090 0.471500 -0.425552
O9    O     O_3   0.120120 0.375640 0.576470 -0.466963
O10   O     O_2   0.230594 0.250661 0.540983 -0.428453
O11   O     O_3   0.140891 0.264117 0.650406 -0.671141
O12   O     O_3   0.137170 0.462400 0.432040 -0.423073
O13   O     O_3   0.560670 0.583970 0.528500 -0.419382
O14   O     O_2   0.373560 0.329680 0.473470 -0.409509
O15   O     O_3   0.569286 0.300289 0.380621 -0.667098
O16   O     O_2   0.454871 0.474032 0.709327 -0.352384
O17   O     O_3   0.450688 0.335154 0.701100 -0.564258
O18   O     O_2   0.759117 0.543543 0.878521 -0.485399
O19   O     O_2   0.223135 0.446412 0.826306 -0.423688
O20   O     O_2   0.424698 0.451198 0.119909 -0.503334
O21   O     O_2   0.973424 0.558759 0.172191 -0.397972
O22   O     O_3   0.657500 0.588540 0.395070 -0.357519
O23   O     O_2   0.766581 0.530032 0.293443 -0.311486
O24   O     O_3   0.038412 0.348923 0.355721 -0.532382
O25   O     O_3   0.735548 0.663536 0.294686 -0.520257
O26   O     O_2   0.816140 0.670340 0.526560 -0.481490
O27   O     O_3   0.069580 0.624410 0.423530 -0.389280
O28   O     O_2   0.958112 0.750078 0.458788 -0.443459
P1    P     P_3+3 0.067040 0.441110 0.370020 1.280194
P2    P     P_3+3 0.640420 0.660110 0.543790 1.124740
P3    P     P_3+3 0.096854 0.716579 0.423373 1.221925
P4    P     P_3+3 0.122660 0.558950 0.629980 1.122498
P5    P     P_3+3 0.097017 0.283718 0.579485 1.018492
P6    P     P_3+3 0.648022 0.583986 0.317732 1.367076
P7    P     P_3+3 0.556898 0.327196 0.456298 1.130853
P8    P     P_3+3 0.553290 0.413770 0.681319 1.185040
F1    F     F_    0.588163 0.728130 0.362546 -0.755351
F2    F     F_    0.261253 0.790905 0.663325 -0.598232
F3    F     F_    0.196841 0.803839 0.570087 -0.754607
F4    F     F_    0.001617 0.772637 0.633029 -0.616430
H15   H     H_    0.880071 0.339746 0.424299 -0.101691
H16   H     H_    0.076262 0.218249 0.371702 0.157942
H17   H     H_    0.807763 0.609651 0.634973 -0.070254
F5    F     F_    0.805160 0.697010 0.729666 -0.589567
F6    F     F_    0.701520 0.587483 0.744791 -0.742667
H18   H     H_    0.564045 0.665544 0.726980 0.054645
H19   H     H_    0.516585 0.700124 0.276330 -0.029465
H20   H     H_    0.617034 0.826326 0.290694 0.048038
F7    F     F_    0.347012 0.351976 0.355553 -0.789391
F8    F     F_    0.586996 0.416870 0.360706 -0.688482
H21   H     H_    0.478219 0.274540 0.269313 -0.013472
H22   H     H_    0.490945 0.366238 0.254869 -0.032402
F9    F     F_    0.704012 0.326156 0.271584 -0.634904
H23   H     H_    0.230896 0.679131 0.222018 -0.001761
F10   F     F_    0.130792 0.374646 0.697846 -0.697661
H24   H     H_    0.183726 0.278172 0.766782 0.049783
F11   F     F_    0.970727 0.316383 0.791671 -0.660133
H25   H     H_    0.003381 0.221157 0.746138 -0.019947
F12   F     F_    0.668176 0.292273 0.742310 -0.714324
F13   F     F_    0.636721 0.276287 0.643326 -0.804138
H26   H     H_    0.378398 0.195808 0.664530 0.092717
F14   F     F_    0.041942 0.625360 0.303267 -0.692889
H27   H     H_    0.396886 0.209967 0.744064 0.064880
H28   H     H_    0.480153 0.430212 0.012469 0.151701
F15   F     F_    0.433329 0.422787 0.901400 -0.633376
F16   F     F_    0.760313 0.580219 0.097187 -0.579955
F17   F     F_    0.500855 0.575715 0.192535 -0.607687
H29   H     H_    0.710009 0.569962 0.986156 0.155369
F18   F     F_    0.174783 0.566538 0.760042 -0.636189
H30   H     H_    0.730016 0.420289 0.800311 0.187076
F19   F     F_    0.007222 0.439785 0.235409 -0.596805
F20   F     F_    0.383411 0.523162 0.388161 -0.597055
F21   F     F_    0.289653 0.671918 0.331966 -0.830302
F22   F     F_    0.469304 0.170068 0.464807 -0.695481
H31   H     H_    0.702551 0.813146 0.534609 0.182517
H32   H     H_    0.686951 0.054015 0.602153 0.121826
F23   F     F_    0.596001 0.919909 0.599567 -0.625487
F24   F     F_    0.258094 0.869118 0.438322 -0.677399
F25   F     F_    0.022370 0.728143 0.228153 -0.657155
F26   F     F_    0.341054 0.631652 0.470733 -0.655834
H33   H     H_    0.245247 0.767899 0.258769 -0.052821
H34   H     H_    0.312214 0.680684 0.589245 -0.147871

loop_
_geom_bond_atom_site_label_1
_geom_bond_atom_site_label_2
_ccdc_geom_bond_type
O11   P5    S    
C53   C54   A    
Ba1   O12   S    
C39   P2    S    
C53   C57   A    
C6    H25   S    
C32   P6    S    
C39   C40   A    
C2    F1    S    
Ba2   O6    S    
C17   C18   A    
C60   F5    S    
C4    H22   S    
C25   N2    Am   
Ba1   P2    S    
C60   H18   S    
O16   P8    D    
C1    H20   S    
C5    C6    S    
C51   C52   A    
O23   P6    D    
C49   F23   S    
C24   N2    Am   
C2    H19   S    
C28   P4    S    
O8    P7    S    
C3    C4    S    
O4    P4    D    
C38   F26   S    
C26   C27   S    
C33   C35   A    
C46   H10   S    
O12   P1    S    
Ba1   Ba2   S    
C28   C29   D    
C43   P3    S    
C41   C50   S    
O9    P5    S    
C59   O2    S    
C56   C58   S    
C13   C14   A    
C5    O11   S    
C2    O25   S    
C44   C50   A    
Ba1   O8    S    
C47   C55   S    
C54   C55   A    
C34   C45   S    
C59   H17   S    
C16   C17   A    
Ba2   O12   S    
C34   H14   S    
C27   P8    S    
C30   N1    S    
O10   P5    D    
C7    F12   S    
C59   H4    S    
C45   F4    S    
Ba2   P4    S    
C1    H6    S    
C14   C15   A    
C12   F21   S    
C23   H33   S    
O6    P8    S    
C21   C22   A    
C21   H28   S    
O3    P3    S    
C56   O24   S    
C54   F22   S    
C7    C8    S    
C7    O17   S    
C59   C60   S    
C29   F18   S    
Ba1   O13   S    
C6    F11   S    
C27   C37   S    
Ba2   O5    S    
C45   F2    S    
C57   H13   S    
C13   O19   D    
C4    H21   S    
Ba1   O22   S    
C60   F6    S    
C48   C49   A    
C44   C46   A    
C52   C57   A    
C38   C43   A    
C11   N1    Am   
C26   H30   S    
C11   O18   D    
C6    H24   S    
C49   C50   A    
C42   F24   S    
C26   C30   D    
C40   H31   S    
O7    P4    S    
C51   C55   A    
C36   N2    S    
C12   F14   S    
C15   C19   A    
O25   P6    S    
C8    H27   S    
C20   F15   S    
C41   C42   A    
C35   C36   A    
C7    F13   S    
C9    F20   S    
C29   C30   S    
C17   F16   S    
C25   O21   D    
C3    F7    S    
C31   C32   A    
O5    P4    S    
O1    P1    D    
Ba2   O9    S    
O15   P7    S    
C10   C11   A    
Ba2   O14   S    
Ba1   O26   S    
C31   F17   S    
C24   O20   D    
C8    H8    S    
C38   C39   A    
Ba1   P1    S    
C58   H3    S    
O22   P6    S    
C23   F25   S    
Ba1   O1    S    
Ba2   O4    S    
C8    H26   S    
C1    C2    S    
O24   P1    S    
O26   P2    D    
C42   C43   A    
O14   P7    D    
C56   H1    S    
O27   P3    S    
C46   C47   A    
C14   C20   A    
O13   P2    S    
C9    C32   A    
C1    H5    S    
C22   C24   A    
C35   F19   S    
C4    F9    S    
C16   H29   S    
C5    H7    S    
C3    O15   S    
C52   P5    S    
C5    F10   S    
C18   C25   A    
C34   O7    S    
Ba1   O5    S    
C53   P7    S    
O2    P2    S    
C31   C36   A    
C58   H2    S    
C9    C33   A    
C10   C15   A    
C13   N1    Am   
C48   H32   S    
C3    F8    S    
C56   H15   S    
C28   C37   D    
Ba2   O8    S    
C12   C23   S    
Ba2   O13   S    
C33   P1    S    
C34   H34   S    
C58   H16   S    
C45   F3    S    
C18   C19   A    
C47   C48   A    
C40   C41   A    
C19   C22   A    
C10   C16   A    
C37   H9    S    
C20   C21   A    
O17   P8    S    
C12   O3    S    
C23   H23   S    
O28   P3    D    
C44   H11   S    
Ba1   O27   S    
C51   H12   S    
