data_mof_unit_46249.cif
_audit_creation_date              2012-12-10T17:25:29-0500
_audit_creation_method            fapswitch 2.2
_symmetry_space_group_name_H-M    P1
_symmetry_Int_Tables_number       1
_space_group_crystal_system       triclinic
_cell_length_a                    10.112547
_cell_length_b                    10.762121
_cell_length_c                    23.464372
_cell_angle_alpha                 90.259255
_cell_angle_beta                  82.092848
_cell_angle_gamma                 95.462076
_cell_volume                      2517.82544595

loop_
_atom_site_label
_atom_site_type_symbol
_atom_type_description
_atom_site_fract_x
_atom_site_fract_y
_atom_site_fract_z
_atom_type_partial_charge
C1    C     C_R   0.556257 0.732878 0.497837 0.946401
C2    C     C_R   0.384577 0.436689 0.303530 -0.030996
C3    C     C_R   0.610255 0.550045 0.757020 -0.148118
C4    C     C_R   0.387110 0.442517 0.243957 -0.147088
C5    C     C_R   0.495641 0.496522 0.791595 0.302819
C6    C     C_R   0.499954 0.497433 0.208697 0.301602
C7    C     C_2   0.588519 0.865364 0.502455 -0.392878
C8    C     C_2   0.412744 0.134998 0.516057 -0.381377
C9    C     C_2   0.490396 0.933881 0.523536 -0.154238
C10   C     C_2   0.513738 0.066797 0.521307 -0.136663
C11   C     C_2   0.928136 0.512409 0.503684 -0.123494
C12   C     C_R   0.443968 0.267164 0.505940 0.938003
C13   C     C_2   0.071749 0.487271 0.496494 -0.121832
C14   C     C_R   0.501663 0.502057 0.610402 0.856857
C15   C     C_R   0.498229 0.497610 0.389635 0.865033
C16   C     C_R   0.485487 0.384781 0.120464 0.486690
C17   C     C_R   0.507496 0.609228 0.879893 0.486946
C18   C     C_R   0.518726 0.607368 0.118462 0.504213
C19   C     C_R   0.473291 0.386677 0.881993 0.504343
C20   C     C_R   0.521773 0.608816 0.058886 -0.042434
C21   C     C_R   0.469603 0.385325 0.941608 -0.042572
C22   C     C_R   0.496532 0.495837 0.030151 -0.036341
C23   C     C_R   0.384681 0.446617 0.766804 -0.095450
C24   C     C_R   0.494941 0.498324 0.970333 -0.036393
C25   C     C_R   0.472132 0.380977 0.061308 -0.057023
C26   C     C_R   0.519699 0.613169 0.939155 -0.057195
C27   C     C_R   0.551018 0.721319 0.028118 -0.180417
C28   C     C_R   0.439983 0.272887 0.972415 -0.180477
C29   C     C_R   0.555884 0.725883 0.968161 0.093316
C30   C     C_R   0.435471 0.268336 0.032359 0.093665
C31   C     C_3   0.604632 0.848230 0.935441 -0.336427
C32   C     C_3   0.677094 0.951643 0.968608 -0.445285
C33   C     C_3   0.731179 0.063348 0.929535 -0.811108
C34   C     C_R   0.611134 0.549614 0.232753 -0.094342
C35   C     C_3   0.386705 0.146078 0.065138 -0.336549
C36   C     C_3   0.313191 0.043023 0.032156 -0.445169
C37   C     C_3   0.259024 0.931465 0.071308 -0.811044
C38   C     C_R   0.730400 0.632637 0.664360 0.130736
C39   C     C_R   0.862083 0.612315 0.672189 -0.151263
C40   C     C_R   0.970640 0.692531 0.646694 -0.159881
C41   C     C_R   0.949129 0.792749 0.612574 -0.152183
C42   C     C_R   0.818821 0.813377 0.604243 -0.130271
C43   C     C_R   0.709687 0.734258 0.630249 -0.095847
C44   C     C_R   0.271081 0.359982 0.337463 0.131401
C45   C     C_R   0.388880 0.449025 0.707534 -0.237265
C46   C     C_R   0.295368 0.261752 0.372812 -0.094950
C47   C     C_R   0.188643 0.181805 0.400195 -0.130948
C48   C     C_R   0.057157 0.197946 0.391934 -0.147984
C49   C     C_R   0.032098 0.294470 0.356470 -0.161546
C50   C     C_R   0.138213 0.375729 0.329684 -0.152383
C51   C     C_R   0.608544 0.548866 0.291956 -0.237287
C52   C     C_R   0.503106 0.503451 0.672404 -0.082142
C53   C     C_R   0.495820 0.493769 0.327739 -0.084285
C54   C     C_R   0.614608 0.557345 0.697396 -0.031184
H1    H     H_    0.572485 0.805584 0.051573 0.187085
H2    H     H_    0.303329 0.399636 0.224282 0.144457
H3    H     H_    0.616993 0.107865 0.518841 0.185716
H4    H     H_    0.388802 0.892727 0.537916 0.185485
H5    H     H_    0.309857 0.093345 0.518467 0.142250
H6    H     H_    0.689732 0.907011 0.487951 0.145313
H7    H     H_    0.105932 0.414120 0.467817 0.185468
H8    H     H_    0.893855 0.585276 0.532514 0.185744
H9    H     H_    0.806633 0.035304 0.894038 0.264123
H10   H     H_    0.648189 0.101951 0.911027 0.279543
H11   H     H_    0.779820 0.137482 0.954865 0.252704
H12   H     H_    0.418271 0.188630 0.948991 0.187032
H13   H     H_    0.607169 0.985555 0.004603 0.230825
H14   H     H_    0.762277 0.914672 0.986237 0.241056
H15   H     H_    0.678188 0.826516 0.897862 0.240913
H16   H     H_    0.517482 0.886218 0.919912 0.240651
H17   H     H_    0.342107 0.892349 0.089533 0.279439
H18   H     H_    0.184272 0.959849 0.107005 0.264172
H19   H     H_    0.209510 0.857615 0.046117 0.252591
H20   H     H_    0.227946 0.080465 0.014772 0.241104
H21   H     H_    0.382441 0.008784 0.995997 0.230757
H22   H     H_    0.473972 0.107688 0.080372 0.240572
H23   H     H_    0.123104 0.622689 0.548902 0.167420
H24   H     H_    0.313866 0.168021 0.102931 0.240516
H25   H     H_    0.880460 0.535639 0.698865 0.131734
H26   H     H_    0.071552 0.677080 0.653494 0.143252
H27   H     H_    0.033409 0.854614 0.592756 0.129044
H28   H     H_    0.802326 0.892003 0.578429 0.131754
H29   H     H_    0.609058 0.754248 0.625063 0.112533
H30   H     H_    0.396944 0.245095 0.378069 0.109164
H31   H     H_    0.208001 0.106029 0.427070 0.128259
H32   H     H_    0.974742 0.135406 0.412818 0.130485
H33   H     H_    0.930308 0.306321 0.349666 0.143562
H34   H     H_    0.877109 0.377836 0.450797 0.167961
H35   H     H_    0.116987 0.449719 0.302144 0.131998
H36   H     H_    0.295124 0.406331 0.793526 0.150986
H37   H     H_    0.699449 0.590818 0.205518 0.151413
H38   H     H_    0.302567 0.408046 0.689016 0.164044
H39   H     H_    0.694742 0.591895 0.309923 0.163450
H40   H     H_    0.693977 0.591033 0.777290 0.143663
N1    N     N_R   0.502221 0.496636 0.147671 -0.342404
N2    N     N_R   0.491115 0.497325 0.852711 -0.342499
N3    N     N_2   0.842710 0.448880 0.476480 -0.200785
N4    N     N_2   0.157290 0.551120 0.523520 -0.200358
O1    O     O_R   0.431060 0.692470 0.504730 -0.610982
O2    O     O_2   0.507980 0.715192 0.849412 -0.584346
O3    O     O_2   0.531859 0.715847 0.147237 -0.576709
O4    O     O_2   0.459689 0.278214 0.853244 -0.576761
O5    O     O_R   0.568940 0.307530 0.495270 -0.613320
O6    O     O_R   0.651120 0.659650 0.489640 -0.610026
O7    O     O_R   0.348880 0.340350 0.510360 -0.609481
O8    O     O_R   0.389950 0.516450 0.591390 -0.617546
O9    O     O_R   0.610050 0.483550 0.408610 -0.613507
O10   O     O_R   0.610020 0.483630 0.576300 -0.603168
O11   O     O_R   0.389980 0.516370 0.423700 -0.599245
O12   O     O_2   0.486007 0.278728 0.150753 -0.584485
Zn1   Zn    Zn3+2 0.353060 0.521920 0.510080 0.945197
Zn2   Zn    Zn3+2 0.646940 0.478080 0.489920 0.944487

loop_
_geom_bond_atom_site_label_1
_geom_bond_atom_site_label_2
_ccdc_geom_bond_type
C23   C45   A    
C27   C29   A    
C43   H29   S    
O9    Zn2   S    
C15   O11   A    
C2    C4    A    
C35   C36   S    
C42   H28   S    
C11   H8    S    
C1    O1    A    
C16   O12   S    
C34   C51   A    
C30   C35   S    
C17   C26   A    
C47   H31   S    
C36   C37   S    
C19   C21   A    
C24   C26   A    
O11   Zn1   S    
C8    H5    S    
C38   C39   A    
C3    C54   A    
C27   H1    S    
C16   C25   A    
C9    H4    S    
C41   C42   A    
C15   O9    A    
C13   N4    D    
C45   H38   S    
C49   H33   S    
C34   H37   S    
C31   H16   S    
C14   C52   S    
C31   C32   S    
C44   C46   A    
C22   C25   A    
C38   C54   S    
C40   H26   S    
C9    C10   S    
C18   C20   A    
H34   N3    S    
C33   H9    S    
C32   H14   S    
C14   O10   A    
O7    Zn1   S    
O1    Zn1   S    
C4    H2    S    
C18   N1    A    
C52   C54   A    
O8    Zn1   S    
C35   H22   S    
C33   H11   S    
C10   H3    S    
C12   O5    A    
C4    C6    A    
C2    C44   S    
C39   C40   A    
O6    Zn2   S    
N3    Zn2   S    
C45   C52   A    
O10   Zn2   S    
O5    Zn2   S    
C51   C53   A    
C18   O3    S    
C39   H25   S    
C28   H12   S    
C36   H21   S    
C50   H35   S    
C47   C48   A    
C5    C23   A    
C31   H15   S    
C8    C12   S    
C41   H27   S    
C23   H36   S    
H23   N4    S    
C17   N2    A    
C1    O6    A    
C36   H20   S    
C51   H39   S    
C32   H13   S    
C46   H30   S    
C48   C49   A    
C21   C28   A    
C20   C22   A    
C49   C50   A    
C37   H17   S    
C22   C24   A    
C21   C24   A    
C42   C43   A    
C15   C53   S    
C7    H6    S    
C5    N2    S    
C44   C50   A    
C25   C30   A    
C7    C9    D    
C37   H19   S    
C46   C47   A    
C40   C41   A    
C16   N1    A    
N4    Zn1   S    
C1    C7    S    
C3    C5    A    
C2    C53   A    
C20   C27   A    
C35   H24   S    
C11   N3    D    
C32   C33   S    
C28   C30   A    
C38   C43   A    
C29   C31   S    
C11   C13   S    
C12   O7    A    
C33   H10   S    
C19   O4    S    
C3    H40   S    
C48   H32   S    
C17   O2    S    
C6    C34   A    
C14   O8    A    
C13   H7    S    
C26   C29   A    
C8    C10   D    
C6    N1    S    
C37   H18   S    
C19   N2    A    
