data_mof_unit_18167.cif
_audit_creation_date              2013-03-05T16:01:46-0500
_audit_creation_method            fapswitch 2.2
_symmetry_space_group_name_H-M    P1
_symmetry_Int_Tables_number       1
_space_group_crystal_system       triclinic
_cell_length_a                    14.856347
_cell_length_b                    14.038899
_cell_length_c                    11.534189
_cell_angle_alpha                 89.942516
_cell_angle_beta                  89.731937
_cell_angle_gamma                 90.074238
_cell_volume                      2405.6187983

loop_
_atom_site_label
_atom_site_type_symbol
_atom_site_description
_atom_site_fract_x
_atom_site_fract_y
_atom_site_fract_z
_atom_type_partial_charge
O1    O     O_R   0.367850 0.580280 0.500030 -0.623153
O2    O     O_R   0.632150 0.419720 0.499970 -0.620522
O3    O     O_R   0.632150 0.580280 0.499970 -0.624063
O4    O     O_R   0.367850 0.419720 0.500030 -0.619598
C1    C     C_R   0.326908 0.499800 0.499507 0.898531
C2    C     C_R   0.673161 0.499926 0.501212 0.898794
O5    O     O_R   0.500010 0.580270 0.334450 -0.613756
O6    O     O_R   0.499990 0.419730 0.665550 -0.613775
O7    O     O_R   0.499990 0.580270 0.665550 -0.614350
O8    O     O_R   0.500010 0.419730 0.334450 -0.614989
C3    C     C_R   0.500005 0.500040 0.281789 0.901586
C4    C     C_R   0.499950 0.499964 0.718212 0.900277
Zn1   Zn    Zn3+2 0.500000 0.607200 0.500000 0.940128
Zn2   Zn    Zn3+2 0.500000 0.392800 0.500000 0.944957
C5    C     C_1   0.499904 0.500106 0.161431 -0.194248
C6    C     C_1   0.499945 0.499916 0.838572 -0.195602
C7    C     C_1   0.499875 0.500067 0.059288 -0.000266
C8    C     C_1   0.499914 0.499971 0.940716 -0.000974
C9    C     C_R   0.812480 0.471668 0.402309 -0.294237
C10   C     C_R   0.187674 0.490588 0.604053 -0.296993
C11   C     C_R   0.769035 0.497852 0.503752 -0.066791
C12   C     C_R   0.231140 0.497519 0.498068 -0.063993
C13   C     C_R   0.814917 0.509757 0.608411 0.137757
C14   C     C_R   0.185486 0.489895 0.392764 0.143637
C15   C     C_R   0.906777 0.484685 0.612007 0.070930
C16   C     C_R   0.093437 0.465340 0.395736 0.070016
C17   C     C_R   0.953184 0.471954 0.505100 -0.068471
C18   C     C_R   0.047005 0.471837 0.503495 -0.069655
C19   C     C_R   0.905633 0.463010 0.399399 0.086491
C20   C     C_R   0.094525 0.481859 0.609124 0.086445
C21   C     C_R   0.953938 0.471783 0.717554 0.181027
C22   C     C_R   0.046120 0.434804 0.295830 0.178395
C23   C     C_R   0.048590 0.478812 0.717030 0.192788
C24   C     C_R   0.951512 0.441812 0.294593 0.190371
H1    H     H_    0.772058 0.460544 0.325601 0.153461
H2    H     H_    0.228096 0.493752 0.681844 0.151810
C25   C     C_R   0.559745 0.797891 0.431963 -0.035175
C26   C     C_R   0.438501 0.202120 0.565379 -0.032915
C27   C     C_R   0.440292 0.797618 0.568081 -0.032951
C28   C     C_R   0.561512 0.202403 0.434631 -0.031997
N1    N     N_R   0.500000 0.750030 0.500000 -0.111395
N2    N     N_R   0.500000 0.249970 0.500000 -0.111050
C29   C     C_R   0.438693 0.898639 0.571323 -0.021647
C30   C     C_R   0.564423 0.101397 0.433377 -0.021900
C31   C     C_R   0.561372 0.898927 0.428746 -0.021464
C32   C     C_R   0.435622 0.101104 0.566667 -0.021756
C33   C     C_R   0.500031 0.949506 0.500031 -0.016066
C34   C     C_R   0.500026 0.050522 0.500026 -0.016451
C35   C     C_R   0.377230 0.949269 0.643121 0.196170
C36   C     C_R   0.629408 0.050797 0.366930 0.197143
C37   C     C_R   0.622856 0.949851 0.356974 0.195767
C38   C     C_R   0.370663 0.050207 0.633147 0.195790
H3    H     H_    0.606657 0.755933 0.381709 0.151688
H4    H     H_    0.392770 0.244065 0.617435 0.151004
H5    H     H_    0.393381 0.755455 0.618346 0.151450
H6    H     H_    0.607235 0.244560 0.382562 0.150447
C39   C     C_3   0.767106 0.558567 0.708655 -0.902838
H7    H     H_    0.814623 0.587280 0.773509 0.253804
H8    H     H_    0.729727 0.621727 0.676846 0.253828
H9    H     H_    0.718602 0.508907 0.750505 0.233096
C40   C     C_3   0.233713 0.519940 0.282208 -0.910479
H10   H     H_    0.273887 0.585399 0.297910 0.245661
H11   H     H_    0.280031 0.462850 0.252558 0.238307
H12   H     H_    0.186207 0.539451 0.212419 0.255419
C41   C     C_3   0.906270 0.434275 0.825030 -0.915235
H13   H     H_    0.900591 0.490729 0.891974 0.241451
H14   H     H_    0.838594 0.405455 0.805121 0.256758
H15   H     H_    0.944288 0.373218 0.861577 0.247584
C42   C     C_3   0.093528 0.379927 0.200120 -0.908532
H16   H     H_    0.160604 0.354002 0.227419 0.255511
H17   H     H_    0.054737 0.314580 0.178881 0.248537
H18   H     H_    0.100301 0.424241 0.120799 0.240143
C43   C     C_3   0.100492 0.483089 0.830258 -0.930429
H19   H     H_    0.057126 0.485754 0.908469 0.249940
H20   H     H_    0.144800 0.419768 0.837829 0.242518
H21   H     H_    0.141872 0.548968 0.832662 0.239091
C44   C     C_3   0.899645 0.427314 0.182590 -0.930036
H22   H     H_    0.943083 0.417381 0.105322 0.252920
H23   H     H_    0.855336 0.363865 0.190623 0.244361
H24   H     H_    0.858278 0.491324 0.164099 0.237294
C45   C     C_3   0.322333 0.895607 0.733390 -0.930026
H25   H     H_    0.296530 0.942031 0.803604 0.256582
H26   H     H_    0.265384 0.858135 0.691210 0.242885
H27   H     H_    0.365405 0.843161 0.779062 0.234435
C46   C     C_3   0.707526 0.104474 0.311969 -0.932682
H28   H     H_    0.765737 0.058114 0.291604 0.256709
H29   H     H_    0.684797 0.141310 0.232105 0.241389
H30   H     H_    0.735017 0.157469 0.373854 0.236230
C47   C     C_3   0.677788 0.896488 0.266744 -0.929427
H31   H     H_    0.703637 0.943096 0.196557 0.256511
H32   H     H_    0.734709 0.859089 0.308970 0.242732
H33   H     H_    0.634729 0.844010 0.221032 0.234658
C48   C     C_3   0.292547 0.103559 0.688116 -0.929666
H34   H     H_    0.234362 0.056988 0.708551 0.256479
H35   H     H_    0.315293 0.140373 0.767939 0.241794
H36   H     H_    0.265015 0.156529 0.626196 0.236068

loop_
_geom_bond_atom_site_label_1
_geom_bond_atom_site_label_2
_geom_bond_distance
_ccdc_geom_bond_type
C15   C21   1.419023 A    
C16   C22   1.419011 A    
C48   H34   1.107494 S    
C17   C19   1.417518 A    
C43   H19   1.106782 S    
O3    C2    1.282896 A    
Zn1   N1    2.005176 S    
C45   H25   1.107423 S    
C27   N1    1.358630 A    
C10   C20   1.390061 A    
C44   H22   1.106920 S    
O5    C3    1.280212 A    
C14   C40   1.518853 S    
O1    C1    1.282505 A    
C9    C11   1.383899 A    
C14   C16   1.410119 A    
C26   N2    1.358534 A    
C42   H16   1.108274 S    
C24   C44   1.521034 S    
C39   H8    1.109835 S    
C31   C37   1.421556 A    
C32   C38   1.421285 A    
C5    C7    1.178141 T    
C35   C45   1.518442 S    
C42   H17   1.110918 S    
O7    Zn1   1.946180 S    
C36   C46   1.518708 S    
C3    C5    1.388246 S    
C27   H5    1.080126 S    
C1    C12   1.423253 S    
C4    C6    1.388259 S    
C41   H14   1.108421 S    
C21   C23   1.409499 A    
C47   H32   1.110158 S    
O3    Zn1   1.999790 S    
Zn2   N2    2.005177 S    
C25   H3    1.080118 S    
C41   H15   1.110951 S    
C31   C33   1.416534 A    
C48   H35   1.110137 S    
O4    Zn2   1.999791 S    
C43   H20   1.110442 S    
O2    C2    1.279701 A    
C45   H26   1.110156 S    
C36   C37   1.425172 A    
C44   H23   1.110445 S    
C32   C34   1.416531 A    
C46   H29   1.110141 S    
O8    Zn2   1.946181 S    
C21   C41   1.518227 S    
C29   C35   1.421480 A    
C39   H9    1.110436 S    
C27   C29   1.418985 A    
C28   H6    1.080196 S    
C46   H28   1.107490 S    
C2    C11   1.425110 S    
C19   C24   1.417043 A    
C22   C24   1.409233 A    
C42   H18   1.109984 S    
C33   C34   1.418146 A    
C26   H4    1.080175 S    
C28   C30   1.418803 A    
O6    C4    1.280272 A    
C35   C38   1.425109 A    
C40   H11   1.110227 S    
C7    C8    1.367624 S    
C38   C48   1.518585 S    
C47   H33   1.110263 S    
C23   C43   1.520940 S    
C10   C12   1.383134 A    
C48   H36   1.110323 S    
C11   C13   1.399142 A    
C43   H21   1.110310 S    
C12   C14   1.398035 A    
O1    Zn1   1.998830 S    
C25   C31   1.419047 A    
C9    C19   1.389647 A    
C45   H27   1.110261 S    
C46   H30   1.110328 S    
C30   C36   1.421284 A    
C13   C39   1.518591 S    
O6    Zn2   1.946924 S    
C20   C23   1.417201 A    
O4    C1    1.278951 A    
C22   C42   1.517918 S    
C15   C17   1.421477 A    
C16   C18   1.421742 A    
C18   C20   1.417993 A    
C9    H1    1.082973 S    
C37   C47   1.518405 S    
C40   H12   1.107464 S    
C44   H24   1.110393 S    
C39   H7    1.106880 S    
C28   N2    1.358556 A    
C13   C15   1.410597 A    
C25   N1    1.358678 A    
C40   H10   1.110599 S    
O2    Zn2   1.998828 S    
O7    C4    1.280084 A    
C26   C32   1.418809 A    
O8    C3    1.280131 A    
C10   H2    1.082921 S    
O5    Zn1   1.946926 S    
C6    C8    1.178145 T    
C41   H13   1.110066 S    
C17   C18   1.393869 A    
C47   H31   1.107424 S    
C29   C33   1.416557 A    
C30   C34   1.416542 A    
