data_mof_unit_20446.cif
_audit_creation_date              2012-12-10T17:47:44-0500
_audit_creation_method            fapswitch 2.2
_symmetry_space_group_name_H-M    P1
_symmetry_Int_Tables_number       1
_space_group_crystal_system       triclinic
_cell_length_a                    14.689206
_cell_length_b                    14.753709
_cell_length_c                    14.325501
_cell_angle_alpha                 76.88512
_cell_angle_beta                  101.486768
_cell_angle_gamma                 115.53615
_cell_volume                      2710.08170588

loop_
_atom_site_label
_atom_site_type_symbol
_atom_type_description
_atom_site_fract_x
_atom_site_fract_y
_atom_site_fract_z
_atom_type_partial_charge
C1    C     C_R   0.879786 0.312112 0.516721 0.810867
C2    C     C_R   0.119992 0.687899 0.487414 0.796715
C3    C     C_R   0.638009 0.076717 0.553122 0.003660
C4    C     C_R   0.357395 0.924215 0.527488 0.047237
C5    C     C_R   0.675964 0.999382 0.586150 0.155024
C6    C     C_R   0.318611 0.001640 0.505459 0.050419
C7    C     C_R   0.531947 0.051774 0.545017 0.016734
C8    C     C_R   0.463095 0.949054 0.555028 0.058396
C9    C     C_R   0.501931 0.874134 0.593564 -0.293089
C10   C     C_R   0.492993 0.126532 0.531174 -0.188446
C11   C     C_R   0.605989 0.897773 0.609352 0.150590
C12   C     C_R   0.389207 0.103178 0.514789 0.127357
C13   C     C_R   0.680310 0.578748 0.300767 0.041392
C14   C     C_R   0.281373 0.340749 0.678168 0.030214
C15   C     C_R   0.777953 0.591960 0.345928 0.050458
C16   C     C_R   0.200842 0.371084 0.640470 0.038932
C17   C     C_R   0.722294 0.535200 0.501383 0.271474
C18   C     C_R   0.283499 0.473587 0.502421 0.255475
C19   C     C_R   0.618513 0.506281 0.460275 -0.078725
C20   C     C_R   0.359862 0.433473 0.530255 -0.042129
C21   C     C_R   0.598867 0.529297 0.358112 0.070245
C22   C     C_R   0.364607 0.377221 0.623932 0.051901
C23   C     C_R   0.999625 0.499926 0.668641 0.810991
C24   C     C_R   0.000417 0.500185 0.331341 0.810961
C25   C     C_R   0.533499 0.457705 0.515660 0.080765
C26   C     C_R   0.437347 0.455242 0.471974 0.122805
C27   C     C_R   0.418552 0.464212 0.371420 -0.217102
C28   C     C_R   0.537389 0.402377 0.609199 -0.223788
C29   C     C_R   0.497681 0.501718 0.315307 -0.205408
C30   C     C_R   0.453192 0.359471 0.660814 -0.175626
C31   C     C_1   0.999160 0.500224 0.770842 -0.208086
C32   C     C_1   0.000904 0.500166 0.229069 -0.210104
C33   C     C_1   0.999244 0.500352 0.856303 -0.013936
C34   C     C_1   0.000744 0.500246 0.143539 -0.015198
C35   C     C_1   0.999709 0.500385 0.957100 -0.000708
C36   C     C_1   0.000215 0.500344 0.042696 -0.000677
C37   C     C_R   0.811071 0.203953 0.536366 -0.079465
C38   C     C_R   0.187165 0.795942 0.490160 -0.114849
C39   C     C_R   0.782561 0.026932 0.595127 0.175458
C40   C     C_R   0.211820 0.972248 0.475307 0.155515
C41   C     C_R   0.848611 0.128846 0.571348 -0.272318
C42   C     C_R   0.148457 0.870328 0.470000 -0.167673
C43   C     C_R   0.706655 0.176984 0.525148 -0.245933
C44   C     C_R   0.290562 0.823686 0.516868 -0.245782
Cu1   Cu    Cu3+1 0.081740 0.475690 0.523180 0.913796
Cu2   Cu    Cu3+1 0.918260 0.524310 0.476820 0.915514
H1    H     H_    0.341788 0.437873 0.335675 0.134534
H2    H     H_    0.603616 0.387359 0.641377 0.134105
H3    H     H_    0.318016 0.765174 0.526543 0.171247
H4    H     H_    0.679829 0.235588 0.491982 0.163236
H5    H     H_    0.067966 0.849733 0.447927 0.169340
H6    H     H_    0.929682 0.148894 0.580455 0.158040
H7    H     H_    0.452916 0.795976 0.616381 0.143192
H8    H     H_    0.542218 0.204658 0.538209 0.163722
H9    H     H_    0.478100 0.509604 0.237928 0.138349
H10   H     H_    0.460347 0.315830 0.731389 0.135033
H11   H     H_    0.135048 0.343224 0.678252 0.163119
H12   H     H_    0.840730 0.623429 0.303780 0.160164
N1    N     N_R   0.795420 0.560790 0.441960 -0.195383
N2    N     N_R   0.204580 0.439210 0.558040 -0.211663
O1    O     O_R   0.977910 0.338120 0.530560 -0.582149
O2    O     O_R   0.022090 0.661880 0.469440 -0.589234
O3    O     O_R   0.839850 0.379180 0.491410 -0.573324
O4    O     O_R   0.160150 0.620820 0.508590 -0.583140
O5    O     O_R   0.069040 0.479460 0.643530 -0.565901
O6    O     O_R   0.930960 0.520540 0.356470 -0.571170
O7    O     O_R   0.930990 0.520530 0.604380 -0.561052
O8    O     O_R   0.069010 0.479470 0.395620 -0.576423
N3    N     N_3   0.638863 0.816833 0.648049 -0.552609
H13   H     H_    0.610801 0.781830 0.714537 0.216002
H14   H     H_    0.606860 0.762976 0.601337 0.220064
N4    N     N_3   0.361060 0.185197 0.513219 -0.596921
H15   H     H_    0.314178 0.166498 0.566777 0.221561
H16   H     H_    0.329602 0.206869 0.444637 0.223524
N5    N     N_3   0.825172 0.952664 0.628268 -0.557228
H17   H     H_    0.865700 0.955328 0.574671 0.216638
H18   H     H_    0.876546 0.972955 0.689687 0.214481
N6    N     N_3   0.163832 0.042020 0.443313 -0.619424
H19   H     H_    0.195348 0.093249 0.383187 0.221038
H20   H     H_    0.166432 0.077533 0.499502 0.218157
C45   C     C_3   0.299101 0.565711 0.422367 -0.341236
C46   C     C_3   0.397144 0.657494 0.445219 -0.872269
H21   H     H_    0.407255 0.664852 0.522345 0.243649
H22   H     H_    0.464468 0.650244 0.429751 0.262144
H23   H     H_    0.393960 0.728186 0.399916 0.244247
H24   H     H_    0.296376 0.549356 0.350440 0.166590
H25   H     H_    0.237832 0.590798 0.409832 0.253917
C47   C     C_3   0.755363 0.564146 0.601960 -0.398480
C48   C     C_3   0.836301 0.673030 0.600860 -0.766374
H26   H     H_    0.905661 0.683370 0.572739 0.279277
H27   H     H_    0.805789 0.727669 0.555098 0.238997
H28   H     H_    0.857773 0.691139 0.675384 0.233519
H29   H     H_    0.691713 0.564317 0.632283 0.191538
H30   H     H_    0.781327 0.508854 0.652450 0.211860
C49   C     C_3   0.661169 0.612192 0.192231 -0.414434
C50   C     C_3   0.755436 0.674043 0.139142 -0.857621
H31   H     H_    0.805758 0.742868 0.172241 0.250385
H32   H     H_    0.797506 0.626782 0.139838 0.252167
H33   H     H_    0.731683 0.699098 0.062682 0.249991
H34   H     H_    0.614473 0.543596 0.157581 0.207931
H35   H     H_    0.617259 0.659958 0.180546 0.212500
C51   C     C_3   0.279819 0.270115 0.774532 -0.411484
C52   C     C_3   0.183026 0.228452 0.823619 -0.863975
H36   H     H_    0.171506 0.291381 0.842672 0.252269
H37   H     H_    0.116082 0.184570 0.776075 0.244736
H38   H     H_    0.190284 0.176415 0.891335 0.250004
H39   H     H_    0.290692 0.203621 0.762854 0.207495
H40   H     H_    0.344449 0.311489 0.825577 0.208878

loop_
_geom_bond_atom_site_label_1
_geom_bond_atom_site_label_2
_ccdc_geom_bond_type
C44   H3    S    
C7    C10   A    
Cu1   N2    S    
Cu2   N1    S    
C27   C29   A    
C17   C47   S    
C49   C50   S    
C4    C8    A    
C45   C46   S    
C7    C8    A    
C39   C41   A    
Cu1   Cu2   S    
C25   C28   A    
C3    C43   A    
C26   C27   A    
C20   C26   A    
C13   C49   S    
C19   C21   A    
C5    C11   A    
C3    C7    A    
C6    C12   A    
N6    H20   S    
C14   C51   S    
C50   H33   S    
C18   C45   S    
C18   C20   A    
C16   N2    A    
C23   O7    A    
N3    H14   S    
C17   C19   A    
C35   C36   T    
C8    C9    A    
C50   H32   S    
C31   C33   T    
C51   H40   S    
C39   N5    S    
C48   H27   S    
C41   H6    S    
C34   C36   S    
C45   H24   S    
C24   O6    A    
C42   H5    S    
Cu1   O1    S    
C40   C42   A    
C12   N4    S    
N3    H13   S    
C19   C25   A    
C1    O3    A    
C2    O4    A    
C47   H30   S    
N4    H16   S    
N6    H19   S    
C4    C44   A    
C25   C26   A    
C30   H10   S    
C23   C31   S    
C37   C43   A    
N5    H17   S    
C24   C32   S    
C38   C44   A    
N5    H18   S    
C2    C38   S    
C50   H31   S    
Cu1   O8    S    
C13   C21   A    
C51   H39   S    
C52   H37   S    
C48   H28   S    
C9    C11   A    
C45   H25   S    
C10   C12   A    
C17   N1    A    
C40   N6    S    
C18   N2    A    
Cu2   O2    S    
C46   H22   S    
C5    C39   A    
Cu1   O5    S    
C15   H12   S    
C14   C16   A    
C4    C6    A    
C9    H7    S    
C27   H1    S    
C47   H29   S    
C28   H2    S    
C22   C30   A    
C49   H34   S    
C15   N1    A    
C20   C22   A    
N4    H15   S    
C3    C5    A    
C1    O1    A    
C11   N3    S    
C43   H4    S    
Cu2   O6    S    
C1    C37   S    
C46   H23   S    
C29   H9    S    
Cu1   O4    S    
Cu2   O3    S    
C14   C22   A    
C13   C15   A    
Cu2   O7    S    
C23   O5    A    
C21   C29   A    
C28   C30   A    
C33   C35   S    
C52   H38   S    
C6    C40   A    
C16   H11   S    
C37   C41   A    
C51   C52   S    
C10   H8    S    
C24   O8    A    
C38   C42   A    
C2    O2    A    
C47   C48   S    
C46   H21   S    
C52   H36   S    
C48   H26   S    
C49   H35   S    
C32   C34   T    
