data_mof_unit_33744.cif
_audit_creation_date              2012-12-10T20:02:20-0500
_audit_creation_method            fapswitch 2.2
_symmetry_space_group_name_H-M    P1
_symmetry_Int_Tables_number       1
_space_group_crystal_system       triclinic
_cell_length_a                    10.695446
_cell_length_b                    14.988979
_cell_length_c                    14.146141
_cell_angle_alpha                 89.95709
_cell_angle_beta                  89.934231
_cell_angle_gamma                 90.373335
_cell_volume                      2267.77155274

loop_
_atom_site_label
_atom_site_type_symbol
_atom_type_description
_atom_site_fract_x
_atom_site_fract_y
_atom_site_fract_z
_atom_type_partial_charge
C1    C     C_R   0.501306 0.328168 0.499925 0.914077
C2    C     C_R   0.496403 0.672410 0.500049 0.875657
C3    C     C_R   0.872300 0.494892 0.499879 -0.070332
C4    C     C_R   0.127486 0.504504 0.499909 -0.078939
C5    C     C_R   0.938097 0.453168 0.573653 0.000002
C6    C     C_R   0.061451 0.545182 0.425551 -0.008337
C7    C     C_R   0.394321 0.098526 0.548769 -0.180179
C8    C     C_R   0.499887 0.905887 0.412803 -0.196659
C9    C     C_R   0.404488 0.190244 0.552083 -0.282969
C10   C     C_R   0.507183 0.814217 0.415204 -0.280245
C11   C     C_R   0.497209 0.233110 0.499212 -0.133947
C12   C     C_R   0.483565 0.768317 0.499665 -0.153398
C13   C     C_R   0.581016 0.185169 0.442725 0.448056
C14   C     C_R   0.446359 0.815046 0.581703 0.487049
C15   C     C_R   0.574653 0.092891 0.443768 -0.253864
C16   C     C_R   0.447517 0.907381 0.579923 -0.259050
C17   C     C_R   0.480182 0.049500 0.495434 0.073931
C18   C     C_R   0.474088 0.952875 0.495771 0.076842
C19   C     C_R   0.411153 0.450411 0.105316 -0.291716
C20   C     C_R   0.541628 0.574612 0.894908 -0.286311
C21   C     C_R   0.412632 0.451403 0.204640 0.022432
C22   C     C_R   0.540846 0.573353 0.795582 0.025895
C23   C     C_R   0.260007 0.502745 0.499937 0.860220
C24   C     C_R   0.739909 0.497319 0.500021 0.888657
C25   C     C_R   0.588177 0.547950 0.204574 0.014501
C26   C     C_R   0.460217 0.426248 0.795551 0.026251
C27   C     C_R   0.590633 0.548336 0.105257 -0.289417
C28   C     C_R   0.460597 0.424373 0.894877 -0.291895
C29   C     C_R   0.501056 0.499312 0.053454 0.139410
C30   C     C_R   0.501194 0.499394 0.946730 0.133623
C31   C     C_R   0.242336 0.722488 0.290952 -0.124262
C32   C     C_R   0.740991 0.277572 0.697705 -0.118099
C33   C     C_R   0.184590 0.676104 0.365049 -0.122778
C34   C     C_R   0.804591 0.324451 0.626747 -0.122551
C35   C     C_R   0.122234 0.595117 0.347411 0.143851
C36   C     C_R   0.876103 0.400456 0.649392 0.126600
C37   C     C_R   0.117378 0.561647 0.254766 -0.157554
C38   C     C_R   0.884692 0.427982 0.744070 -0.143902
C39   C     C_R   0.176049 0.607935 0.181025 -0.136004
C40   C     C_R   0.820672 0.381019 0.814804 -0.128803
C41   C     C_R   0.238836 0.688148 0.199158 -0.106400
C42   C     C_R   0.748735 0.305986 0.791622 -0.117207
C43   C     C_R   0.933289 0.539471 0.426368 -0.253915
C44   C     C_R   0.066393 0.459740 0.573464 -0.254134
H1    H     H_    0.284224 0.723904 0.142016 0.123101
H2    H     H_    0.698748 0.270028 0.846409 0.126136
H3    H     H_    0.644283 0.055437 0.405204 0.144871
H4    H     H_    0.428700 0.943203 0.644822 0.147815
H5    H     H_    0.338591 0.412716 0.069746 0.129928
H6    H     H_    0.572093 0.634773 0.930523 0.138139
H7    H     H_    0.343106 0.413673 0.243632 0.124065
H8    H     H_    0.572727 0.631470 0.756959 0.161894
H9    H     H_    0.663494 0.585861 0.069642 0.132201
H10   H     H_    0.430775 0.363953 0.930463 0.131605
H11   H     H_    0.289334 0.785257 0.304541 0.135363
H12   H     H_    0.685024 0.219595 0.679758 0.136657
H13   H     H_    0.187753 0.703392 0.435777 0.094327
H14   H     H_    0.797014 0.302332 0.554119 0.147570
H15   H     H_    0.069525 0.499300 0.240004 0.123371
H16   H     H_    0.938845 0.486691 0.762695 0.122800
H17   H     H_    0.173158 0.581487 0.109879 0.130342
H18   H     H_    0.826165 0.403113 0.887520 0.129139
H19   H     H_    0.319510 0.066069 0.587653 0.138963
H20   H     H_    0.517196 0.940107 0.346548 0.138893
H21   H     H_    0.338292 0.227992 0.593863 0.158263
H22   H     H_    0.532548 0.779446 0.350923 0.178581
N1    N     N_R   0.500000 0.499980 0.252470 -0.092933
N2    N     N_R   0.500000 0.500020 0.747530 -0.094675
O1    O     O_R   0.500010 0.369070 0.579480 -0.631329
O2    O     O_R   0.499990 0.630930 0.420520 -0.622561
O3    O     O_R   0.500010 0.369060 0.420520 -0.628218
O4    O     O_R   0.499990 0.630940 0.579480 -0.600866
O5    O     O_R   0.316760 0.500010 0.579480 -0.639915
O6    O     O_R   0.683240 0.499990 0.420520 -0.633790
O7    O     O_R   0.316760 0.500000 0.420520 -0.612167
O8    O     O_R   0.683240 0.500000 0.579480 -0.606669
Zn1   Zn    Zn3+2 0.500000 0.500010 0.606140 0.949789
Zn2   Zn    Zn3+2 0.500000 0.499990 0.393860 0.941219
H23   H     H_    0.657434 0.585819 0.243521 0.119696
H24   H     H_    0.428548 0.368168 0.756893 0.125525
H25   H     H_    0.880826 0.572292 0.370800 0.154768
H26   H     H_    0.118877 0.426790 0.628908 0.157672
O9    O     O_3   0.675753 0.227915 0.393236 -0.670896
C45   C     C_3   0.638525 0.242309 0.298304 0.126591
H27   H     H_    0.656593 0.313672 0.281362 0.184295
H28   H     H_    0.536895 0.229949 0.284491 0.118792
C46   C     C_3   0.716967 0.184965 0.231767 -0.365318
H29   H     H_    0.817893 0.197999 0.244921 0.234649
H30   H     H_    0.697396 0.113276 0.245682 0.211261
C47   C     C_3   0.687597 0.205523 0.128439 -0.979917
H31   H     H_    0.587473 0.191584 0.113263 0.262957
H32   H     H_    0.745790 0.162987 0.081864 0.266249
H33   H     H_    0.708558 0.276636 0.112324 0.266408
O10   O     O_3   0.418015 0.772579 0.666177 -0.653674
C48   C     C_3   0.295611 0.735917 0.662330 0.133253
H34   H     H_    0.291748 0.679280 0.713011 0.175432
H35   H     H_    0.271511 0.707513 0.591870 0.103554
C49   C     C_3   0.197844 0.804801 0.691757 -0.405519
H36   H     H_    0.221001 0.831010 0.763140 0.231680
H37   H     H_    0.198442 0.861350 0.640944 0.214925
C50   C     C_3   0.067034 0.763444 0.693675 -0.942424
H38   H     H_    0.041508 0.737886 0.622488 0.265713
H39   H     H_    0.998016 0.814726 0.714858 0.267616
H40   H     H_    0.062882 0.707684 0.745396 0.260613

loop_
_geom_bond_atom_site_label_1
_geom_bond_atom_site_label_2
_ccdc_geom_bond_type
C46   H29   S    
C50   H38   S    
O2    Zn2   S    
O1    Zn1   S    
C48   H34   S    
C25   N1    A    
C45   C46   S    
C15   H3    S    
C2    C12   S    
C16   H4    S    
C48   C49   S    
C39   C41   A    
C20   C30   A    
C3    C43   A    
C1    O3    A    
C19   C21   A    
C45   H28   S    
C44   H26   S    
C27   C29   A    
C5    C36   S    
C40   H18   S    
C6    C35   S    
C7    C9    A    
C42   H2    S    
C20   H6    S    
O4    Zn1   S    
C7    C17   A    
C1    C11   S    
C31   C33   A    
C40   C42   A    
C50   H39   S    
C21   N1    A    
C3    C24   S    
N1    Zn2   S    
C23   O5    A    
C2    O4    A    
C10   H22   S    
C32   C42   A    
C39   H17   S    
O8    Zn1   S    
C4    C6    A    
C23   O7    A    
C4    C23   S    
C28   H10   S    
C24   O8    A    
C4    C44   A    
C8    C18   A    
C32   C34   A    
C29   C30   S    
C19   H5    S    
C47   H32   S    
O9    C45   S    
C22   N2    A    
C48   H35   S    
C17   C18   S    
C45   H27   S    
C9    C11   A    
C7    H19   S    
C37   H15   S    
C10   C12   A    
C8    H20   S    
C38   H16   S    
C16   C18   A    
C5    C44   A    
C20   C22   A    
C50   H40   S    
C49   H37   S    
C6    C43   A    
C13   C15   A    
C43   H25   S    
C14   C16   A    
C19   C29   A    
C21   H7    S    
C1    O1    A    
C47   H33   S    
C22   H8    S    
N2    Zn1   S    
C15   C17   A    
C33   H13   S    
C31   C41   A    
C35   C37   A    
C25   H23   S    
C12   C14   A    
C3    C5    A    
C26   H24   S    
C27   H9    S    
C25   C27   A    
C49   C50   S    
C13   O9    S    
C26   C28   A    
C26   N2    A    
C28   C30   A    
C37   C39   A    
C41   H1    S    
C38   C40   A    
C11   C13   A    
C24   O6    A    
C47   H31   S    
C36   C38   A    
C33   C35   A    
C14   O10   S    
C34   C36   A    
O10   C48   S    
O7    Zn2   S    
C9    H21   S    
C8    C10   A    
C49   H36   S    
O6    Zn2   S    
C46   C47   S    
C34   H14   S    
C46   H30   S    
O5    Zn1   S    
C31   H11   S    
C2    O2    A    
C32   H12   S    
O3    Zn2   S    
