data_mof_unit_42884.cif
_audit_creation_date              2012-12-10T19:11:06-0500
_audit_creation_method            fapswitch 2.2
_symmetry_space_group_name_H-M    P1
_symmetry_Int_Tables_number       1
_space_group_crystal_system       triclinic
_cell_length_a                    24.51403
_cell_length_b                    24.480541
_cell_length_c                    42.837122
_cell_angle_alpha                 89.958569
_cell_angle_beta                  90.000869
_cell_angle_gamma                 89.960138
_cell_volume                      25707.2600529

loop_
_atom_site_label
_atom_site_type_symbol
_atom_type_description
_atom_site_fract_x
_atom_site_fract_y
_atom_site_fract_z
_atom_type_partial_charge
C1    C     C_R   0.770615 0.272363 0.249649 -0.166331
C2    C     C_R   0.770908 0.729024 0.250242 -0.173915
C3    C     C_R   0.394725 0.105401 0.250001 0.884982
C4    C     C_R   0.894784 0.394787 0.750002 0.922964
C5    C     C_R   0.105145 0.605165 0.250069 0.938017
C6    C     C_R   0.394611 0.105234 0.750108 0.896570
C7    C     C_R   0.605150 0.894822 0.250009 0.925452
C8    C     C_R   0.999815 0.499144 0.131432 -0.250522
C9    C     C_R   0.999996 0.499522 0.868509 -0.251533
C10   C     C_R   0.499961 0.999766 0.131450 -0.245818
C11   C     C_R   0.499563 0.999745 0.868520 -0.243761
C12   C     C_R   0.500157 0.001822 0.631346 -0.255970
C13   C     C_R   0.270110 0.772708 0.751065 -0.170117
C14   C     C_R   0.500179 0.001299 0.368443 -0.243196
C15   C     C_R   0.000003 0.500100 0.631472 -0.252049
C16   C     C_R   0.000072 0.500098 0.368539 -0.252356
C17   C     C_R   0.793234 0.289874 0.278123 0.386152
C18   C     C_R   0.175841 0.741553 0.738883 0.373759
C19   C     C_R   0.713305 0.796970 0.278340 0.392813
C20   C     C_R   0.260550 0.178548 0.736397 0.370258
C21   C     C_R   0.203458 0.713075 0.277881 0.393914
C22   C     C_R   0.825387 0.257381 0.744539 0.361058
C23   C     C_R   0.272829 0.190191 0.274423 0.387862
C24   C     C_R   0.728489 0.229728 0.249561 -0.172482
C25   C     C_R   0.739019 0.821543 0.734829 0.367605
C26   C     C_R   0.206557 0.289676 0.722117 0.386227
C27   C     C_R   0.822516 0.740231 0.262983 0.370192
C28   C     C_R   0.284225 0.798719 0.722884 0.392729
C29   C     C_R   0.739120 0.178995 0.263688 0.371818
C30   C     C_R   0.794353 0.710469 0.721191 0.390354
C31   C     C_R   0.174798 0.257831 0.251762 0.369700
C32   C     C_R   0.722987 0.194273 0.723988 0.402018
C33   C     C_R   0.259712 0.822847 0.263539 0.376071
C34   C     C_R   0.296939 0.786989 0.778974 0.395476
C35   C     C_R   0.771943 0.728942 0.749519 -0.160466
C36   C     C_R   0.677756 0.239838 0.235435 0.373238
C37   C     C_R   0.210502 0.294495 0.778927 0.391691
C38   C     C_R   0.759720 0.677389 0.237453 0.371011
C39   C     C_R   0.692233 0.224796 0.775167 0.402347
C40   C     C_R   0.320597 0.761142 0.235611 0.369435
C41   C     C_R   0.790250 0.707004 0.778025 0.385772
C42   C     C_R   0.244194 0.328860 0.251196 0.370294
C43   C     C_R   0.703203 0.786662 0.221982 0.392848
C44   C     C_R   0.321360 0.239048 0.765167 0.367633
C45   C     C_R   0.788228 0.295681 0.221356 0.390657
C46   C     C_R   0.229915 0.273262 0.251394 -0.131787
C47   C     C_R   0.239560 0.678118 0.763279 0.367808
C48   C     C_R   0.312157 0.230694 0.227715 0.389504
C49   C     C_R   0.679009 0.760785 0.764026 0.370366
C50   C     C_R   0.210138 0.705808 0.221164 0.378888
C51   C     C_R   0.756793 0.326834 0.755191 0.362707
C52   C     C_R   0.837558 0.325861 0.277975 0.296699
C53   C     C_R   0.137720 0.699444 0.735766 0.291359
C54   C     C_R   0.676680 0.840679 0.277786 0.289734
C55   C     C_R   0.302441 0.140065 0.733738 0.298332
C56   C     C_R   0.159788 0.676472 0.277670 0.281982
C57   C     C_R   0.728092 0.229816 0.749667 -0.162054
C58   C     C_R   0.864616 0.298341 0.740716 0.278326
C59   C     C_R   0.309038 0.146415 0.272083 0.305030
C60   C     C_R   0.696615 0.859587 0.732311 0.290341
C61   C     C_R   0.162439 0.325933 0.722161 0.294022
C62   C     C_R   0.861065 0.698378 0.265564 0.294469
C63   C     C_R   0.321173 0.842100 0.723135 0.289177
C64   C     C_R   0.697393 0.140350 0.266303 0.295883
C65   C     C_R   0.838368 0.674181 0.721641 0.287608
C66   C     C_R   0.134580 0.297702 0.255743 0.268531
C67   C     C_R   0.686927 0.150284 0.725592 0.300364
C68   C     C_R   0.269779 0.771953 0.249517 -0.179087
C69   C     C_R   0.301966 0.860888 0.266161 0.296699
C70   C     C_R   0.340919 0.823232 0.778091 0.290089
C71   C     C_R   0.639485 0.197730 0.233164 0.299236
C72   C     C_R   0.174214 0.338512 0.778395 0.287577
C73   C     C_R   0.801588 0.638907 0.234698 0.293970
C74   C     C_R   0.648446 0.188615 0.773454 0.302342
C75   C     C_R   0.359559 0.802640 0.233395 0.299582
C76   C     C_R   0.826446 0.662816 0.777955 0.293297
C77   C     C_R   0.203255 0.368620 0.247924 0.253409
C78   C     C_R   0.659415 0.823174 0.222421 0.289869
C79   C     C_R   0.852067 0.352711 0.249957 -0.384172
C80   C     C_R   0.359545 0.196755 0.767622 0.290572
C81   C     C_R   0.824855 0.339358 0.221856 0.286779
C82   C     C_R   0.198093 0.639174 0.765625 0.294208
C83   C     C_R   0.355046 0.192928 0.228974 0.270103
C84   C     C_R   0.640471 0.802644 0.766625 0.299386
C85   C     C_R   0.174361 0.661122 0.221936 0.276513
C86   C     C_R   0.798187 0.365544 0.759177 0.275903
C87   C     C_3   0.940563 0.391153 0.141669 0.117302
C88   C     C_3   0.910036 0.343466 0.126729 -0.307457
C89   C     C_3   0.929373 0.288862 0.139913 -0.961422
C90   C     C_R   0.147475 0.648378 0.750418 -0.397483
C91   C     C_3   0.057658 0.390612 0.858372 0.116737
C92   C     C_3   0.087489 0.342372 0.873264 -0.306044
C93   C     C_3   0.067293 0.288161 0.860050 -0.966392
C94   C     C_3   0.607417 0.939000 0.141059 0.114533
C95   C     C_3   0.654351 0.906002 0.127086 -0.300764
C96   C     C_3   0.709205 0.924654 0.140098 -0.970750
C97   C     C_3   0.614002 0.057996 0.866757 0.052820
C98   C     C_3   0.644007 0.090676 0.841724 -0.239171
C99   C     C_3   0.702333 0.070371 0.837227 -1.043221
C100  C     C_3   0.061575 0.609015 0.137208 0.111897
C101  C     C_R   0.647537 0.852383 0.250072 -0.391287
C102  C     C_3   0.078430 0.650199 0.112061 -0.371971
C103  C     C_3   0.069684 0.708816 0.123083 -0.967259
C104  C     C_3   0.941935 0.608751 0.859631 0.108609
C105  C     C_3   0.911267 0.656098 0.874876 -0.304069
C106  C     C_3   0.930538 0.711009 0.862120 -0.964369
C107  C     C_3   0.388238 0.060661 0.135461 0.075241
C108  C     C_3   0.358216 0.100538 0.156784 -0.265857
C109  C     C_3   0.300990 0.080502 0.164839 -1.046437
C110  C     C_3   0.391509 0.940399 0.858352 0.116554
C111  C     C_3   0.343959 0.907455 0.871643 -0.298870
C112  C     C_R   0.227787 0.730184 0.751181 -0.175086
C113  C     C_R   0.351804 0.147796 0.750432 -0.393783
C114  C     C_3   0.289698 0.926166 0.857821 -0.973803
C115  C     C_3   0.426604 0.900874 0.636988 0.112730
C116  C     C_3   0.392189 0.861032 0.617884 -0.318211
C117  C     C_3   0.405891 0.801929 0.626062 -0.966326
C118  C     C_3   0.559252 0.892666 0.359767 0.112261
C119  C     C_3   0.593088 0.845458 0.372826 -0.298274
C120  C     C_3   0.574221 0.790791 0.359584 -0.971538
C121  C     C_3   0.108930 0.441530 0.640698 0.109490
C122  C     C_3   0.156175 0.410660 0.625513 -0.304377
C123  C     C_3   0.211012 0.429739 0.638347 -0.963885
C124  C     C_R   0.146908 0.648173 0.249897 -0.370561
C125  C     C_3   0.107714 0.560246 0.358857 0.116588
C126  C     C_3   0.154893 0.592140 0.373349 -0.306710
C127  C     C_3   0.209686 0.572906 0.360495 -0.962527
C128  C     C_3   0.578542 0.099002 0.641405 0.138348
C129  C     C_3   0.606705 0.141004 0.620490 -0.344632
C130  C     C_3   0.599061 0.198783 0.633101 -0.979169
C131  C     C_3   0.441613 0.115329 0.363947 0.064055
C132  C     C_3   0.405091 0.144858 0.340481 -0.251672
C133  C     C_3   0.426078 0.202139 0.333181 -1.050936
C134  C     C_3   0.891284 0.557878 0.641190 0.115281
C135  C     C_R   0.852133 0.352463 0.749957 -0.387355
C136  C     C_3   0.843266 0.587683 0.626099 -0.306057
C137  C     C_3   0.788978 0.567238 0.639025 -0.966664
C138  C     C_3   0.891875 0.440573 0.359320 0.112093
C139  C     C_3   0.844843 0.410215 0.375026 -0.306685
C140  C     C_3   0.789841 0.428897 0.362178 -0.964744
C141  C     C_3   0.729187 0.298116 0.316596 0.124606
C142  C     C_3   0.721789 0.288489 0.351406 -0.845833
C143  C     C_3   0.136380 0.823235 0.750350 0.119432
C144  C     C_3   0.118407 0.877556 0.736512 -0.837682
C145  C     C_3   0.708678 0.737045 0.319055 0.127545
C146  C     C_R   0.352460 0.148574 0.250272 -0.390670
C147  C     C_3   0.721043 0.733153 0.353763 -0.839711
C148  C     C_3   0.176857 0.140508 0.743931 0.117368
C149  C     C_3   0.127708 0.117642 0.726683 -0.831435
C150  C     C_3   0.265439 0.704954 0.317284 0.127283
C151  C     C_3   0.272918 0.717080 0.351818 -0.837879
C152  C     C_3   0.863914 0.183627 0.768176 0.131247
C153  C     C_3   0.868354 0.121756 0.766454 -0.870423
C154  C     C_3   0.254257 0.221772 0.323547 0.115631
C155  C     C_3   0.239528 0.193127 0.353901 -0.822123
C156  C     C_3   0.820176 0.866512 0.738825 0.116214
C157  C     C_R   0.647873 0.851871 0.749674 -0.395533
C158  C     C_3   0.872274 0.880783 0.721378 -0.841698
C159  C     C_3   0.270867 0.299016 0.684010 0.128713
C160  C     C_3   0.279831 0.288794 0.649384 -0.847848
C161  C     C_3   0.859913 0.823364 0.252724 0.121583
C162  C     C_3   0.879051 0.876246 0.267737 -0.833732
C163  C     C_3   0.287263 0.740095 0.681570 0.130782
C164  C     C_3   0.272737 0.736880 0.647125 -0.840322
C165  C     C_3   0.822722 0.140947 0.255809 0.117334
C166  C     C_3   0.873702 0.120847 0.272477 -0.833300
C167  C     C_3   0.731166 0.699185 0.682692 0.125895
C168  C     C_R   0.147672 0.352518 0.750183 -0.385031
C169  C     C_3   0.723542 0.707491 0.647783 -0.839238
C170  C     C_3   0.143986 0.190839 0.219609 0.127839
C171  C     C_3   0.143860 0.129167 0.215402 -0.873776
C172  C     C_3   0.736170 0.243074 0.679008 0.127202
C173  C     C_3   0.747062 0.229681 0.644930 -0.834587
C174  C     C_3   0.176263 0.861639 0.256118 0.111341
C175  C     C_3   0.122956 0.876568 0.272158 -0.840633
C176  C     C_3   0.237698 0.789647 0.820057 0.128435
C177  C     C_3   0.235188 0.777324 0.854816 -0.840745
C178  C     C_3   0.641828 0.324670 0.242646 0.113366
C179  C     C_R   0.852039 0.647954 0.250083 -0.398068
C180  C     C_3   0.626562 0.377611 0.226214 -0.840596
C181  C     C_3   0.200193 0.231351 0.817623 0.126301
C182  C     C_3   0.208788 0.224033 0.852529 -0.839397
C183  C     C_3   0.677030 0.639276 0.247726 0.120686
C184  C     C_3   0.623911 0.620626 0.232843 -0.834834
C185  C     C_3   0.738274 0.236412 0.821119 0.119141
C186  C     C_3   0.722878 0.247920 0.854859 -0.826452
C187  C     C_3   0.354443 0.675738 0.243923 0.127100
C188  C     C_3   0.376314 0.625555 0.227194 -0.843252
C189  C     C_3   0.800329 0.771487 0.815962 0.129209
C190  C     C_R   0.351860 0.852868 0.750420 -0.392060
C191  C     C_3   0.789996 0.781093 0.850520 -0.847802
C192  C     C_3   0.312728 0.358337 0.282666 0.111720
C193  C     C_3   0.374409 0.363470 0.284917 -0.867024
C194  C     C_3   0.763569 0.791256 0.181528 0.127717
C195  C     C_3   0.767816 0.779011 0.146827 -0.839809
C196  C     C_3   0.365276 0.320727 0.760575 0.115020
C197  C     C_3   0.378835 0.373494 0.777585 -0.841794
C198  C     C_3   0.795852 0.233256 0.182099 0.129857
C199  C     C_3   0.784762 0.226314 0.147412 -0.838454
C200  C     C_3   0.322804 0.642046 0.752018 0.123627
C201  C     C_R   0.647782 0.148264 0.249858 -0.396439
C202  C     C_3   0.376493 0.623568 0.766333 -0.834935
C203  C     C_3   0.293907 0.246490 0.176158 0.136180
C204  C     C_3   0.268232 0.290511 0.155864 -0.875214
C205  C     C_3   0.641590 0.676626 0.756905 0.117802
C206  C     C_3   0.618849 0.627605 0.774405 -0.831270
C207  C     C_3   0.205683 0.770936 0.183012 0.118613
C208  C     C_3   0.217915 0.781248 0.148691 -0.849237
C209  C     C_3   0.684454 0.368470 0.731808 0.131263
C210  C     C_3   0.622710 0.373854 0.733105 -0.872285
C211  C     C_3   0.904827 0.302724 0.312926 0.156399
C212  C     C_R   0.852669 0.647817 0.749864 -0.384479
C213  C     C_3   0.884713 0.255356 0.333417 -0.324360
C214  C     C_3   0.931664 0.225807 0.349437 -1.013276
C215  C     C_3   0.093402 0.694673 0.688603 0.180273
C216  C     C_3   0.103697 0.744392 0.667723 -0.351032
C217  C     C_3   0.101180 0.728966 0.633236 -0.992990
C218  C     C_3   0.699673 0.914059 0.308524 0.191870
C219  C     C_3   0.747243 0.902249 0.330699 -0.343754
C220  C     C_3   0.777821 0.954545 0.338994 -0.991788
C221  C     C_3   0.311237 0.098638 0.685913 0.176924
C222  C     C_3   0.264510 0.114815 0.664032 -0.351050
C223  C     C_R   0.728536 0.771490 0.250194 -0.169646
C224  C     C_R   0.148170 0.353282 0.251261 -0.363388
C225  C     C_3   0.281848 0.111085 0.629890 -0.989972
C226  C     C_3   0.088248 0.698488 0.309915 0.182857
C227  C     C_3   0.101794 0.746050 0.331795 -0.341122
C228  C     C_3   0.050428 0.777260 0.341104 -0.994548
C229  C     C_3   0.918243 0.291850 0.697081 0.174373
C230  C     C_3   0.906025 0.238672 0.679617 -0.358042
C231  C     C_3   0.910205 0.246778 0.644378 -0.995783
C232  C     C_3   0.272852 0.061010 0.279165 0.184374
C233  C     C_3   0.212967 0.064300 0.289173 -0.337911
C234  C     C_3   0.181096 0.014576 0.277989 -1.003245
C235  C     C_R   0.647283 0.148461 0.749654 -0.412967
C236  C     C_3   0.683306 0.898016 0.684003 0.161978
C237  C     C_3   0.727383 0.878282 0.661305 -0.350348
C238  C     C_3   0.706411 0.877898 0.627772 -0.983071
C239  C     C_3   0.094824 0.304494 0.687141 0.156191
C240  C     C_3   0.113885 0.256162 0.667120 -0.328475
C241  C     C_3   0.066092 0.227362 0.651479 -1.007259
C242  C     C_3   0.905111 0.691735 0.312734 0.179238
C243  C     C_3   0.892243 0.739928 0.334286 -0.351875
C244  C     C_3   0.895186 0.723049 0.368548 -0.994474
C245  C     C_3   0.297130 0.916397 0.693337 0.185752
C246  C     C_R   0.351652 0.852303 0.249845 -0.396645
C247  C     C_3   0.247266 0.905042 0.672808 -0.339489
C248  C     C_3   0.216926 0.957745 0.664963 -0.995976
C249  C     C_3   0.688853 0.098420 0.314026 0.176663
C250  C     C_3   0.735614 0.114150 0.335958 -0.349570
C251  C     C_3   0.717954 0.111040 0.370069 -0.995171
C252  C     C_3   0.908639 0.695458 0.688376 0.175782
C253  C     C_3   0.893217 0.743012 0.666829 -0.337992
C254  C     C_3   0.943639 0.774437 0.656237 -0.995120
C255  C     C_3   0.075061 0.284154 0.296082 0.173275
C256  C     C_3   0.084913 0.228411 0.311396 -0.360130
C257  C     C_R   0.500640 0.006040 0.468244 0.334204
C258  C     C_3   0.083951 0.232951 0.346920 -0.997048
C259  C     C_3   0.721045 0.066976 0.710803 0.196339
C260  C     C_3   0.778171 0.071604 0.696593 -0.344688
C261  C     C_3   0.811960 0.020534 0.703265 -0.992143
C262  C     C_3   0.311359 0.901507 0.314167 0.162720
C263  C     C_3   0.263789 0.889788 0.336345 -0.348050
C264  C     C_3   0.282150 0.891631 0.370363 -0.982595
C265  C     C_3   0.415054 0.798809 0.807880 0.197844
C266  C     C_3   0.404121 0.752143 0.830855 -0.343039
C267  C     C_3   0.456489 0.721148 0.838503 -0.990692
C268  C     C_R   0.500215 0.006352 0.531448 0.334038
C269  C     C_3   0.598457 0.187645 0.185321 0.162544
C270  C     C_3   0.610629 0.234681 0.162797 -0.347905
C271  C     C_3   0.608338 0.215645 0.128912 -0.981031
C272  C     C_3   0.195512 0.409345 0.811309 0.179301
C273  C     C_3   0.242679 0.394581 0.833214 -0.338799
C274  C     C_3   0.273897 0.445427 0.843392 -0.994639
C275  C     C_3   0.808152 0.595317 0.187388 0.179185
C276  C     C_3   0.759863 0.607995 0.165891 -0.351700
C277  C     C_3   0.776738 0.605843 0.131620 -0.994038
C278  C     C_3   0.564793 0.223275 0.786966 0.194850
C279  C     C_R   0.999943 0.500367 0.468408 0.332810
C280  C     C_3   0.568822 0.280695 0.800921 -0.343090
C281  C     C_3   0.518192 0.314482 0.793337 -0.995919
C282  C     C_3   0.402662 0.810541 0.185985 0.181516
C283  C     C_3   0.389729 0.763030 0.163961 -0.355318
C284  C     C_3   0.393600 0.780605 0.129851 -0.995966
C285  C     C_3   0.805329 0.595327 0.813202 0.156569
C286  C     C_3   0.757408 0.614524 0.833468 -0.328838
C287  C     C_3   0.728739 0.566713 0.849244 -1.006850
C288  C     C_3   0.238676 0.432881 0.214669 0.180362
C289  C     C_3   0.284966 0.474434 0.216941 -0.338712
C290  C     C_R   0.000024 0.500368 0.531610 0.332767
C291  C     C_3   0.312546 0.482485 0.185352 -1.003657
C292  C     C_3   0.586478 0.799781 0.191508 0.188896
C293  C     C_3   0.599040 0.751663 0.169829 -0.341131
C294  C     C_3   0.547159 0.720808 0.161151 -0.994587
C295  C     C_3   0.398460 0.183964 0.815820 0.159931
C296  C     C_3   0.379614 0.228447 0.838523 -0.348276
C297  C     C_3   0.379463 0.207622 0.872102 -0.986998
C298  C     C_3   0.803300 0.410920 0.189391 0.185484
C299  C     C_3   0.756932 0.397466 0.166694 -0.340703
C300  C     C_3   0.726034 0.448912 0.157080 -0.993845
C301  C     C_R   0.999639 0.497596 0.968361 0.332792
C302  C     C_3   0.192296 0.593722 0.812423 0.179972
C303  C     C_3   0.240649 0.605748 0.833971 -0.351531
C304  C     C_3   0.223869 0.602670 0.868235 -0.994848
C305  C     C_3   0.440646 0.228534 0.222121 0.180369
C306  C     C_3   0.438772 0.288361 0.211719 -0.348510
C307  C     C_3   0.489036 0.319379 0.222835 -0.993834
C308  C     C_3   0.599601 0.812148 0.814553 0.174345
C309  C     C_3   0.615891 0.765736 0.836677 -0.348086
C310  C     C_3   0.612939 0.783863 0.870707 -0.995343
C311  C     C_3   0.208386 0.603889 0.183851 0.214273
C312  C     C_R   0.999612 0.497262 0.031561 0.332388
C313  C     C_3   0.217551 0.616507 0.149118 -0.310954
C314  C     C_3   0.277968 0.621279 0.140843 -0.926538
C315  C     C_3   0.792033 0.418643 0.803051 0.174834
C316  C     C_3   0.738561 0.406998 0.820304 -0.359065
C317  C     C_3   0.746364 0.410446 0.855585 -0.995456
C318  C     C_R   0.499525 0.999433 0.968375 0.331911
C319  C     C_R   0.270853 0.229049 0.750804 -0.164343
C320  C     C_R   0.499155 0.999347 0.031579 0.331724
C321  C     C_R   0.958750 0.470468 0.115021 0.427067
C322  C     C_R   0.040454 0.470114 0.885018 0.428948
C323  C     C_R   0.528041 0.958518 0.114810 0.423922
C324  C     C_R   0.529078 0.039764 0.885122 0.426646
C325  C     C_R   0.040727 0.527070 0.114555 0.443907
C326  C     C_R   0.959395 0.528230 0.885266 0.431808
C327  C     C_R   0.471057 0.040378 0.114851 0.421968
C328  C     C_R   0.470549 0.959107 0.885109 0.420479
C329  C     C_R   0.455558 0.980503 0.614313 0.434169
C330  C     C_R   0.226996 0.729899 0.249462 -0.170519
C331  C     C_R   0.540788 0.972993 0.385443 0.420421
C332  C     C_R   0.028911 0.459497 0.614817 0.431781
C333  C     C_R   0.028289 0.541268 0.385138 0.428193
C334  C     C_R   0.544797 0.024858 0.615003 0.433104
C335  C     C_R   0.460373 0.031958 0.384583 0.424527
C336  C     C_R   0.971062 0.540798 0.614856 0.429301
C337  C     C_R   0.971687 0.459153 0.385225 0.433204
C338  C     C_R   0.958013 0.471561 0.082432 -0.247331
C339  C     C_R   0.040942 0.471131 0.917595 -0.248380
C340  C     C_R   0.526029 0.957772 0.082244 -0.246077
C341  C     C_R   0.770767 0.272002 0.749857 -0.166743
C342  C     C_R   0.527523 0.040371 0.917740 -0.272249
C343  C     C_R   0.041402 0.524491 0.081999 -0.263166
C344  C     C_R   0.958624 0.525885 0.917820 -0.248355
C345  C     C_R   0.472339 0.040851 0.082240 -0.267620
C346  C     C_R   0.472149 0.958457 0.917684 -0.245491
C347  C     C_R   0.455061 0.984110 0.581802 -0.252252
C348  C     C_R   0.541551 0.976271 0.417959 -0.244488
C349  C     C_R   0.027290 0.459000 0.582249 -0.248699
C350  C     C_R   0.026531 0.541961 0.417706 -0.247715
C351  C     C_R   0.544973 0.024905 0.582419 -0.256892
C352  C     C_R   0.272616 0.231025 0.251368 -0.135653
C353  C     C_R   0.459984 0.032176 0.417195 -0.271045
C354  C     C_R   0.972799 0.541556 0.582288 -0.247944
C355  C     C_R   0.973316 0.458654 0.417794 -0.249259
C356  C     C_R   0.999660 0.497733 0.065803 -0.058455
C357  C     C_R   0.999701 0.498159 0.934119 -0.062021
C358  C     C_R   0.499150 0.999313 0.065826 -0.055021
C359  C     C_R   0.499667 0.999477 0.934129 -0.053536
C360  C     C_R   0.499937 0.005460 0.565700 -0.058520
C361  C     C_R   0.500772 0.004913 0.433997 -0.055392
C362  C     C_R   0.000070 0.500338 0.565855 -0.062025
C363  C     C_R   0.729280 0.771074 0.749395 -0.162921
C364  C     C_R   0.999925 0.500338 0.434162 -0.061893
C365  C     C_R   0.000030 0.500007 0.334186 0.807878
C366  C     C_R   0.000029 0.500022 0.665818 0.808575
C367  C     C_R   0.500034 0.000152 0.334148 0.820180
C368  C     C_R   0.500036 0.000164 0.665776 0.804845
C369  C     C_R   0.499964 0.999938 0.834182 0.823818
C370  C     C_R   0.500040 0.999970 0.165809 0.818157
C371  C     C_R   0.000001 0.499994 0.834167 0.807568
C372  C     C_R   0.999971 0.499897 0.165811 0.811828
C373  C     C_R   0.894708 0.605305 0.250013 0.906214
C374  C     C_R   0.228707 0.271696 0.750638 -0.161149
C375  C     C_R   0.105191 0.394865 0.750008 0.933908
C376  C     C_R   0.394647 0.894701 0.249987 0.900468
C377  C     C_R   0.605111 0.105438 0.749886 0.889824
C378  C     C_R   0.105271 0.395019 0.250263 0.945558
C379  C     C_R   0.894898 0.605230 0.749989 0.935302
C380  C     C_R   0.605279 0.105380 0.249974 0.899853
C381  C     C_R   0.394733 0.894878 0.750074 0.923307
C382  C     C_R   0.105224 0.605371 0.750053 0.908571
C383  C     C_R   0.894757 0.394874 0.250024 0.933387
C384  C     C_R   0.605243 0.894609 0.749924 0.900248
H1    H     H_    0.925901 0.450089 0.070142 0.172919
H2    H     H_    0.573167 0.954770 0.430688 0.174617
H3    H     H_    0.210979 0.578281 0.334757 0.274065
H4    H     H_    0.595533 0.102468 0.665358 0.209233
H5    H     H_    0.534127 0.108859 0.643319 0.081719
H6    H     H_    0.650989 0.131561 0.619203 0.237156
H7    H     H_    0.589427 0.138752 0.596547 0.212231
H8    H     H_    0.555106 0.209831 0.633251 0.260584
H9    H     H_    0.621256 0.228233 0.618025 0.268239
H10   H     H_    0.615382 0.201760 0.657220 0.271039
H11   H     H_    0.484034 0.114916 0.354438 0.114302
H12   H     H_    0.441164 0.138129 0.386434 0.139683
H13   H     H_    0.049046 0.427245 0.569779 0.173069
H14   H     H_    0.404021 0.120958 0.318540 0.261995
H15   H     H_    0.362953 0.147660 0.349878 0.237593
H16   H     H_    0.425898 0.227651 0.354609 0.273618
H17   H     H_    0.399384 0.221616 0.315423 0.259277
H18   H     H_    0.468173 0.200135 0.323644 0.263166
H19   H     H_    0.889662 0.564066 0.666860 0.192940
H20   H     H_    0.886542 0.513012 0.637027 0.090535
H21   H     H_    0.846809 0.632211 0.630573 0.246424
H22   H     H_    0.844245 0.580971 0.600448 0.206271
H23   H     H_    0.784079 0.522938 0.634196 0.256250
H24   H     H_    0.047750 0.574099 0.430134 0.173494
H25   H     H_    0.754903 0.589614 0.627704 0.263639
H26   H     H_    0.786953 0.574180 0.664619 0.274879
H27   H     H_    0.889651 0.433967 0.333703 0.195277
H28   H     H_    0.886471 0.485431 0.363265 0.088953
H29   H     H_    0.849402 0.365626 0.371065 0.244258
H30   H     H_    0.846092 0.417878 0.400586 0.206019
H31   H     H_    0.784050 0.473304 0.366342 0.255764
H32   H     H_    0.756516 0.406372 0.374091 0.263039
H33   H     H_    0.787419 0.420647 0.336723 0.278093
H34   H     H_    0.692103 0.282832 0.304565 0.113897
H35   H     H_    0.579948 0.041518 0.570218 0.172823
H36   H     H_    0.733355 0.342998 0.312702 0.128828
H37   H     H_    0.758624 0.302222 0.364262 0.259218
H38   H     H_    0.685910 0.311805 0.359948 0.203493
H39   H     H_    0.715106 0.244371 0.356045 0.254577
H40   H     H_    0.164094 0.831894 0.770271 0.100843
H41   H     H_    0.099392 0.801409 0.758916 0.155726
H42   H     H_    0.091421 0.870450 0.716084 0.260101
H43   H     H_    0.095717 0.901464 0.754302 0.201896
H44   H     H_    0.154594 0.901420 0.728962 0.250374
H45   H     H_    0.723010 0.698798 0.307775 0.112012
H46   H     H_    0.428659 0.055116 0.429302 0.174959
H47   H     H_    0.663570 0.740705 0.316251 0.130965
H48   H     H_    0.708295 0.771347 0.365689 0.260183
H49   H     H_    0.698518 0.698208 0.364099 0.200960
H50   H     H_    0.765407 0.726823 0.357464 0.255058
H51   H     H_    0.161852 0.169418 0.761977 0.105611
H52   H     H_    0.198361 0.105706 0.755427 0.147226
H53   H     H_    0.141368 0.089353 0.707982 0.258845
H54   H     H_    0.101210 0.094944 0.743229 0.202780
H55   H     H_    0.103679 0.151378 0.716119 0.250206
H56   H     H_    0.303105 0.717754 0.304856 0.109582
H57   H     H_    0.951006 0.573349 0.569843 0.173392
H58   H     H_    0.259752 0.659997 0.314611 0.131277
H59   H     H_    0.235384 0.705934 0.364863 0.260597
H60   H     H_    0.307721 0.693020 0.361131 0.200680
H61   H     H_    0.281410 0.761193 0.355271 0.253555
H62   H     H_    0.839241 0.193943 0.789208 0.092970
H63   H     H_    0.905630 0.200919 0.770785 0.174655
H64   H     H_    0.892210 0.109621 0.745529 0.266679
H65   H     H_    0.889127 0.105973 0.787658 0.207714
H66   H     H_    0.826960 0.103477 0.765057 0.247277
H67   H     H_    0.233847 0.262303 0.323062 0.125526
H68   H     H_    0.951988 0.426632 0.430285 0.173038
H69   H     H_    0.299342 0.228368 0.323506 0.121808
H70   H     H_    0.260235 0.152822 0.355092 0.266553
H71   H     H_    0.252679 0.218362 0.374067 0.203143
H72   H     H_    0.194810 0.186640 0.355232 0.260715
H73   H     H_    0.831789 0.845928 0.760971 0.101711
H74   H     H_    0.798270 0.905272 0.744168 0.168203
H75   H     H_    0.862229 0.899614 0.698491 0.264151
H76   H     H_    0.896714 0.910168 0.735295 0.207663
H77   H     H_    0.896925 0.843344 0.717453 0.250478
H78   H     H_    0.307756 0.284859 0.696690 0.113490
H79   H     H_    0.934413 0.389807 0.167349 0.193812
H80   H     H_    0.265567 0.343877 0.687481 0.132909
H81   H     H_    0.243117 0.301296 0.635976 0.260013
H82   H     H_    0.315391 0.312824 0.641082 0.203157
H83   H     H_    0.287869 0.244764 0.645205 0.253873
H84   H     H_    0.830833 0.833971 0.233762 0.101526
H85   H     H_    0.896207 0.802274 0.242667 0.151007
H86   H     H_    0.907590 0.867142 0.287204 0.259672
H87   H     H_    0.900380 0.901822 0.250147 0.201203
H88   H     H_    0.843536 0.899367 0.276935 0.251134
H89   H     H_    0.274144 0.701421 0.692875 0.110883
H90   H     H_    0.985283 0.385626 0.137487 0.091152
H91   H     H_    0.332465 0.744201 0.683488 0.124342
H92   H     H_    0.283131 0.775937 0.635354 0.265860
H93   H     H_    0.295839 0.703145 0.635924 0.202550
H94   H     H_    0.228438 0.729032 0.644352 0.253064
H95   H     H_    0.835604 0.169213 0.236895 0.104934
H96   H     H_    0.801724 0.104811 0.245493 0.151205
H97   H     H_    0.862237 0.093486 0.292104 0.259539
H98   H     H_    0.899876 0.097861 0.255895 0.203850
H99   H     H_    0.897225 0.156047 0.281717 0.248691
H100  H     H_    0.693512 0.713253 0.694676 0.110701
H101  H     H_    0.865628 0.347890 0.131121 0.246896
H102  H     H_    0.736963 0.654576 0.686944 0.130247
H103  H     H_    0.761389 0.695932 0.635167 0.262258
H104  H     H_    0.689397 0.681669 0.639314 0.201442
H105  H     H_    0.713923 0.750892 0.642729 0.253191
H106  H     H_    0.172063 0.208467 0.201759 0.112286
H107  H     H_    0.101998 0.206537 0.215471 0.173728
H108  H     H_    0.116122 0.109921 0.232706 0.267404
H109  H     H_    0.129703 0.118743 0.191518 0.210992
H110  H     H_    0.185765 0.112824 0.218700 0.247844
H111  H     H_    0.758734 0.280989 0.684981 0.122198
H112  H     H_    0.072570 0.449003 0.929960 0.173262
H113  H     H_    0.916879 0.344021 0.101083 0.205637
H114  H     H_    0.691503 0.250882 0.681604 0.114152
H115  H     H_    0.725221 0.191699 0.638379 0.270678
H116  H     H_    0.732617 0.263673 0.629870 0.202768
H117  H     H_    0.791369 0.223540 0.641058 0.259656
H118  H     H_    0.166205 0.835167 0.235888 0.103905
H119  H     H_    0.196034 0.899899 0.247732 0.156604
H120  H     H_    0.131192 0.899945 0.293853 0.263837
H121  H     H_    0.097597 0.901931 0.256288 0.208753
H122  H     H_    0.100010 0.838919 0.278170 0.248782
H123  H     H_    0.199682 0.774019 0.809161 0.113448
H124  H     H_    0.973423 0.282805 0.134911 0.257324
H125  H     H_    0.239750 0.834889 0.817127 0.128879
H126  H     H_    0.273149 0.791471 0.866401 0.259607
H127  H     H_    0.199773 0.798699 0.865403 0.201021
H128  H     H_    0.230601 0.732722 0.858649 0.255931
H129  H     H_    0.670230 0.335152 0.261910 0.103850
H130  H     H_    0.604038 0.306036 0.252416 0.152004
H131  H     H_    0.601593 0.368886 0.205179 0.264269
H132  H     H_    0.602762 0.404029 0.242289 0.208185
H133  H     H_    0.664026 0.399764 0.219054 0.248468
H134  H     H_    0.214654 0.193750 0.805701 0.110998
H135  H     H_    0.906067 0.255096 0.128928 0.262811
H136  H     H_    0.155556 0.236565 0.813455 0.129967
H137  H     H_    0.196675 0.261797 0.865092 0.261847
H138  H     H_    0.183616 0.189459 0.861122 0.201320
H139  H     H_    0.252314 0.215158 0.857507 0.253568
H140  H     H_    0.666837 0.667790 0.267042 0.101680
H141  H     H_    0.698256 0.602608 0.257292 0.152577
H142  H     H_    0.632594 0.592766 0.212995 0.260000
H143  H     H_    0.598756 0.598619 0.250353 0.201693
H144  H     H_    0.600608 0.656500 0.224210 0.250798
H145  H     H_    0.777429 0.257401 0.815979 0.122608
H146  H     H_    0.922750 0.287465 0.165551 0.274654
H147  H     H_    0.744408 0.191396 0.818791 0.121260
H148  H     H_    0.684144 0.226797 0.860721 0.261468
H149  H     H_    0.755553 0.232957 0.870657 0.202701
H150  H     H_    0.717403 0.292447 0.858464 0.260646
H151  H     H_    0.323002 0.662081 0.260904 0.102984
H152  H     H_    0.389003 0.695337 0.256620 0.142710
H153  H     H_    0.408197 0.637730 0.210132 0.259047
H154  H     H_    0.394346 0.596781 0.244390 0.204141
H155  H     H_    0.342714 0.604635 0.214633 0.248630
H156  H     H_    0.786684 0.808380 0.803054 0.113537
H157  H     H_    0.063860 0.389352 0.832695 0.192825
H158  H     H_    0.845087 0.765625 0.812598 0.133722
H159  H     H_    0.802073 0.744425 0.864146 0.259903
H160  H     H_    0.814267 0.816609 0.858666 0.203229
H161  H     H_    0.746075 0.789604 0.854582 0.253912
H162  H     H_    0.299620 0.326618 0.299745 0.098146
H163  H     H_    0.294072 0.398238 0.289073 0.168084
H164  H     H_    0.389427 0.394058 0.267793 0.262459
H165  H     H_    0.386060 0.376690 0.308791 0.209205
H166  H     H_    0.393783 0.323342 0.280032 0.250329
H167  H     H_    0.801584 0.776715 0.192950 0.111850
H168  H     H_    0.012857 0.385739 0.862521 0.090030
H169  H     H_    0.760051 0.836422 0.184367 0.129513
H170  H     H_    0.729816 0.791852 0.134760 0.260537
H171  H     H_    0.802851 0.801562 0.136647 0.201118
H172  H     H_    0.774122 0.734596 0.143118 0.254945
H173  H     H_    0.344118 0.331578 0.738489 0.101428
H174  H     H_    0.404254 0.299351 0.755139 0.166943
H175  H     H_    0.398089 0.364252 0.800458 0.264109
H176  H     H_    0.407565 0.398190 0.763359 0.207889
H177  H     H_    0.341063 0.397590 0.781510 0.250296
H178  H     H_    0.781583 0.195823 0.194273 0.110693
H179  H     H_    0.131966 0.346117 0.868859 0.247354
H180  H     H_    0.840784 0.237741 0.185328 0.130714
H181  H     H_    0.797395 0.263644 0.134571 0.260338
H182  H     H_    0.808128 0.190858 0.138323 0.200932
H183  H     H_    0.740609 0.219092 0.143414 0.253907
H184  H     H_    0.332173 0.672026 0.733279 0.100739
H185  H     H_    0.302252 0.605612 0.741771 0.150792
H186  H     H_    0.368664 0.594136 0.785565 0.260104
H187  H     H_    0.402005 0.603402 0.748281 0.200647
H188  H     H_    0.398997 0.659330 0.775708 0.250811
H189  H     H_    0.263145 0.213367 0.179338 0.108608
H190  H     H_    0.080670 0.342919 0.898912 0.205737
H191  H     H_    0.329982 0.229772 0.163740 0.181690
H192  H     H_    0.297913 0.324018 0.151743 0.263114
H193  H     H_    0.255954 0.272844 0.133057 0.214831
H194  H     H_    0.231537 0.307413 0.167636 0.239899
H195  H     H_    0.670668 0.661412 0.739016 0.105555
H196  H     H_    0.606825 0.697799 0.745207 0.146322
H197  H     H_    0.590478 0.641483 0.793003 0.259370
H198  H     H_    0.596343 0.600734 0.757985 0.202399
H199  H     H_    0.652571 0.603818 0.785130 0.249918
H200  H     H_    0.222113 0.806171 0.196290 0.116820
H201  H     H_    0.023069 0.283004 0.864858 0.256326
H202  H     H_    0.160488 0.768891 0.185901 0.121343
H203  H     H_    0.199481 0.748877 0.134012 0.252546
H204  H     H_    0.200443 0.821208 0.141549 0.204149
H205  H     H_    0.262641 0.782114 0.144732 0.260705
H206  H     H_    0.695000 0.345217 0.710286 0.092693
H207  H     H_    0.702408 0.410117 0.730358 0.177375
H208  H     H_    0.610404 0.396442 0.754458 0.266745
H209  H     H_    0.607896 0.396423 0.712268 0.207221
H210  H     H_    0.603732 0.332664 0.733400 0.247651
H211  H     H_    0.936235 0.325990 0.326059 0.195698
H212  H     H_    0.089768 0.253929 0.871182 0.263596
H213  H     H_    0.925654 0.286415 0.291689 0.111119
H214  H     H_    0.856363 0.270950 0.351568 0.250889
H215  H     H_    0.862828 0.225208 0.318743 0.275114
H216  H     H_    0.961345 0.210861 0.331824 0.271949
H217  H     H_    0.915649 0.190211 0.362637 0.281237
H218  H     H_    0.952195 0.253727 0.366117 0.277391
H219  H     H_    0.053676 0.676354 0.681785 0.172959
H220  H     H_    0.125077 0.662740 0.684126 0.100200
H221  H     H_    0.072647 0.776344 0.672634 0.237785
H222  H     H_    0.144679 0.761479 0.672631 0.278824
H223  H     H_    0.547237 0.925637 0.069781 0.173058
H224  H     H_    0.074250 0.286611 0.834444 0.274461
H225  H     H_    0.132842 0.697960 0.627727 0.263326
H226  H     H_    0.108624 0.765789 0.618706 0.278435
H227  H     H_    0.060453 0.712132 0.627279 0.273181
H228  H     H_    0.674576 0.947349 0.318781 0.194069
H229  H     H_    0.715663 0.930016 0.285842 0.115492
H230  H     H_    0.731680 0.883090 0.352466 0.237389
H231  H     H_    0.776327 0.873692 0.319429 0.273978
H232  H     H_    0.793570 0.974592 0.317534 0.268195
H233  H     H_    0.812837 0.944594 0.354427 0.276836
H234  H     H_    0.750394 0.983260 0.351498 0.275333
H235  H     H_    0.608156 0.934395 0.166864 0.189739
H236  H     H_    0.327218 0.058235 0.678401 0.176937
H237  H     H_    0.345783 0.128097 0.683435 0.098418
H238  H     H_    0.229004 0.087484 0.668006 0.245032
H239  H     H_    0.251846 0.157478 0.668886 0.274259
H240  H     H_    0.316911 0.138700 0.625355 0.265222
H241  H     H_    0.247343 0.123540 0.614670 0.277178
H242  H     H_    0.293620 0.068519 0.623937 0.277316
H243  H     H_    0.055791 0.673394 0.320977 0.194419
H244  H     H_    0.070611 0.714561 0.287660 0.118891
H245  H     H_    0.122113 0.730336 0.353175 0.237000
H246  H     H_    0.614338 0.983261 0.135866 0.088773
H247  H     H_    0.129855 0.774876 0.319945 0.276614
H248  H     H_    0.029246 0.793160 0.320041 0.266973
H249  H     H_    0.061644 0.812278 0.356252 0.277530
H250  H     H_    0.022336 0.750147 0.354247 0.276579
H251  H     H_    0.960459 0.304722 0.691160 0.163136
H252  H     H_    0.890788 0.325106 0.688493 0.116495
H253  H     H_    0.935205 0.206485 0.687124 0.232816
H254  H     H_    0.864083 0.224748 0.684983 0.284567
H255  H     H_    0.879232 0.276815 0.636362 0.264932
H256  H     H_    0.902857 0.207308 0.632344 0.277899
H257  H     H_    0.648561 0.862001 0.132465 0.249360
H258  H     H_    0.951253 0.261929 0.637897 0.276354
H259  H     H_    0.290015 0.021791 0.287745 0.203058
H260  H     H_    0.275857 0.059676 0.253132 0.098122
H261  H     H_    0.210463 0.066770 0.315043 0.242334
H262  H     H_    0.193824 0.101378 0.279099 0.281179
H263  H     H_    0.182518 0.011715 0.252121 0.266668
H264  H     H_    0.137849 0.018175 0.285409 0.272072
H265  H     H_    0.198546 0.976816 0.288263 0.295279
H266  H     H_    0.667981 0.938239 0.675739 0.184025
H267  H     H_    0.647626 0.869645 0.683438 0.104380
H268  H     H_    0.654382 0.911098 0.101302 0.205561
H269  H     H_    0.763581 0.905402 0.662775 0.236592
H270  H     H_    0.740092 0.836229 0.667604 0.274328
H271  H     H_    0.670428 0.850576 0.625700 0.261265
H272  H     H_    0.738952 0.862694 0.611972 0.274990
H273  H     H_    0.694795 0.919837 0.620389 0.282942
H274  H     H_    0.064289 0.328406 0.673674 0.198053
H275  H     H_    0.073197 0.289187 0.708366 0.119053
H276  H     H_    0.142480 0.270627 0.648780 0.250605
H277  H     H_    0.135318 0.226035 0.682081 0.272044
H278  H     H_    0.035571 0.214543 0.669184 0.269319
H279  H     H_    0.716455 0.968264 0.134259 0.256587
H280  H     H_    0.081018 0.190516 0.639013 0.280436
H281  H     H_    0.046724 0.255081 0.634215 0.276161
H282  H     H_    0.945421 0.674694 0.319567 0.172999
H283  H     H_    0.874740 0.658312 0.316455 0.100195
H284  H     H_    0.921732 0.773541 0.329938 0.241164
H285  H     H_    0.850504 0.755246 0.329487 0.277103
H286  H     H_    0.864964 0.690373 0.373487 0.264338
H287  H     H_    0.885824 0.758801 0.383560 0.278433
H288  H     H_    0.936654 0.707918 0.374418 0.274548
H289  H     H_    0.321549 0.949288 0.682177 0.191399
H290  H     H_    0.742443 0.899800 0.129703 0.264293
H291  H     H_    0.283664 0.932702 0.716457 0.118789
H292  H     H_    0.260311 0.884969 0.650785 0.238597
H293  H     H_    0.218800 0.877395 0.685266 0.273256
H294  H     H_    0.203841 0.978798 0.686684 0.270194
H295  H     H_    0.180176 0.948110 0.650860 0.276373
H296  H     H_    0.243580 0.985426 0.651212 0.275834
H297  H     H_    0.672820 0.057968 0.321412 0.173063
H298  H     H_    0.654356 0.127953 0.316619 0.098705
H299  H     H_    0.770782 0.086247 0.332182 0.243762
H300  H     H_    0.748863 0.156582 0.330979 0.274680
H301  H     H_    0.710119 0.919501 0.165858 0.272535
H302  H     H_    0.683343 0.139351 0.374413 0.264418
H303  H     H_    0.752551 0.122985 0.385332 0.278059
H304  H     H_    0.705382 0.068770 0.376156 0.275010
H305  H     H_    0.940612 0.670661 0.676647 0.196618
H306  H     H_    0.927543 0.711607 0.710244 0.121708
H307  H     H_    0.871325 0.727274 0.645989 0.239150
H308  H     H_    0.866036 0.771767 0.679390 0.277935
H309  H     H_    0.966315 0.790367 0.676753 0.265486
H310  H     H_    0.931078 0.809456 0.641397 0.277929
H311  H     H_    0.970808 0.747469 0.642388 0.276986
H312  H     H_    0.614856 0.014050 0.859723 0.114548
H313  H     H_    0.032188 0.296352 0.300773 0.154100
H314  H     H_    0.101096 0.315814 0.307555 0.126745
H315  H     H_    0.053069 0.199202 0.303550 0.222819
H316  H     H_    0.125299 0.212060 0.304604 0.293498
H317  H     H_    0.119356 0.257338 0.355120 0.266867
H318  H     H_    0.086306 0.191559 0.357448 0.277317
H319  H     H_    0.046036 0.253177 0.354927 0.275797
H320  H     H_    0.701510 0.029427 0.701495 0.193298
H321  H     H_    0.724097 0.061160 0.736638 0.101984
H322  H     H_    0.774790 0.077425 0.670929 0.242052
H323  H     H_    0.635627 0.062722 0.889449 0.144136
H324  H     H_    0.799707 0.107310 0.706644 0.280756
H325  H     H_    0.816571 0.014476 0.728832 0.266574
H326  H     H_    0.853132 0.025043 0.692782 0.271626
H327  H     H_    0.792049 0.984031 0.693021 0.286143
H328  H     H_    0.330568 0.940669 0.321296 0.184490
H329  H     H_    0.343466 0.869388 0.316866 0.100767
H330  H     H_    0.231017 0.920512 0.332720 0.234522
H331  H     H_    0.246946 0.848625 0.331507 0.276236
H332  H     H_    0.314775 0.860986 0.374586 0.261192
H333  H     H_    0.247039 0.882151 0.385815 0.275293
H334  H     H_    0.549746 0.071764 0.930211 0.173800
H335  H     H_    0.621782 0.086546 0.819287 0.253147
H336  H     H_    0.297699 0.932952 0.376306 0.280781
H337  H     H_    0.449321 0.823728 0.817121 0.193968
H338  H     H_    0.429198 0.781782 0.785057 0.110770
H339  H     H_    0.386542 0.768783 0.852790 0.237455
H340  H     H_    0.374564 0.723018 0.820530 0.273328
H341  H     H_    0.475081 0.704445 0.816862 0.268098
H342  H     H_    0.447107 0.686715 0.854503 0.276343
H343  H     H_    0.486158 0.748661 0.850161 0.275109
H344  H     H_    0.559062 0.168769 0.178382 0.186075
H345  H     H_    0.630107 0.155037 0.182809 0.100202
H346  H     H_    0.644829 0.134501 0.848398 0.251480
H347  H     H_    0.580394 0.267968 0.166261 0.235786
H348  H     H_    0.651998 0.251080 0.167440 0.274799
H349  H     H_    0.638600 0.182601 0.124856 0.261421
H350  H     H_    0.618031 0.250401 0.113200 0.275015
H351  H     H_    0.566879 0.200362 0.123158 0.281666
H352  H     H_    0.170541 0.441648 0.822630 0.196159
H353  H     H_    0.211963 0.427690 0.789340 0.120287
H354  H     H_    0.226648 0.373341 0.854222 0.238588
H355  H     H_    0.271556 0.366937 0.821079 0.277544
H356  H     H_    0.290123 0.467477 0.822707 0.266248
H357  H     H_    0.726263 0.076265 0.858981 0.272073
H358  H     H_    0.308633 0.433347 0.858536 0.277795
H359  H     H_    0.246753 0.473101 0.856803 0.276668
H360  H     H_    0.825450 0.555135 0.180455 0.172725
H361  H     H_    0.841282 0.626016 0.183709 0.100460
H362  H     H_    0.726662 0.577980 0.170075 0.240259
H363  H     H_    0.744054 0.649514 0.170902 0.277793
H364  H     H_    0.809002 0.636574 0.126845 0.264058
H365  H     H_    0.740918 0.615039 0.116643 0.278486
H366  H     H_    0.792362 0.564620 0.125535 0.274030
H367  H     H_    0.526929 0.203827 0.795872 0.195438
H368  H     H_    0.722054 0.093677 0.818069 0.261695
H369  H     H_    0.560092 0.225897 0.761045 0.096065
H370  H     H_    0.573449 0.277700 0.826678 0.241657
H371  H     H_    0.604986 0.302040 0.791291 0.280564
H372  H     H_    0.513315 0.318726 0.767669 0.265026
H373  H     H_    0.522268 0.355859 0.803667 0.272095
H374  H     H_    0.481263 0.294731 0.803158 0.288476
H375  H     H_    0.442814 0.827948 0.179198 0.174061
H376  H     H_    0.372091 0.843982 0.182766 0.096593
H377  H     H_    0.418697 0.728904 0.168249 0.243102
H378  H     H_    0.347728 0.748171 0.168356 0.271565
H379  H     H_    0.702445 0.026399 0.830838 0.262861
H380  H     H_    0.364139 0.814047 0.124988 0.265314
H381  H     H_    0.383755 0.745395 0.114532 0.278012
H382  H     H_    0.435501 0.794895 0.124336 0.275958
H383  H     H_    0.829355 0.564720 0.826561 0.198519
H384  H     H_    0.789670 0.573668 0.792081 0.119095
H385  H     H_    0.772180 0.643095 0.851734 0.249953
H386  H     H_    0.727173 0.636103 0.818667 0.272305
H387  H     H_    0.715414 0.536337 0.831580 0.269177
H388  H     H_    0.692279 0.581763 0.861997 0.280406
H389  H     H_    0.756674 0.547048 0.866272 0.276492
H390  H     H_    0.080328 0.620918 0.159722 0.219758
H391  H     H_    0.205728 0.449994 0.199745 0.145940
H392  H     H_    0.254683 0.395582 0.202733 0.161846
H393  H     H_    0.268537 0.514144 0.225303 0.199974
H394  H     H_    0.315851 0.459852 0.234026 0.249506
H395  H     H_    0.332605 0.443989 0.177799 0.283350
H396  H     H_    0.344075 0.514828 0.187180 0.269025
H397  H     H_    0.281988 0.494681 0.167533 0.260950
H398  H     H_    0.553384 0.824533 0.180779 0.193786
H399  H     H_    0.570064 0.784271 0.214189 0.116604
H400  H     H_    0.618928 0.766773 0.148176 0.238398
H401  H     H_    0.016522 0.610996 0.141020 0.088356
H402  H     H_    0.627147 0.722789 0.181654 0.274453
H403  H     H_    0.526328 0.705621 0.182492 0.267793
H404  H     H_    0.557682 0.685331 0.146179 0.277317
H405  H     H_    0.519008 0.747930 0.148015 0.276444
H406  H     H_    0.438635 0.168301 0.823864 0.180357
H407  H     H_    0.369806 0.148505 0.816684 0.103537
H408  H     H_    0.407129 0.264348 0.836835 0.236241
H409  H     H_    0.337677 0.241645 0.832425 0.274632
H410  H     H_    0.351788 0.171926 0.874390 0.261092
H411  H     H_    0.364893 0.240464 0.887910 0.276013
H412  H     H_    0.122140 0.644441 0.106096 0.226938
H413  H     H_    0.421308 0.195535 0.879296 0.280313
H414  H     H_    0.828649 0.443769 0.178894 0.196282
H415  H     H_    0.786060 0.428114 0.211461 0.116633
H416  H     H_    0.773696 0.377473 0.145494 0.236758
H417  H     H_    0.727689 0.369106 0.177951 0.276300
H418  H     H_    0.709113 0.469828 0.177956 0.266162
H419  H     H_    0.691823 0.437757 0.141347 0.277696
H420  H     H_    0.753623 0.477278 0.144467 0.276806
H421  H     H_    0.175287 0.553195 0.818909 0.172435
H422  H     H_    0.159012 0.624116 0.816557 0.100525
H423  H     H_    0.053922 0.643181 0.090622 0.215147
H424  H     H_    0.273835 0.575804 0.829505 0.239663
H425  H     H_    0.256424 0.647391 0.829304 0.276978
H426  H     H_    0.191811 0.633501 0.873318 0.264126
H427  H     H_    0.259788 0.611149 0.883256 0.278266
H428  H     H_    0.208011 0.561388 0.873961 0.273927
H429  H     H_    0.479624 0.210389 0.213944 0.207445
H430  H     H_    0.441357 0.225976 0.248183 0.101683
H431  H     H_    0.436590 0.290434 0.185826 0.238422
H432  H     H_    0.402068 0.308523 0.221525 0.281386
H433  H     H_    0.491876 0.318125 0.248708 0.264877
H434  H     H_    0.026020 0.715758 0.128778 0.262579
H435  H     H_    0.486303 0.362681 0.215269 0.271821
H436  H     H_    0.526376 0.301058 0.212622 0.297728
H437  H     H_    0.559331 0.828321 0.822096 0.173356
H438  H     H_    0.629072 0.846758 0.816721 0.097621
H439  H     H_    0.588285 0.730279 0.833151 0.244265
H440  H     H_    0.658320 0.752678 0.831640 0.274530
H441  H     H_    0.640836 0.818879 0.874794 0.264294
H442  H     H_    0.625440 0.749560 0.886103 0.278395
H443  H     H_    0.570631 0.796070 0.876855 0.275206
H444  H     H_    0.199831 0.559550 0.186376 0.132359
H445  H     H_    0.073659 0.545153 0.069370 0.171358
H446  H     H_    0.081878 0.737619 0.104309 0.266482
H447  H     H_    0.246510 0.611473 0.197477 0.138598
H448  H     H_    0.198598 0.583989 0.134636 0.210979
H449  H     H_    0.197421 0.655600 0.142943 0.256195
H450  H     H_    0.297175 0.654942 0.154297 0.308466
H451  H     H_    0.282289 0.630373 0.115569 0.257272
H452  H     H_    0.299611 0.582554 0.145992 0.255966
H453  H     H_    0.805493 0.460616 0.809203 0.163431
H454  H     H_    0.824729 0.390504 0.811601 0.116391
H455  H     H_    0.706982 0.436871 0.812854 0.232127
H456  H     H_    0.724013 0.365332 0.814682 0.285261
H457  H     H_    0.094930 0.717214 0.144077 0.272645
H458  H     H_    0.775546 0.378610 0.863537 0.265256
H459  H     H_    0.706658 0.403798 0.867460 0.277841
H460  H     H_    0.762346 0.451097 0.862317 0.276359
H461  H     H_    0.936298 0.610918 0.833929 0.192681
H462  H     H_    0.986584 0.613909 0.864182 0.090680
H463  H     H_    0.866866 0.651748 0.870420 0.245602
H464  H     H_    0.918040 0.654959 0.900523 0.205784
H465  H     H_    0.974689 0.716744 0.866930 0.255574
H466  H     H_    0.907530 0.744536 0.873568 0.263070
H467  H     H_    0.923449 0.713209 0.836541 0.277071
H468  H     H_    0.388620 0.019766 0.146998 0.114251
H469  H     H_    0.926889 0.547509 0.930367 0.173269
H470  H     H_    0.365909 0.057709 0.112872 0.136431
H471  H     H_    0.381757 0.105281 0.178699 0.272307
H472  H     H_    0.355402 0.140944 0.145102 0.218229
H473  H     H_    0.276072 0.076419 0.143315 0.273474
H474  H     H_    0.280898 0.110294 0.180647 0.259075
H475  H     H_    0.303066 0.040408 0.176946 0.263113
H476  H     H_    0.391626 0.936232 0.832521 0.187718
H477  H     H_    0.384628 0.984596 0.863723 0.087085
H478  H     H_    0.349996 0.863453 0.866378 0.251839
H479  H     H_    0.342782 0.912518 0.897417 0.204552
H480  H     H_    0.450790 0.072799 0.069789 0.174970
H481  H     H_    0.282239 0.969822 0.863448 0.256829
H482  H     H_    0.256012 0.901424 0.867812 0.264163
H483  H     H_    0.289872 0.920862 0.832067 0.271377
H484  H     H_    0.417690 0.894736 0.662149 0.202880
H485  H     H_    0.470791 0.890820 0.633783 0.092402
H486  H     H_    0.348242 0.868564 0.622539 0.234631
H487  H     H_    0.399952 0.867778 0.592615 0.211449
H488  H     H_    0.449368 0.793140 0.620745 0.258294
H489  H     H_    0.380022 0.773949 0.612062 0.264281
H490  H     H_    0.398233 0.794235 0.651226 0.278010
H491  H     H_    0.450273 0.926748 0.930125 0.173163
H492  H     H_    0.562237 0.892345 0.333879 0.185549
H493  H     H_    0.515461 0.885606 0.365926 0.090143
H494  H     H_    0.636741 0.851661 0.366886 0.251324
H495  H     H_    0.589168 0.844660 0.398672 0.205438
H496  H     H_    0.530899 0.783211 0.365821 0.256808
H497  H     H_    0.599511 0.757352 0.369456 0.264189
H498  H     H_    0.578535 0.790534 0.333769 0.272359
H499  H     H_    0.110876 0.435752 0.666397 0.193086
H500  H     H_    0.114325 0.486241 0.636223 0.090524
H501  H     H_    0.151636 0.366202 0.629958 0.246010
H502  H     H_    0.420374 0.968027 0.569121 0.172384
H503  H     H_    0.155205 0.417491 0.599867 0.205607
H504  H     H_    0.216905 0.473947 0.633572 0.255675
H505  H     H_    0.244477 0.406637 0.626921 0.263021
H506  H     H_    0.213061 0.422554 0.663924 0.277111
H507  H     H_    0.108833 0.565597 0.333107 0.192170
H508  H     H_    0.114013 0.515730 0.363597 0.092139
H509  H     H_    0.149868 0.636345 0.368277 0.248199
H510  H     H_    0.154412 0.586444 0.399090 0.206026
H511  H     H_    0.216351 0.529147 0.366220 0.257108
H512  H     H_    0.243079 0.597233 0.371100 0.262964
N1    N     N_R   0.047309 0.496932 0.015489 -0.178195
N2    N     N_R   0.453039 0.010511 0.484207 -0.177149
N3    N     N_R   0.999470 0.548132 0.515519 -0.177666
N4    N     N_R   0.000171 0.452607 0.484501 -0.177959
N5    N     N_R   0.452805 0.010383 0.515258 -0.179041
N6    N     N_R   0.548037 0.001898 0.484436 -0.179749
N7    N     N_R   0.000532 0.452610 0.515556 -0.177981
N8    N     N_R   0.999755 0.548134 0.484460 -0.177644
N9    N     N_R   0.951934 0.498162 0.984430 -0.177844
N10   N     N_R   0.499577 0.047131 0.015507 -0.175960
N11   N     N_R   0.498770 0.951653 0.984447 -0.178667
N12   N     N_R   0.951915 0.497683 0.015489 -0.177891
N13   N     N_R   0.047321 0.496766 0.984436 -0.178129
N14   N     N_R   0.498926 0.951606 0.015505 -0.178590
N15   N     N_R   0.500078 0.047170 0.984449 -0.175867
N16   N     N_R   0.547851 0.002324 0.515483 -0.178397
O1    O     O_3   0.000000 0.500000 0.250000 -0.498967
O2    O     O_R   1.000000 0.454510 0.680680 -0.627405
O3    O     O_3   0.702662 0.341473 0.758995 -0.572631
O4    O     O_3   0.861899 0.339714 0.306033 -0.627425
O5    O     O_3   0.089187 0.710452 0.720395 -0.611081
O6    O     O_3   0.665341 0.867712 0.305434 -0.623372
O7    O     O_3   0.292341 0.092685 0.717035 -0.608678
O8    O     O_3   0.134214 0.664038 0.305605 -0.626572
O9    O     O_3   0.915957 0.284088 0.729912 -0.619350
O10   O     O_3   0.303600 0.103640 0.293009 -0.607310
O11   O     O_3   0.705129 0.905906 0.714344 -0.623756
O12   O     O_3   0.138662 0.340317 0.694017 -0.627944
O13   O     O_R   0.454510 0.000000 0.319320 -0.614458
O14   O     O_3   0.909341 0.709183 0.281218 -0.608984
O15   O     O_3   0.331207 0.869654 0.695482 -0.629102
O16   O     O_3   0.707741 0.092830 0.282879 -0.608675
O17   O     O_3   0.863357 0.660579 0.693721 -0.627143
O18   O     O_3   0.081999 0.281581 0.263171 -0.618719
O19   O     O_3   0.687999 0.111963 0.701827 -0.607595
O20   O     O_3   0.292438 0.908139 0.283077 -0.627348
O21   O     O_3   0.369039 0.833774 0.805474 -0.622932
O22   O     O_3   0.592245 0.207287 0.216284 -0.627276
O23   O     O_3   0.160817 0.363803 0.806262 -0.626736
O24   O     O_R   0.545490 0.000000 0.680680 -0.623294
O25   O     O_3   0.790841 0.590709 0.218903 -0.609243
O26   O     O_3   0.609353 0.190439 0.796764 -0.609832
O27   O     O_3   0.407388 0.791965 0.217261 -0.606454
O28   O     O_3   0.841076 0.639157 0.806100 -0.628207
O29   O     O_3   0.217364 0.423138 0.244916 -0.626996
O30   O     O_3   0.632523 0.834434 0.194718 -0.624695
O31   O     O_3   0.405970 0.205555 0.785372 -0.625193
O32   O     O_3   0.837797 0.365021 0.194009 -0.626768
O33   O     O_3   0.209405 0.590456 0.780814 -0.608522
O34   O     O_3   0.397762 0.198465 0.208092 -0.628396
O35   O     O_R   0.500000 0.954510 0.819320 -0.635571
O36   O     O_3   0.593382 0.792641 0.783578 -0.607026
O37   O     O_3   0.162135 0.633219 0.194696 -0.630370
O38   O     O_3   0.784570 0.416981 0.770189 -0.620880
O39   O     O_R   0.500000 0.045490 0.180680 -0.614961
O40   O     O_R   0.045490 0.500000 0.819320 -0.632767
O41   O     O_R   0.954510 0.500000 0.180680 -0.635235
O42   O     O_R   0.500000 0.045490 0.819320 -0.615901
O43   O     O_R   0.500000 0.954510 0.180680 -0.635313
O44   O     O_R   0.954510 0.500000 0.819320 -0.627834
O45   O     O_3   1.000000 0.500000 0.750000 -0.494552
O46   O     O_R   0.045490 0.500000 0.180680 -0.611159
O47   O     O_R   0.936000 0.609460 0.268180 -0.634308
O48   O     O_R   0.064000 0.390540 0.731820 -0.643478
O49   O     O_R   0.390540 0.936000 0.268180 -0.636277
O50   O     O_R   0.609460 0.064000 0.731820 -0.633312
O51   O     O_R   0.064000 0.390540 0.268180 -0.651577
O52   O     O_R   0.936000 0.609460 0.731820 -0.646886
O53   O     O_R   0.609460 0.064000 0.268180 -0.632174
O54   O     O_R   0.390540 0.936000 0.731820 -0.644478
O55   O     O_R   0.064000 0.609460 0.731820 -0.634796
O56   O     O_3   0.500000 0.000000 0.250000 -0.497773
O57   O     O_R   0.936000 0.390540 0.268180 -0.642799
O58   O     O_R   0.609460 0.936000 0.731820 -0.631080
O59   O     O_R   0.390540 0.064000 0.268180 -0.628699
O60   O     O_R   0.936000 0.390540 0.731820 -0.640708
O61   O     O_R   0.064000 0.609460 0.268180 -0.652007
O62   O     O_R   0.390540 0.064000 0.731820 -0.632240
O63   O     O_R   0.609460 0.936000 0.268180 -0.644965
O64   O     O_R   0.436000 0.109460 0.768180 -0.634553
O65   O     O_R   0.564000 0.890540 0.231820 -0.645153
O66   O     O_R   0.890540 0.436000 0.768180 -0.639309
O67   O     O_3   0.500000 0.000000 0.750000 -0.497134
O68   O     O_R   0.109460 0.564000 0.231820 -0.616963
O69   O     O_R   0.564000 0.890540 0.768180 -0.632165
O70   O     O_R   0.436000 0.109460 0.231820 -0.625592
O71   O     O_R   0.109460 0.564000 0.768180 -0.634879
O72   O     O_R   0.890540 0.436000 0.231820 -0.647763
O73   O     O_R   0.564000 0.109460 0.231820 -0.637087
O74   O     O_R   0.436000 0.890540 0.768180 -0.644359
O75   O     O_R   0.109460 0.436000 0.231820 -0.633391
O76   O     O_R   0.890540 0.564000 0.768180 -0.643405
O77   O     O_R   0.436000 0.890540 0.231820 -0.633231
O78   O     O_R   1.000000 0.454510 0.319320 -0.625297
O79   O     O_R   0.564000 0.109460 0.768180 -0.631311
O80   O     O_R   0.890540 0.564000 0.231820 -0.634084
O81   O     O_R   0.109460 0.436000 0.768180 -0.647076
O82   O     O_3   0.918750 0.441124 0.130443 -0.636841
O83   O     O_3   0.080132 0.440154 0.869700 -0.637649
O84   O     O_3   0.557156 0.917952 0.129963 -0.634583
O85   O     O_3   0.560116 0.078127 0.869469 -0.613220
O86   O     O_3   0.081156 0.556191 0.129666 -0.633016
O87   O     O_3   0.919695 0.558579 0.870208 -0.638737
O88   O     O_3   0.441748 0.080223 0.130370 -0.615230
O89   O     O_R   0.000000 0.545490 0.680680 -0.632467
O90   O     O_3   0.441250 0.918804 0.869913 -0.632458
O91   O     O_3   0.412204 0.955282 0.629110 -0.635271
O92   O     O_3   0.580983 0.942771 0.370720 -0.633723
O93   O     O_3   0.058795 0.419561 0.629998 -0.638306
O94   O     O_3   0.057543 0.581635 0.369936 -0.636425
O95   O     O_3   0.589789 0.045527 0.630509 -0.625941
O96   O     O_3   0.421507 0.061798 0.368544 -0.613126
O97   O     O_3   0.940877 0.580465 0.630057 -0.638154
O98   O     O_3   0.942185 0.418976 0.370072 -0.636722
O99   O     O_3   0.775226 0.268679 0.306259 -0.574930
O100  O     O_R   0.545490 0.000000 0.319320 -0.636041
O101  O     O_3   0.163829 0.792889 0.727216 -0.566372
O102  O     O_3   0.736892 0.782169 0.306454 -0.565483
O103  O     O_3   0.210654 0.168216 0.722497 -0.572374
O104  O     O_3   0.220361 0.734933 0.306046 -0.563751
O105  O     O_3   0.839372 0.203076 0.740530 -0.573028
O106  O     O_3   0.234815 0.190272 0.298263 -0.575541
O107  O     O_3   0.788396 0.831349 0.720151 -0.569317
O108  O     O_3   0.225029 0.268933 0.693993 -0.574254
O109  O     O_3   0.833904 0.791027 0.275528 -0.565359
O110  O     O_3   0.259330 0.784623 0.695041 -0.564810
O111  O     O_R   0.454510 0.000000 0.680680 -0.626319
O112  O     O_3   0.789202 0.168625 0.277383 -0.572137
O113  O     O_3   0.776086 0.730502 0.692836 -0.568080
O114  O     O_3   0.160663 0.203212 0.250326 -0.575808
O115  O     O_3   0.755479 0.199619 0.697741 -0.569054
O116  O     O_3   0.209899 0.833583 0.277473 -0.565163
O117  O     O_3   0.283325 0.762774 0.807117 -0.564485
O118  O     O_3   0.667274 0.289431 0.221086 -0.564661
O119  O     O_3   0.230823 0.276678 0.807307 -0.567096
O120  O     O_3   0.708916 0.665995 0.224992 -0.566523
O121  O     O_3   0.697163 0.257480 0.801352 -0.568645
O122  O     O_R   0.000000 0.545490 0.319320 -0.632763
O123  O     O_3   0.330975 0.711208 0.221725 -0.564671
O124  O     O_3   0.769878 0.725754 0.806174 -0.574113
O125  O     O_3   0.298505 0.344155 0.251813 -0.561329
O126  O     O_3   0.718248 0.763123 0.193905 -0.566228
O127  O     O_3   0.331146 0.288603 0.779690 -0.568361
O128  O     O_3   0.766681 0.279066 0.193059 -0.564486
O129  O     O_3   0.290586 0.666525 0.775404 -0.564241
O130  O     O_3   0.310612 0.270215 0.204609 -0.568675
O131  O     O_3   0.668944 0.710971 0.778186 -0.572237
O132  O     O_3   0.231552 0.722217 0.192697 -0.556521
Zn1   Zn    Zn3+2 0.935020 0.500000 0.224040 0.942794
Zn2   Zn    Zn3+2 0.564980 0.000000 0.275960 0.941423
Zn3   Zn    Zn3+2 1.000000 0.435020 0.724040 0.945683
Zn4   Zn    Zn3+2 1.000000 0.564980 0.275960 0.943071
Zn5   Zn    Zn3+2 0.564980 0.000000 0.724040 0.947265
Zn6   Zn    Zn3+2 0.435020 0.000000 0.275960 0.954578
Zn7   Zn    Zn3+2 1.000000 0.564980 0.724040 0.943399
Zn8   Zn    Zn3+2 1.000000 0.435020 0.275960 0.946401
Zn9   Zn    Zn3+2 0.064980 0.500000 0.775960 0.942459
Zn10  Zn    Zn3+2 0.500000 0.935020 0.224040 0.941101
Zn11  Zn    Zn3+2 0.500000 0.064980 0.775960 0.950342
Zn12  Zn    Zn3+2 0.064980 0.500000 0.224040 0.973009
Zn13  Zn    Zn3+2 0.935020 0.500000 0.775960 0.945915
Zn14  Zn    Zn3+2 0.500000 0.064980 0.224040 0.953830
Zn15  Zn    Zn3+2 0.500000 0.935020 0.775960 0.943370
Zn16  Zn    Zn3+2 0.435020 0.000000 0.724040 0.941087

loop_
_geom_bond_atom_site_label_1
_geom_bond_atom_site_label_2
_ccdc_geom_bond_type
O76   Zn13  S    
C376  O77   A    
C345  C358  A    
C142  H38   S    
C93   H201  S    
C273  H354  S    
C194  H169  S    
C181  O119  S    
C125  H507  S    
C347  C360  A    
C379  O76   A    
C64   O16   S    
C344  C357  A    
C369  O35   A    
O77   Zn10  S    
C170  O114  S    
C165  C166  S    
C182  H138  S    
C14   C335  A    
C317  H459  S    
C27   O109  S    
C179  C373  S    
C282  C283  S    
C126  C127  S    
C26   O108  S    
C154  H67   S    
C218  H228  S    
C92   H190  S    
C346  H491  S    
C202  H187  S    
C13   C112  S    
C185  H145  S    
N10   N15   A    
C213  H215  S    
C75   O27   S    
C312  N12   A    
C231  H258  S    
C216  H222  S    
C383  O72   A    
C221  C222  S    
C192  O125  S    
C73   O25   S    
C143  C144  S    
C118  H492  S    
C12   C368  S    
O56   Zn10  S    
C108  C109  S    
C162  H86   S    
C39   C74   A    
C173  H117  S    
C191  H161  S    
C160  H83   S    
C188  H153  S    
C254  H309  S    
C85   O37   S    
C207  H200  S    
C117  H488  S    
C83   O34   S    
C91   O83   S    
C110  H477  S    
C275  C276  S    
C248  H295  S    
C217  H225  S    
C272  C273  S    
C150  H58   S    
O50   Zn5   S    
C39   O121  S    
C218  H229  S    
C261  H326  S    
C25   C60   A    
C51   O3    S    
C256  H315  S    
C178  H130  S    
C265  H338  S    
C312  N1    A    
C325  C343  A    
C36   C71   A    
C229  O9    S    
C285  O28   S    
C271  H350  S    
C29   C64   A    
C311  H444  S    
C78   C101  A    
C231  H256  S    
C173  H116  S    
C208  H204  S    
C32   C57   A    
C192  H163  S    
C17   C52   A    
C154  O106  S    
C104  C105  S    
C308  H438  S    
C255  O18   S    
C116  H487  S    
C183  O120  S    
C45   C81   A    
C200  H185  S    
C165  H95   S    
C221  O7    S    
C145  C147  S    
C106  H466  S    
C40   O123  S    
C67   O19   S    
C255  H314  S    
C153  H65   S    
C375  O48   A    
C296  H408  S    
C145  H47   S    
C378  O75   A    
C65   O17   S    
C149  H55   S    
O67   Zn11  S    
C292  H398  S    
C287  H387  S    
C133  H18   S    
C167  O113  S    
C304  H428  S    
C130  H9    S    
C380  O53   A    
C165  H96   S    
C267  H343  S    
C316  C317  S    
C43   C78   A    
O81   Zn9   S    
C337  O98   S    
C253  H307  S    
C236  H266  S    
O67   Zn16  S    
C308  O36   S    
O111  Zn16  S    
C102  H412  S    
C332  C349  A    
C158  H76   S    
C247  H293  S    
C303  C304  S    
C327  C345  A    
C69   O20   S    
C63   O15   S    
C334  C351  A    
C156  H74   S    
C264  H336  S    
C301  N9    A    
C306  C307  S    
O75   Zn12  S    
C166  H97   S    
C54   O6    S    
C197  H176  S    
C384  O58   A    
C10   C323  A    
C280  C281  S    
C151  H59   S    
C134  H19   S    
C383  O57   A    
C154  C155  S    
C278  O26   S    
C107  H470  S    
C300  H418  S    
C145  O102  S    
C4    C135  S    
O79   Zn11  S    
O53   Zn2   S    
C66   C224  A    
C296  C297  S    
C303  H425  S    
C159  O108  S    
N3    N8    A    
C274  H359  S    
C340  H223  S    
C269  H344  S    
C186  H148  S    
C175  H121  S    
N2    N5    A    
C245  O15   S    
C298  C299  S    
C312  C356  S    
C172  C173  S    
C189  H156  S    
C144  H42   S    
C62   C179  A    
C349  H13   S    
C324  O85   S    
C70   C190  A    
C196  O127  S    
C86   O38   S    
C318  C359  S    
C372  O41   A    
C309  H440  S    
C84   O36   S    
C9    C322  A    
C263  H331  S    
C302  H421  S    
C232  O10   S    
C225  H242  S    
C180  H131  S    
C338  C356  A    
O1    Zn1   S    
O39   Zn14  S    
C313  H449  S    
C196  C197  S    
O41   Zn1   S    
C22   C58   A    
C139  C140  S    
C189  O124  S    
C280  H370  S    
C215  H219  S    
C291  H396  S    
C114  H482  S    
C337  C355  A    
C327  O88   S    
C6    O64   A    
O60   Zn3   S    
C186  H149  S    
C117  H489  S    
C240  H277  S    
C61   C168  A    
C269  H345  S    
C164  H92   S    
C156  C158  S    
C15   C332  A    
C188  H155  S    
C126  H510  S    
C104  H461  S    
C41   C76   A    
C238  H272  S    
C15   C366  S    
C270  H348  S    
C252  H305  S    
C320  N14   A    
C217  H227  S    
C127  H511  S    
C128  H4    S    
O61   Zn4   S    
C221  H237  S    
C152  O105  S    
N11   N14   A    
C282  H376  S    
C208  H205  S    
C278  H369  S    
C221  H236  S    
C132  H14   S    
C296  H409  S    
C329  O91   S    
C155  H72   S    
C88   H101  S    
C28   C63   A    
C268  N16   A    
C242  H283  S    
C8    C321  A    
C311  H447  S    
C258  H319  S    
C306  H432  S    
C98   C99   S    
C178  O118  S    
C209  H206  S    
C373  O80   A    
C94   O84   S    
C197  H175  S    
C195  H171  S    
C140  H33   S    
C12   C329  A    
C214  H217  S    
C125  H508  S    
C143  O101  S    
C252  C253  S    
C247  H292  S    
C236  H267  S    
C203  H191  S    
C334  O95   S    
C178  H129  S    
C293  H402  S    
C258  H318  S    
C324  C342  A    
C54   C101  A    
C277  H365  S    
C182  H139  S    
C199  H182  S    
C233  H261  S    
C318  N15   A    
C166  H98   S    
C276  H363  S    
C198  H180  S    
C128  C129  S    
C139  H30   S    
C371  O40   A    
C269  O22   S    
C167  C169  S    
C23   C59   A    
C303  H424  S    
O45   Zn3   S    
C350  C364  A    
C249  C250  S    
C24   C36   A    
C274  H356  S    
C267  H341  S    
C307  H435  S    
C191  H160  S    
C49   C84   A    
C266  H340  S    
C175  H120  S    
C89   H124  S    
C205  H196  S    
C268  C360  S    
C97   H312  S    
C253  C254  S    
C246  C376  S    
O24   Zn5   S    
C91   H157  S    
C136  H21   S    
C170  C171  S    
C115  C116  S    
C368  O24   A    
C168  C375  S    
C236  C237  S    
C117  H490  S    
C167  H102  S    
C185  H147  S    
C299  H416  S    
C138  H28   S    
C189  C191  S    
C177  H128  S    
C174  C175  S    
C92   C93   S    
O67   Zn15  S    
C107  H468  S    
C300  H420  S    
C110  C111  S    
C184  H143  S    
C130  H8    S    
C233  H262  S    
C31   C46   A    
C256  C258  S    
C249  H297  S    
C107  C108  S    
C57   C341  S    
C123  H505  S    
C207  O132  S    
O67   Zn5   S    
C171  H110  S    
C243  H284  S    
C52   C79   A    
C160  H82   S    
C233  C234  S    
C144  H44   S    
C110  H476  S    
C50   C85   A    
C169  H104  S    
C259  O19   S    
C259  C260  S    
C165  O112  S    
C353  C361  A    
C14   C331  A    
C76   C212  A    
C251  H304  S    
C248  H294  S    
C323  C340  A    
C128  H5    S    
C262  H328  S    
C180  H133  S    
C72   C168  A    
C147  H50   S    
C294  H404  S    
C108  H472  S    
C335  O96   S    
C121  O93   S    
C342  C359  A    
C299  H417  S    
C220  H234  S    
C137  H26   S    
C249  H298  S    
C31   O114  S    
C310  H443  S    
O40   Zn9   S    
C271  H351  S    
C264  H333  S    
C272  H353  S    
C6    O62   A    
O56   Zn6   S    
C204  H193  S    
C5    O61   A    
C129  H6    S    
C172  H111  S    
C164  H94   S    
C159  H80   S    
C60   C157  A    
C99   H379  S    
C257  N2    A    
C138  C139  S    
C91   C92   S    
C319  C374  S    
C198  H178  S    
O64   Zn11  S    
C109  H474  S    
C302  H422  S    
C222  C225  S    
O122  Zn4   S    
O72   Zn1   S    
C125  O94   S    
C110  O90   S    
O51   Zn8   S    
C232  H259  S    
C281  H373  S    
C315  O38   S    
C43   C223  A    
C293  C294  S    
C27   C62   A    
C25   C363  A    
C2    C38   A    
C190  C381  S    
C258  H317  S    
C264  H332  S    
C119  H495  S    
C51   C341  A    
C176  H123  S    
C234  H264  S    
C209  C210  S    
C311  O37   S    
C156  O107  S    
C115  H484  S    
C49   C363  A    
C141  O99   S    
C187  H152  S    
C88   C89   S    
C3    O70   A    
C170  H106  S    
C8    C325  A    
C259  H321  S    
C75   C246  A    
C169  H105  S    
C331  C348  A    
C315  H453  S    
C32   C67   A    
C99   H368  S    
C19   C54   A    
C200  C202  S    
C305  H430  S    
C203  H189  S    
C283  H378  S    
C28   O110  S    
C282  O27   S    
C297  H410  S    
C152  H63   S    
C268  N5    A    
C311  C313  S    
C140  H31   S    
C174  O116  S    
C333  O94   S    
C98   H335  S    
C182  H137  S    
C220  H232  S    
C282  H375  S    
C227  H247  S    
C200  O129  S    
O73   Zn14  S    
C88   H113  S    
C23   C352  A    
C227  C228  S    
C313  H448  S    
C129  C130  S    
C25   O107  S    
C285  H384  S    
C314  H452  S    
C211  C213  S    
C372  O46   A    
C380  O73   A    
C234  H265  S    
C141  H34   S    
C131  H12   S    
C149  H53   S    
C245  H289  S    
C142  H39   S    
C342  H334  S    
C335  C353  A    
C20   O103  S    
C37   C374  A    
C240  H276  S    
C265  H337  S    
C136  C137  S    
C104  O87   S    
C71   O22   S    
C12   C334  A    
C370  O39   A    
C336  C354  A    
C366  O89   A    
C127  H512  S    
C105  H463  S    
C262  C263  S    
C89   H135  S    
C33   C69   A    
C58   C135  A    
C56   O8    S    
C63   C190  A    
C206  H198  S    
C384  O69   A    
C198  O128  S    
C354  C362  A    
C48   C83   A    
C10   C327  A    
C97   H323  S    
C116  H486  S    
C52   O4    S    
C366  O2    A    
C213  H214  S    
C1    C45   A    
C321  C338  A    
C42   O125  S    
N4    N7    A    
C118  H493  S    
C240  C241  S    
C16   C365  S    
C74   O26   S    
C278  C280  S    
C171  H108  S    
C203  O130  S    
C102  C103  S    
C35   C41   A    
C188  H154  S    
O47   Zn4   S    
C254  H310  S    
C30   C65   A    
O48   Zn3   S    
C18   C53   A    
C277  H364  S    
C199  H183  S    
C86   C135  A    
C315  C316  S    
C251  H302  S    
C276  C277  S    
C143  H41   S    
C1    C24   S    
C226  C227  S    
C7    C101  S    
C70   O21   S    
C283  C284  S    
C95   H257  S    
C154  H69   S    
C147  H48   S    
C242  O14   S    
C111  H479  S    
C152  C153  S    
C74   C235  A    
C256  H316  S    
C241  H278  S    
C255  C256  S    
C33   C68   A    
C212  C379  S    
C310  H441  S    
C382  O55   A    
C271  H349  S    
C288  H391  S    
C64   C201  A    
C134  O97   S    
C228  H248  S    
O45   Zn9   S    
C163  O110  S    
C231  H255  S    
C239  O12   S    
C173  H115  S    
C15   C336  A    
C224  C378  S    
C378  O51   A    
C343  H445  S    
C207  H202  S    
C37   O119  S    
C161  C162  S    
C263  C264  S    
C320  N10   A    
C181  C182  S    
C351  C360  A    
C172  O115  S    
C320  C358  S    
C355  C364  A    
C5    C124  S    
C87   H79   S    
C95   H268  S    
C298  H414  S    
C155  H70   S    
C244  H287  S    
C106  H467  S    
C56   C124  A    
C255  H313  S    
C26   C61   A    
C18   C112  A    
C148  H51   S    
C276  H362  S    
O42   Zn11  S    
C215  O5    S    
C149  H54   S    
O69   Zn15  S    
O43   Zn10  S    
C22   C341  A    
C229  H252  S    
C133  H17   S    
C344  H469  S    
C350  H24   S    
C243  C244  S    
C130  H10   S    
C193  H165  S    
C33   O116  S    
C159  H78   S    
C288  H392  S    
C250  H299  S    
C42   C46   A    
C5    O68   A    
C161  H85   S    
C326  O87   S    
C65   C212  A    
C237  H269  S    
C34   O117  S    
C197  H177  S    
C158  H77   S    
C314  H450  S    
C131  O96   S    
C95   C96   S    
C122  H503  S    
C295  H406  S    
C322  O83   S    
C49   O131  S    
C121  H500  S    
C136  H22   S    
C103  H457  S    
C13   C28   A    
C55   O7    S    
C2    C27   A    
O65   Zn10  S    
C279  C364  S    
C318  N11   A    
C227  H245  S    
C134  H20   S    
C34   C70   A    
C275  H360  S    
C226  H244  S    
C228  H249  S    
O74   Zn15  S    
C287  H389  S    
C210  H209  S    
C184  H142  S    
C381  O74   A    
O52   Zn7   S    
C93   H212  S    
C194  C195  S    
C326  C344  A    
C222  H239  S    
C103  H446  S    
C307  H433  S    
C269  C270  S    
C245  H291  S    
C142  H37   S    
C273  H355  S    
C18   O101  S    
C120  H496  S    
C51   C86   A    
C99   H357  S    
C97   C98   S    
C202  H188  S    
C309  H439  S    
C317  H460  S    
C90   C382  S    
C11   C369  S    
C288  C289  S    
C127  H3    S    
C143  H40   S    
C87   H90   S    
C35   C363  S    
C3    O59   A    
C8    C372  S    
C219  H230  S    
C225  H241  S    
C207  C208  S    
C180  H132  S    
C295  H407  S    
C176  O117  S    
C151  H61   S    
C19   C223  A    
C139  H29   S    
O78   Zn8   S    
C252  O17   S    
C219  C220  S    
C78   O30   S    
C216  H221  S    
C260  C261  S    
C41   O124  S    
C291  H395  S    
C91   H168  S    
C205  C206  S    
C96   H279  S    
C370  O43   A    
C186  H150  S    
C120  H498  S    
C153  H64   S    
C163  H91   S    
C45   O128  S    
C348  H2    S    
C299  C300  S    
C119  H494  S    
O62   Zn16  S    
C285  C286  S    
C104  H462  S    
C238  H273  S    
C328  C346  A    
C199  H181  S    
C77   C224  A    
C252  H306  S    
C94   H235  S    
C80   C113  A    
C44   C80   A    
C217  H226  S    
C247  C248  S    
C11   C328  A    
O100  Zn2   S    
C242  C243  S    
C347  H502  S    
C331  O92   S    
C261  H327  S    
C338  H1    S    
C260  H322  S    
C241  H280  S    
C329  C347  A    
C121  C122  S    
C191  H159  S    
C236  O11   S    
C92   H179  S    
C194  O126  S    
C30   C35   A    
C377  O79   A    
C262  O20   S    
C290  N3    A    
C23   O106  S    
O56   Zn2   S    
C245  C247  S    
C125  C126  S    
C317  H458  S    
O46   Zn12  S    
O57   Zn8   S    
C115  H485  S    
C208  H203  S    
C279  N8    A    
C206  H199  S    
C145  H45   S    
C68   C330  S    
C257  N6    A    
C71   C201  A    
C377  O50   A    
C295  C296  S    
C4    O66   A    
C308  H437  S    
C375  O81   A    
C305  O34   S    
C29   O112  S    
C200  H184  S    
C354  H57   S    
C50   O132  S    
C339  H112  S    
C152  H62   S    
C339  C357  A    
C106  H465  S    
C1    C17   A    
C157  C384  S    
C97   O85   S    
C181  H134  S    
C275  O25   S    
C166  H99   S    
C368  O111  A    
C10   C370  S    
C21   C56   A    
C178  C180  S    
C119  C120  S    
C244  H286  S    
C287  H388  S    
O70   Zn14  S    
C304  H427  S    
C105  C106  S    
C185  C186  S    
C376  O49   A    
C82   C90   A    
C40   C75   A    
C82   O33   S    
C100  H401  S    
C218  O6    S    
C230  H253  S    
C345  H480  S    
C114  H483  S    
C172  H114  S    
C13   C34   A    
C325  O86   S    
C192  C193  S    
C158  H75   S    
C94   H246  S    
C313  C314  S    
C238  H271  S    
C323  O84   S    
C122  H501  S    
C156  H73   S    
C193  H166  S    
C265  O21   S    
C232  C233  S    
C59   O10   S    
C321  O82   S    
C316  H455  S    
C111  C114  S    
C215  C216  S    
C123  H504  S    
C177  H127  S    
C214  H216  S    
C382  O71   A    
C235  C377  S    
N6    N16   A    
C184  H144  S    
O71   Zn9   S    
C69   C246  A    
C109  H473  S    
C19   O102  S    
C22   O105  S    
C7    O63   A    
C305  C306  S    
C40   C68   A    
C37   C72   A    
C53   C90   A    
C196  H174  S    
C270  C271  S    
C175  H122  S    
C298  O32   S    
C262  H329  S    
C171  H109  S    
C189  H158  S    
C230  H254  S    
C141  C142  S    
C367  O100  A    
C169  H103  S    
O58   Zn5   S    
C257  C361  S    
O13   Zn6   S    
C202  H186  S    
C36   O118  S    
C336  O97   S    
C31   C66   A    
C251  H303  S    
C203  C204  S    
C284  H380  S    
C292  O30   S    
O49   Zn6   S    
C204  H192  S    
C58   O9    S    
C38   O120  S    
C340  C358  A    
C147  H49   S    
C294  H405  S    
C163  C164  S    
C187  O123  S    
O2    Zn3   S    
C183  C184  S    
C87   O82   S    
C210  H208  S    
O44   Zn13  S    
O68   Zn12  S    
C137  H25   S    
C348  C361  A    
C309  C310  S    
C11   C324  A    
C114  H481  S    
C239  H274  S    
C67   C235  A    
C229  C230  S    
C286  H386  S    
C204  H194  S    
C194  H167  S    
C123  H506  S    
C44   O127  S    
C163  H89   S    
C292  C293  S    
C291  H397  S    
C237  H270  S    
C126  H509  S    
C351  H35   S    
C214  H218  S    
C89   H146  S    
C72   O23   S    
C304  H426  S    
C270  H347  S    
C272  H352  S    
N1    N13   A    
C316  H456  S    
C174  H118  S    
C47   C112  A    
C39   C57   A    
C61   O12   S    
C275  H361  S    
C333  C350  A    
C155  H71   S    
C116  C117  S    
C85   C124  A    
C260  H324  S    
C278  H367  S    
C232  H260  S    
C281  H372  S    
C151  H60   S    
O1    Zn12  S    
C225  H240  S    
C79   C383  S    
C118  C119  S    
C234  H263  S    
C133  H16   S    
C77   O29   S    
C48   C352  A    
C289  C291  S    
C322  C339  A    
C259  H320  S    
C242  H282  S    
C32   O115  S    
C159  C160  S    
C80   O31   S    
C328  O90   S    
C306  H431  S    
C297  H411  S    
O54   Zn16  S    
C279  N4    A    
C216  C217  S    
C47   O129  S    
O35   Zn15  S    
C198  C199  S    
C206  H197  S    
C187  H151  S    
C195  H172  S    
C48   O130  S    
C373  O47   A    
C265  C266  S    
C205  O131  S    
C83   C146  A    
C150  C151  S    
C162  H87   S    
C100  O86   S    
C243  H285  S    
C60   O11   S    
C195  H170  S    
C26   C374  A    
C140  H32   S    
C301  N13   A    
C302  O33   S    
C167  H100  S    
C14   C367  S    
C181  H136  S    
C20   C55   A    
C161  O109  S    
C16   C337  A    
C211  H213  S    
C292  H399  S    
C222  H238  S    
C115  O91   S    
C244  H288  S    
C285  H383  S    
C239  C240  S    
O56   Zn14  S    
N9    N12   A    
C343  C356  A    
C131  H11   S    
C96   H301  S    
C205  H195  S    
C267  H342  S    
C185  O121  S    
C307  H436  S    
C120  H497  S    
C118  O92   S    
C266  H339  S    
C46   C352  S    
C148  C149  S    
C17   O99   S    
C141  H36   S    
C295  O31   S    
C79   C81   A    
C215  H220  S    
C286  C287  S    
C132  C133  S    
C134  C136  S    
C170  H107  S    
C55   C113  A    
C355  H68   S    
C111  H478  S    
C230  C231  S    
C87   C88   S    
C219  H231  S    
C332  O93   S    
C192  H162  S    
C9    C371  S    
C138  H27   S    
C274  H358  S    
C150  O104  S    
C59   C146  A    
C6    C113  S    
C183  H141  S    
C300  H419  S    
C349  C362  A    
C30   O113  S    
O80   Zn1   S    
C196  H173  S    
C103  H434  S    
O55   Zn7   S    
C100  C102  S    
C273  C274  S    
C226  H243  S    
C94   C95   S    
C162  H88   S    
C284  H381  S    
C128  O95   S    
C160  H81   S    
C144  H43   S    
C248  H296  S    
C254  H311  S    
C213  C214  S    
C301  C357  S    
C105  H464  S    
C253  H308  S    
C177  H126  S    
C137  H23   S    
C176  C177  S    
O66   Zn13  S    
C284  H382  S    
C153  H66   S    
C263  H330  S    
C98   H346  S    
O45   Zn13  S    
C294  H403  S    
C108  H471  S    
C288  O29   S    
C211  O4    S    
C24   C29   A    
C220  H233  S    
C308  C309  S    
C66   O18   S    
C280  H371  S    
C16   C333  A    
C310  H442  S    
C102  H423  S    
C76   O28   S    
C302  C303  S    
C43   O126  S    
C353  H46   S    
O89   Zn7   S    
C176  H125  S    
C129  H7    S    
C164  H93   S    
C47   C82   A    
C289  H394  S    
C100  H390  S    
C365  O122  A    
C381  O54   A    
C261  H325  S    
C84   C157  A    
C62   O14   S    
C109  H475  S    
C293  H400  S    
C239  H275  S    
C93   H224  S    
C20   C319  A    
C228  H250  S    
C298  H415  S    
C138  O98   S    
C209  H207  S    
C201  C380  S    
C9    C326  A    
C281  H374  S    
C132  H15   S    
C50   C330  A    
C277  H366  S    
C367  O13   A    
C286  H385  S    
C148  H52   S    
C226  O8    S    
C107  O88   S    
C53   O5    S    
C371  O44   A    
C218  C219  S    
C229  H251  S    
C290  N7    A    
C297  H413  S    
C369  O42   A    
C21   C330  A    
C193  H164  S    
C305  H429  S    
C2    C223  S    
C7    O65   A    
C96   H290  S    
C174  H119  S    
C21   O104  S    
C250  H300  S    
C44   C319  A    
C283  H377  S    
C379  O52   A    
C161  H84   S    
C211  H211  S    
C346  C359  A    
C250  C251  S    
C4    O60   A    
C266  C267  S    
C183  H140  S    
C315  H454  S    
O63   Zn2   S    
C272  O23   S    
C73   C179  A    
C81   O32   S    
C314  H451  S    
C187  C188  S    
C3    C146  S    
C289  H393  S    
O1    Zn4   S    
C121  H499  S    
C42   C77   A    
O45   Zn7   S    
C150  H56   S    
C290  C362  S    
C209  O3    S    
C122  C123  S    
C237  C238  S    
O1    Zn8   S    
C249  O16   S    
C148  O103  S    
O59   Zn6   S    
C365  O78   A    
C131  C132  S    
C241  H281  S    
C210  H210  S    
C38   C73   A    
