data_mof_unit_47320.cif
_audit_creation_date              2012-12-11T16:08:53-0500
_audit_creation_method            fapswitch 2.2
_symmetry_space_group_name_H-M    P1
_symmetry_Int_Tables_number       1
_space_group_crystal_system       triclinic
_cell_length_a                    19.83679
_cell_length_b                    19.825886
_cell_length_c                    19.823527
_cell_angle_alpha                 110.865235
_cell_angle_beta                  107.099652
_cell_angle_gamma                 110.088026
_cell_volume                      6022.7074954

loop_
_atom_site_label
_atom_site_type_symbol
_atom_type_description
_atom_site_fract_x
_atom_site_fract_y
_atom_site_fract_z
_atom_type_partial_charge
C1    C     C_R   0.665672 0.928908 0.971702 -0.109732
C2    C     C_3   0.328957 0.403474 0.847448 -0.222137
C3    C     C_3   0.645809 0.317779 0.893361 -0.773834
C4    C     C_2   0.615738 0.264359 0.271693 1.020945
C5    C     C_2   0.355023 0.749269 0.702091 1.010337
C6    C     C_2   0.406648 0.856794 0.158561 1.109562
C7    C     C_2   0.655472 0.142963 0.879172 1.059023
C8    C     C_2   0.514450 0.473584 0.840107 0.988019
C9    C     C_2   0.294603 0.375548 0.959738 0.994749
C10   C     C_3   0.455850 0.448282 0.871622 -0.013612
C11   C     C_3   0.352793 0.401098 0.927928 -0.022138
C12   C     C_1   0.432468 0.636942 0.918268 -0.013628
C13   C     C_1   0.436448 0.259447 0.946322 0.003607
C14   C     C_3   0.429489 0.487415 0.973931 -0.216850
C15   C     C_3   0.378963 0.361143 0.825040 -0.219156
C16   C     C_3   0.406825 0.489263 0.893560 0.137913
C17   C     C_3   0.401653 0.360016 0.905735 0.137090
C18   C     C_1   0.417824 0.567645 0.900755 0.012769
C19   C     C_R   0.342483 0.070789 0.072676 -0.066930
C20   C     C_1   0.413548 0.299397 0.923560 0.014848
C21   C     C_3   0.668680 0.014357 0.568868 0.494919
C22   C     C_3   0.520208 0.975541 0.471046 0.484675
C23   C     C_R   0.546291 0.069456 0.235343 -0.062781
C24   C     C_R   0.500230 0.929137 0.771014 -0.133273
C25   C     C_3   0.613165 0.940443 0.479813 0.497165
C26   C     C_3   0.575324 0.049033 0.558673 0.494912
C27   C     C_1   0.560273 0.001757 0.317843 0.011237
C28   C     C_1   0.570127 0.991395 0.707239 0.025992
C29   C     C_3   0.650159 0.074573 0.544134 -0.593768
C30   C     C_R   0.529689 0.999984 0.242803 -0.050664
C31   C     C_3   0.538289 0.915293 0.494831 -0.596029
C32   C     C_3   0.593929 0.999450 0.454872 -0.114397
C33   C     C_3   0.594563 0.990184 0.584146 -0.115503
C34   C     C_1   0.580745 0.001634 0.380521 0.156866
C35   C     C_1   0.585928 0.989294 0.653379 0.166613
C36   C     C_3   0.962676 0.588220 0.416902 -0.213334
C37   C     C_3   0.989946 0.543875 0.531652 -0.223812
C38   C     C_3   0.976906 0.639081 0.505858 -0.224724
C39   C     C_3   0.976968 0.494434 0.444375 -0.235624
C40   C     C_1   0.184881 0.719719 0.677278 0.031832
C41   C     C_R   0.545329 0.996494 0.768063 -0.052058
C42   C     C_1   0.781995 0.363677 0.288262 0.063111
C43   C     C_3   0.034536 0.575114 0.452239 -0.012172
C44   C     C_3   0.918656 0.557278 0.497176 -0.012739
C45   C     C_3   0.047823 0.624365 0.538914 0.134014
C46   C     C_3   0.905259 0.508080 0.410412 0.130426
C47   C     C_R   0.727843 0.230126 0.159630 0.534438
C48   C     C_R   0.263178 0.797777 0.832824 0.549702
C49   C     C_1   0.124035 0.679432 0.613472 0.023903
C50   C     C_1   0.833574 0.433003 0.341331 0.031260
C51   C     C_3   0.036309 0.954232 0.129367 -0.400881
C52   C     C_R   0.727321 0.277640 0.230501 -0.197515
C53   C     C_3   0.011205 0.049525 0.065751 -0.413397
C54   C     C_3   0.030321 0.032664 0.172861 0.408121
C55   C     C_3   0.016198 0.971375 0.022599 0.390368
C56   C     C_1   0.815445 0.997495 0.057667 -0.009666
C57   C     C_1   0.214551 0.003665 0.077348 -0.012554
C58   C     C_3   0.961589 0.923300 0.049444 0.409964
C59   C     C_3   0.085547 0.080663 0.145634 0.404464
C60   C     C_3   0.955376 0.001257 0.092803 -0.160072
C61   C     C_3   0.091707 0.002792 0.102323 -0.176921
C62   C     C_1   0.878699 0.998533 0.078465 0.208753
C63   C     C_R   0.256351 0.767266 0.754038 -0.213221
C64   C     C_1   0.161911 0.003846 0.094461 0.246742
C65   C     C_R   0.423149 0.766210 0.990407 0.505753
C66   C     C_R   0.530006 0.199371 0.962390 0.570963
C67   C     C_R   0.654761 0.231003 0.226178 -0.151446
C68   C     C_R   0.334252 0.792270 0.763166 -0.094190
C69   C     C_R   0.499417 0.770927 0.927050 -0.123990
C70   C     C_R   0.458398 0.195605 0.031029 -0.139921
C71   C     C_R   0.469304 0.930445 0.167333 -0.102397
C72   C     C_R   0.576442 0.066676 0.842332 0.008068
C73   C     C_R   0.735605 0.068636 0.042318 -0.080370
C74   C     C_R   0.452703 0.721399 0.947385 -0.115211
C75   C     C_R   0.274317 0.932300 0.006123 -0.018878
C76   C     C_R   0.741957 0.998129 0.026692 0.040520
C77   C     C_R   0.272057 0.002324 0.049346 -0.004576
C78   C     C_3   0.638751 0.832457 0.463866 0.273853
C79   C     C_3   0.675175 0.784606 0.424293 -0.855064
C80   C     C_3   0.549700 0.157191 0.574239 0.266248
C81   C     C_3   0.514069 0.205730 0.614436 -0.834805
C82   C     C_3   0.803762 0.061901 0.601490 0.269740
C83   C     C_3   0.881523 0.067827 0.653584 -0.852254
C84   C     C_3   0.384986 0.927428 0.439334 0.281447
C85   C     C_R   0.473579 0.220411 0.978185 -0.147710
C86   C     C_3   0.306970 0.921545 0.387837 -0.854477
C87   C     C_2   0.855256 0.550211 0.524782 0.988011
C88   C     C_2   0.097145 0.583013 0.423468 0.985986
C89   C     C_3   0.104037 0.086542 0.312249 0.293263
C90   C     C_3   0.117577 0.148706 0.394012 -0.895327
C91   C     C_3   0.941292 0.918012 0.883128 0.290962
C92   C     C_3   0.924707 0.852708 0.801329 -0.882103
C93   C     C_2   0.051972 0.902534 0.164779 1.012013
C94   C     C_2   0.999947 0.102788 0.030339 1.017661
C95   C     C_3   0.134235 0.221837 0.226424 0.283143
C96   C     C_3   0.479042 0.446261 0.951559 -0.232433
C97   C     C_3   0.208503 0.299479 0.303218 -0.869319
C98   C     C_3   0.912994 0.782199 0.968376 0.280349
C99   C     C_3   0.838087 0.703676 0.893026 -0.860532
C100  C     C_3   0.859293 0.302935 0.182797 0.217188
C101  C     C_3   0.907890 0.305856 0.136021 -0.818917
C102  C     C_3   0.126604 0.755430 0.799412 0.247015
C103  C     C_3   0.073625 0.761277 0.840888 -0.862034
C104  C     C_3   0.317994 0.650992 0.976348 0.286264
C105  C     C_3   0.247355 0.626892 0.995379 -0.801242
C106  C     C_3   0.578931 0.289294 0.916382 0.230711
H1    H     H_    0.650082 0.864358 0.946600 0.120802
H2    H     H_    0.976980 0.434631 0.418763 0.133986
H3    H     H_    0.950345 0.605503 0.368988 0.145749
H4    H     H_    0.001532 0.525824 0.579080 0.139774
H5    H     H_    0.589066 0.133116 0.284007 0.106826
H6    H     H_    0.484454 0.866579 0.730920 0.143558
H7    H     H_    0.519608 0.750484 0.882461 0.170762
H8    H     H_    0.418374 0.203290 0.056225 0.155802
H9    H     H_    0.784368 0.132082 0.082847 0.149078
H10   H     H_    0.236935 0.870899 0.994610 0.189902
H11   H     H_    0.576382 0.786692 0.447178 0.110533
H12   H     H_    0.365421 0.134430 0.118441 0.138281
H13   H     H_    0.677786 0.866908 0.531589 0.118177
H14   H     H_    0.737933 0.828787 0.440610 0.253602
H15   H     H_    0.677782 0.740921 0.446419 0.211332
H16   H     H_    0.637060 0.748292 0.356549 0.267402
H17   H     H_    0.510228 0.122594 0.506591 0.120911
H18   H     H_    0.612019 0.202555 0.590423 0.111664
H19   H     H_    0.552779 0.242315 0.682099 0.267979
H20   H     H_    0.511299 0.249251 0.592130 0.213479
H21   H     H_    0.451463 0.161987 0.598881 0.248477
H22   H     H_    0.817755 0.125400 0.612527 0.108562
H23   H     H_    0.540903 0.463575 0.994357 0.137205
H24   H     H_    0.783875 0.019915 0.535913 0.121328
H25   H     H_    0.869569 0.005028 0.643150 0.252128
H26   H     H_    0.929257 0.092631 0.636735 0.209468
H27   H     H_    0.903923 0.110288 0.719564 0.269915
H28   H     H_    0.405184 0.969072 0.505087 0.121298
H29   H     H_    0.371175 0.863841 0.427824 0.113560
H30   H     H_    0.284421 0.879541 0.321696 0.267021
H31   H     H_    0.259438 0.896234 0.404722 0.212811
H32   H     H_    0.318672 0.984432 0.398809 0.253923
H33   H     H_    0.735964 0.498232 0.493787 0.338292
H34   H     H_    0.267541 0.387220 0.804884 0.140889
H35   H     H_    0.214384 0.645307 0.449989 0.338705
H36   H     H_    0.158433 0.115514 0.304969 0.117265
H37   H     H_    0.099221 0.029918 0.314313 0.126578
H38   H     H_    0.065651 0.121068 0.404848 0.268339
H39   H     H_    0.174618 0.165230 0.444412 0.213910
H40   H     H_    0.122875 0.206321 0.393994 0.253985
H41   H     H_    0.947945 0.974447 0.879691 0.131460
H42   H     H_    0.887375 0.892391 0.892247 0.115848
H43   H     H_    0.915643 0.794564 0.802048 0.255526
H44   H     H_    0.868797 0.838370 0.751170 0.217986
H45   H     H_    0.358400 0.308410 0.764247 0.141464
H46   H     H_    0.976914 0.876260 0.789510 0.267281
H47   H     H_    0.125585 0.859242 0.200786 0.324069
H48   H     H_    0.932320 0.151582 0.994442 0.325354
H49   H     H_    0.084725 0.201001 0.242634 0.114312
H50   H     H_    0.114557 0.239188 0.179779 0.128693
H51   H     H_    0.258592 0.323886 0.288959 0.269294
H52   H     H_    0.192569 0.348400 0.326767 0.218212
H53   H     H_    0.229634 0.284270 0.351351 0.251165
H54   H     H_    0.934558 0.766116 0.015608 0.128444
H55   H     H_    0.961142 0.802569 0.950413 0.118651
H56   H     H_    0.450226 0.539712 0.035144 0.144498
H57   H     H_    0.814701 0.717732 0.844557 0.252775
H58   H     H_    0.854210 0.655048 0.868959 0.217560
H59   H     H_    0.789548 0.679468 0.909195 0.268961
H60   H     H_    0.873565 0.271388 0.217122 0.069291
H61   H     H_    0.880449 0.368530 0.226670 0.135996
H62   H     H_    0.898321 0.340743 0.104494 0.252746
H63   H     H_    0.973871 0.337940 0.179379 0.230510
H64   H     H_    0.888627 0.241836 0.089704 0.253910
H65   H     H_    0.095354 0.689693 0.748978 0.127273
H66   H     H_    0.131787 0.798457 0.774771 0.096990
H67   H     H_    0.493646 0.851510 0.476657 0.180584
H68   H     H_    0.098932 0.827122 0.887901 0.256902
H69   H     H_    0.010993 0.737779 0.794448 0.238960
H70   H     H_    0.070465 0.722944 0.870525 0.258367
H71   H     H_    0.362586 0.638227 0.011003 0.109817
H72   H     H_    0.292179 0.611805 0.908895 0.102369
H73   H     H_    0.205569 0.647414 0.970253 0.262161
H74   H     H_    0.212781 0.558037 0.967175 0.226536
H75   H     H_    0.270770 0.655734 0.062646 0.252122
H76   H     H_    0.599396 0.339884 0.978870 0.092719
H77   H     H_    0.523374 0.280284 0.870536 0.131327
H78   H     H_    0.694860 0.138272 0.562185 0.178251
H79   H     H_    0.627634 0.269589 0.830941 0.271761
H80   H     H_    0.656194 0.376696 0.893817 0.229534
H81   H     H_    0.703517 0.329214 0.938178 0.249287
H82   H     H_    0.511128 0.251264 0.274003 0.318944
H83   H     H_    0.427420 0.703322 0.679975 0.319820
H84   H     H_    0.287199 0.788149 0.122355 0.322714
H85   H     H_    0.753649 0.244293 0.981702 0.335823
H86   H     H_    0.569774 0.552246 0.806685 0.328477
H87   H     H_    0.239747 0.296389 0.992927 0.344017
H88   H     H_    0.978213 0.699454 0.532449 0.141291
N1    N     N_R   0.613530 0.956740 0.956480 -0.050746
N2    N     N_R   0.386500 0.842990 0.843230 -0.095106
N3    N     N_R   0.499770 0.842990 0.956480 -0.078739
N4    N     N_R   0.500230 0.157010 0.043520 -0.071742
N5    N     N_R   0.456470 0.956710 0.113500 -0.065253
N6    N     N_R   0.543530 0.043290 0.886500 -0.070568
N7    N     N_R   0.656800 0.043290 0.999750 -0.044382
N8    N     N_R   0.343200 0.956710 0.000250 -0.057913
N9    N     N_R   0.386470 0.043260 0.043520 -0.048825
N10   N     N_R   0.499750 0.043260 0.156770 -0.031879
N11   N     N_R   0.500250 0.956740 0.843230 -0.059353
N12   N     N_R   0.656790 0.157020 0.113500 -0.091610
N13   N     N_R   0.343210 0.842980 0.886500 -0.091840
N14   N     N_R   0.456490 0.842980 0.999750 -0.096786
N15   N     N_R   0.543510 0.157020 0.000250 -0.083142
N16   N     N_R   0.613500 0.157010 0.156770 -0.093664
Ni1   Ni    Ni4+2 0.500010 0.900760 0.900750 0.225678
Ni2   Ni    Ni4+2 0.499990 0.099240 0.099250 0.242717
Ni3   Ni    Ni4+2 0.599260 0.099260 0.000000 0.289933
Ni4   Ni    Ni4+2 0.400740 0.900740 0.000000 0.292050
O1    O     O_3   0.635275 0.887077 0.434646 -0.617595
O2    O     O_3   0.014370 0.937983 0.945632 -0.624933
O3    O     O_2   0.003662 0.866873 0.183686 -0.616700
O4    O     O_R   0.121646 0.895526 0.176176 -0.812970
O5    O     O_2   0.050124 0.135925 0.011843 -0.611655
O6    O     O_R   0.932855 0.114547 0.018811 -0.833194
O7    O     O_3   0.155850 0.160740 0.196830 -0.615360
O8    O     O_3   0.891319 0.843184 0.998131 -0.615204
O9    O     O_3   0.775224 0.261011 0.126999 -0.610090
O10   O     O_3   0.203467 0.776792 0.856783 -0.648147
O11   O     O_3   0.354093 0.736211 0.000332 -0.632902
O12   O     O_3   0.553078 0.102611 0.603524 -0.618101
O13   O     O_3   0.563727 0.212724 0.912960 -0.656033
O14   O     O_2   0.657340 0.327813 0.339172 -0.605135
O15   O     O_R   0.530814 0.222829 0.237229 -0.827685
O16   O     O_2   0.315196 0.724918 0.629791 -0.605229
O17   O     O_R   0.419224 0.734169 0.727233 -0.828996
O18   O     O_2   0.426138 0.820626 0.192423 -0.638194
O19   O     O_R   0.324698 0.832705 0.116286 -0.776733
O20   O     O_2   0.681925 0.160432 0.835612 -0.643457
O21   O     O_R   0.700516 0.194667 0.964076 -0.752714
O22   O     O_2   0.549434 0.434585 0.825177 -0.664096
O23   O     O_3   0.744130 0.031040 0.624159 -0.619595
O24   O     O_R   0.528848 0.541306 0.827906 -0.797733
O25   O     O_2   0.259873 0.414637 0.975475 -0.644722
O26   O     O_R   0.280233 0.307387 0.971203 -0.792973
O27   O     O_3   0.444224 0.958729 0.416398 -0.624156
O28   O     O_2   0.876240 0.591733 0.597458 -0.661347
O29   O     O_R   0.772738 0.497272 0.467578 -0.751020
O30   O     O_2   0.076561 0.534428 0.352681 -0.657440
O31   O     O_R   0.178167 0.646260 0.476876 -0.750064
O32   O     O_3   0.030902 0.065614 0.249104 -0.615150

loop_
_geom_bond_atom_site_label_1
_geom_bond_atom_site_label_2
_ccdc_geom_bond_type
C25   C31   S    
C21   O23   S    
C84   H29   S    
N6    N11   A    
C56   C76   S    
C29   H78   S    
C12   C74   S    
C81   H20   S    
C61   C64   S    
N5    Ni4   S    
C24   N11   A    
C51   C61   S    
C66   C85   A    
C15   H45   S    
C30   C71   A    
C58   O8    S    
C102  O10   S    
C104  O11   S    
C65   N14   A    
C54   C60   S    
C70   H8    S    
C83   H25   S    
C79   H15   S    
C84   H28   S    
C95   O7    S    
C40   C63   S    
C22   C32   S    
C100  H61   S    
C43   C88   S    
C97   H53   S    
C93   O3    D    
C60   C62   S    
C1    N1    A    
C84   C86   S    
C29   C32   S    
C6    O18   D    
C10   C15   S    
C106  O13   S    
C80   H18   S    
C11   C14   S    
C21   C33   S    
N11   Ni1   S    
H85   O21   S    
C89   H36   S    
C82   O23   S    
C98   O8    S    
C28   C41   S    
C17   C20   S    
C89   O32   S    
C67   N16   A    
C100  H60   S    
C95   H50   S    
C19   C77   A    
N4    N15   A    
C106  H76   S    
C38   C45   S    
C47   O9    S    
C59   O7    S    
C86   H31   S    
C88   O31   S    
N2    Ni1   S    
H86   O24   S    
C53   C60   S    
C104  H72   S    
C19   H12   S    
C24   H6    S    
C66   O13   S    
C92   H46   S    
H35   O31   S    
C5    O17   S    
C101  H63   S    
C84   O27   S    
C10   C96   S    
C82   H24   S    
C44   C87   S    
C2    C16   S    
N13   Ni4   S    
H48   O6    S    
C95   H49   S    
C53   C59   S    
C81   H19   S    
C25   C32   S    
C4    O14   D    
C7    O20   D    
C36   H3    S    
C70   N4    A    
C81   H21   S    
C27   C30   S    
C69   N3    A    
C24   C41   A    
C6    C71   S    
C105  H73   S    
C5    C68   S    
C2    C11   S    
C3    H79   S    
C14   C96   S    
C104  C105  S    
C75   N8    A    
C44   C46   S    
C54   C59   S    
C53   C55   S    
C27   C34   T    
C102  H66   S    
C39   H2    S    
C79   H16   S    
C7    O21   S    
C59   C61   S    
H84   O19   S    
C103  H69   S    
C23   C30   A    
C57   C77   S    
C25   O1    S    
C78   H11   S    
C28   C35   T    
N8    N9    A    
C7    C72   S    
C51   C58   S    
C78   C79   S    
C87   O28   D    
C39   C43   S    
C48   O10   S    
C100  O9    S    
C13   C85   S    
C89   H37   S    
C73   N7    A    
C103  H68   S    
N15   Ni3   S    
C91   H41   S    
C38   H88   S    
C93   O4    S    
C32   C34   S    
C14   H56   S    
C101  H62   S    
H87   O26   S    
C38   C44   S    
C91   O2    S    
N3    Ni1   S    
C42   C52   S    
C72   N6    A    
C43   C45   S    
N1    Ni1   S    
N12   N16   A    
C26   C33   S    
C87   O29   S    
C104  H71   S    
C45   C49   S    
C82   H22   S    
C79   H14   S    
N10   Ni2   S    
C9    O26   S    
C19   N9    A    
N6    Ni3   S    
H47   O4    S    
C65   O11   S    
C101  H64   S    
C68   N2    A    
C17   C96   S    
C80   O12   S    
N8    Ni4   S    
C66   N15   A    
C36   C46   S    
C2    C15   S    
C9    C11   S    
N7    Ni3   S    
C37   H4    S    
C47   C52   A    
C52   C67   A    
C51   C93   S    
C41   C72   A    
C99   H57   S    
C8    O22   D    
N12   Ni3   S    
C86   H30   S    
C6    O19   S    
C42   C50   T    
C82   C83   S    
N16   Ni2   S    
C39   C46   S    
C92   H44   S    
N5    N10   A    
C73   C76   A    
C14   C16   S    
N9    Ni2   S    
C55   C58   S    
C94   O6    S    
C47   N12   A    
C105  H74   S    
C37   C45   S    
H82   O15   S    
C3    H80   S    
C90   H40   S    
C55   O2    S    
C98   H55   S    
N4    Ni2   S    
C57   C64   T    
C31   H67   S    
C102  H65   S    
C15   C17   S    
C21   C25   S    
C63   C68   A    
C11   C17   S    
C31   C33   S    
N14   Ni4   S    
C65   C74   A    
C13   C20   T    
H83   O17   S    
C53   C94   S    
C5    O16   D    
C1    C76   A    
C16   C18   S    
C98   H54   S    
C80   C81   S    
C48   C63   A    
C3    H81   S    
C78   O1    S    
C88   O30   D    
C4    C67   S    
C91   H42   S    
C95   C97   S    
C22   C31   S    
C71   N5    A    
C9    O25   D    
N1    N7    A    
C8    O24   S    
C90   H39   S    
C23   H5    S    
C46   C50   S    
C73   H9    S    
C23   N10   A    
C51   C54   S    
C2    H34   S    
C4    O15   S    
C37   C44   S    
C36   C38   S    
C3    C106  S    
C83   H26   S    
C37   C39   S    
C10   C16   S    
C97   H52   S    
C21   C29   S    
C26   O12   S    
C55   C61   S    
C48   N13   A    
C103  H70   S    
C33   C35   S    
N3    N14   A    
C78   H13   S    
C56   C62   T    
C54   O32   S    
N2    N13   A    
C102  C103  S    
C106  H77   S    
C83   H27   S    
C86   H32   S    
C99   H58   S    
C1    H1    S    
C69   H7    S    
C94   O5    D    
H33   O29   S    
C26   C29   S    
C8    C10   S    
C98   C99   S    
C22   C26   S    
C75   C77   A    
C12   C18   T    
C92   H43   S    
C69   C74   A    
C36   C43   S    
C100  C101  S    
C75   H10   S    
C105  H75   S    
C89   C90   S    
C70   C85   A    
C58   C60   S    
C22   O27   S    
C90   H38   S    
C91   C92   S    
C40   C49   T    
C97   H51   S    
C96   H23   S    
C99   H59   S    
C80   H17   S    
