data_mof_unit_61246.cif
_audit_creation_date              2012-12-10T20:49:11-0500
_audit_creation_method            fapswitch 2.2
_symmetry_space_group_name_H-M    P1
_symmetry_Int_Tables_number       1
_space_group_crystal_system       triclinic
_cell_length_a                    19.18917
_cell_length_b                    19.225047
_cell_length_c                    19.462152
_cell_angle_alpha                 90.155047
_cell_angle_beta                  94.924952
_cell_angle_gamma                 85.168631
_cell_volume                      7127.83648341

loop_
_atom_site_label
_atom_site_type_symbol
_atom_type_description
_atom_site_fract_x
_atom_site_fract_y
_atom_site_fract_z
_atom_type_partial_charge
C1    C     C_R   0.493298 0.689121 0.506793 0.794587
C2    C     C_2   0.488647 0.515937 0.017211 -0.218882
C3    C     C_2   0.532385 0.474038 0.982387 -0.269005
C4    C     C_R   0.508225 0.310916 0.493459 0.784462
C5    C     C_R   0.514102 0.486455 0.763630 -0.051524
C6    C     C_R   0.513905 0.234219 0.492865 -0.070490
C7    C     C_R   0.454579 0.199975 0.505450 -0.261143
C8    C     C_R   0.457104 0.127607 0.505160 -0.172463
C9    C     C_R   0.519627 0.087796 0.492429 0.276133
C10   C     C_R   0.578893 0.121619 0.479883 -0.228992
C11   C     C_R   0.577436 0.194959 0.480272 0.204064
C12   C     C_R   0.491790 0.516995 0.093026 0.200575
C13   C     C_R   0.544886 0.874976 0.517260 -0.221155
C14   C     C_R   0.552140 0.802002 0.518340 0.061828
C15   C     C_R   0.478508 0.912415 0.505330 0.241107
C16   C     C_R   0.689802 0.492218 0.507423 0.783945
C17   C     C_R   0.490883 0.765672 0.508088 -0.052143
C18   C     C_R   0.424775 0.802978 0.497186 -0.256674
C19   C     C_R   0.417590 0.876272 0.496223 0.092319
C20   C     C_R   0.233266 0.508536 0.487266 0.002544
C21   C     C_R   0.200496 0.473161 0.536806 -0.229240
C22   C     C_R   0.127934 0.471566 0.531327 -0.172504
C23   C     C_R   0.432340 0.543701 0.124778 -0.182381
C24   C     C_R   0.086597 0.505413 0.475852 0.322336
C25   C     C_R   0.119398 0.539862 0.425953 -0.200047
C26   C     C_R   0.192196 0.542123 0.431857 -0.218495
C27   C     C_R   0.875805 0.470798 0.457224 -0.172180
C28   C     C_R   0.310153 0.507750 0.492395 0.787472
C29   C     C_R   0.803086 0.468771 0.454224 -0.231002
C30   C     C_R   0.912789 0.493913 0.517582 0.322998
C31   C     C_R   0.766555 0.490467 0.510986 0.004755
C32   C     C_R   0.803754 0.512562 0.571253 -0.229550
C33   C     C_R   0.876380 0.513356 0.574651 -0.195443
C34   C     C_R   0.432336 0.542285 0.196410 -0.197775
C35   C     C_R   0.508668 0.491564 0.688373 0.807272
C36   C     C_R   0.492055 0.508649 0.311674 0.789169
C37   C     C_R   0.491763 0.513628 0.236800 0.003687
C38   C     C_R   0.551940 0.489145 0.205237 -0.207098
C39   C     C_R   0.552371 0.491570 0.134081 -0.154157
C40   C     C_3   0.625779 0.765701 0.528964 -0.399074
C41   C     C_3   0.648769 0.730468 0.462702 -0.330809
C42   C     C_3   0.722671 0.694085 0.474406 -0.861982
C43   C     C_3   0.700340 0.192065 0.446649 -0.787858
C44   C     C_3   0.346477 0.918148 0.484785 -0.400917
C45   C     C_R   0.467229 0.450024 0.868806 0.253505
C46   C     C_3   0.282232 0.875322 0.475289 -0.365459
C47   C     C_3   0.214326 0.922860 0.464718 -0.873541
C48   C     C_3   0.345328 0.452291 0.894223 -0.805377
C49   C     C_R   0.462559 0.455299 0.796882 -0.222372
C50   C     C_R   0.571724 0.511090 0.802529 -0.210047
C51   C     C_R   0.577805 0.504697 0.873879 -0.199341
C52   C     C_R   0.525745 0.475056 0.907219 0.114551
H1    H     H_    0.599032 0.468486 0.235669 0.157210
H2    H     H_    0.903033 0.453925 0.412826 0.147911
H3    H     H_    0.088340 0.565539 0.382735 0.140477
H4    H     H_    0.216365 0.569154 0.392586 0.162670
H5    H     H_    0.776703 0.529032 0.615910 0.161001
H6    H     H_    0.104330 0.443240 0.570066 0.149307
H7    H     H_    0.904405 0.530286 0.621593 0.140277
H8    H     H_    0.230942 0.446525 0.579853 0.165424
H9    H     H_    0.612454 0.534643 0.777784 0.165218
H10   H     H_    0.574166 0.439494 0.007801 0.155503
H11   H     H_    0.385441 0.564369 0.094058 0.127103
H12   H     H_    0.622551 0.524156 0.903353 0.149925
H13   H     H_    0.385544 0.561943 0.220032 0.154120
H14   H     H_    0.447291 0.548891 0.988586 0.159229
H15   H     H_    0.600470 0.473736 0.112060 0.125103
H16   H     H_    0.761131 0.732666 0.489366 0.256769
H17   H     H_    0.724806 0.654010 0.515684 0.275635
H18   H     H_    0.737447 0.667968 0.426167 0.245737
H19   H     H_    0.612399 0.691090 0.444509 0.213764
H20   H     H_    0.648070 0.770480 0.421453 0.219308
H21   H     H_    0.664196 0.804090 0.545134 0.186609
H22   H     H_    0.629319 0.727694 0.572133 0.230895
H23   H     H_    0.591602 0.902883 0.525486 0.155088
H24   H     H_    0.650589 0.266385 0.509054 0.224365
H25   H     H_    0.738824 0.229499 0.435082 0.243545
H26   H     H_    0.685448 0.164071 0.398285 0.248102
H27   H     H_    0.725696 0.154765 0.486568 0.227633
H28   H     H_    0.208032 0.957074 0.510243 0.260840
H29   H     H_    0.214620 0.955752 0.417918 0.261540
H30   H     H_    0.168886 0.890604 0.457991 0.251147
H31   H     H_    0.286224 0.841153 0.429371 0.228006
H32   H     H_    0.279670 0.842485 0.521794 0.224135
H33   H     H_    0.340154 0.953201 0.529788 0.205395
H34   H     H_    0.626504 0.089645 0.471482 0.150854
H35   H     H_    0.346976 0.951484 0.438234 0.210174
H36   H     H_    0.429602 0.397811 0.950420 0.240412
H37   H     H_    0.308617 0.421140 0.919684 0.242426
H38   H     H_    0.325795 0.458691 0.839058 0.244619
H39   H     H_    0.345660 0.504343 0.919100 0.233187
H40   H     H_    0.378977 0.773787 0.489974 0.158441
H41   H     H_    0.410194 0.103150 0.515263 0.154008
H42   H     H_    0.405741 0.229426 0.515080 0.173386
H43   H     H_    0.775362 0.451484 0.407271 0.160392
H44   H     H_    0.418730 0.434786 0.766921 0.169634
N1    N     N_2   0.526219 0.013745 0.493476 -0.192944
N2    N     N_2   0.471145 0.986617 0.503322 -0.204660
N3    N     N_2   0.012465 0.504631 0.468232 -0.205198
N4    N     N_2   0.986600 0.496069 0.523915 -0.207581
N5    N     N_2   0.639213 0.229919 0.471678 -0.275885
N6    N     N_2   0.415018 0.416506 0.901246 -0.309022
O1    O     O_3   0.500000 0.500000 0.500000 -0.474633
O2    O     O_R   0.546320 0.532340 0.658770 -0.648303
O3    O     O_R   0.450550 0.549430 0.344370 -0.647099
O4    O     O_R   0.467400 0.453980 0.652500 -0.647364
O5    O     O_R   0.535730 0.464240 0.344360 -0.642867
O6    O     O_R   0.656240 0.454400 0.463600 -0.644073
O7    O     O_R   0.340160 0.549180 0.454800 -0.648385
O8    O     O_R   0.536860 0.652450 0.548350 -0.644763
O9    O     O_R   0.466740 0.343960 0.533260 -0.641637
O10   O     O_R   0.451210 0.659450 0.463610 -0.644903
O11   O     O_R   0.545190 0.344140 0.454780 -0.626251
O12   O     O_R   0.656710 0.532590 0.548340 -0.652488
O13   O     O_R   0.346890 0.463830 0.533270 -0.645789
Zn1   Zn    Zn3+2 0.558280 0.441710 0.441700 0.971877
Zn2   Zn    Zn3+2 0.558950 0.553420 0.562770 0.952369
Zn3   Zn    Zn3+2 0.446190 0.441460 0.553820 0.963824
Zn4   Zn    Zn3+2 0.436580 0.563410 0.441710 0.961052

loop_
_geom_bond_atom_site_label_1
_geom_bond_atom_site_label_2
_ccdc_geom_bond_type
C27   C29   A    
C34   C37   A    
C41   C42   S    
C2    C12   S    
N1    N2    D    
C27   H2    S    
C7    C8    A    
C43   H26   S    
C15   C19   A    
C12   C23   A    
O9    Zn3   S    
C47   H28   S    
C36   C37   S    
C1    O10   A    
C38   C39   A    
C43   H27   S    
C24   N3    S    
C30   N4    S    
C42   H18   S    
C40   H21   S    
C34   H13   S    
C18   C19   A    
C47   H30   S    
C13   H23   S    
C8    C9    A    
C48   H39   S    
C44   H35   S    
C9    C10   A    
C41   H19   S    
O11   Zn1   S    
O13   Zn3   S    
C23   H11   S    
C33   H7    S    
C48   H38   S    
C13   C14   A    
O4    Zn3   S    
C36   O5    A    
C42   H16   S    
C14   C17   A    
C5    C49   A    
O1    Zn2   S    
C32   H5    S    
O8    Zn2   S    
C44   C46   S    
C50   C51   A    
C8    H41   S    
C51   C52   A    
C4    O11   A    
C24   C25   A    
C21   H8    S    
C4    C6    S    
C35   O2    A    
C45   N6    S    
C6    C11   A    
C29   H43   S    
C20   C28   S    
C45   C52   A    
C25   C26   A    
C42   H17   S    
C16   O12   A    
C16   C31   S    
C43   N5    S    
C37   C38   A    
C28   O13   A    
C1    O8    A    
N3    N4    D    
C45   C49   A    
C23   C34   A    
C48   N6    S    
C17   C18   A    
C11   N5    S    
C41   H20   S    
C46   H32   S    
C40   C41   S    
C4    O9    A    
C48   H37   S    
C13   C15   A    
C22   C24   A    
C5    C50   A    
O1    Zn3   S    
C15   N2    S    
C44   H33   S    
C19   C44   S    
O7    Zn4   S    
O2    Zn2   S    
C3    H10   S    
H24   N5    S    
C7    H42   S    
C46   C47   S    
C10   H34   S    
C9    N1    S    
C30   C33   A    
C36   O3    A    
C39   H15   S    
C31   C32   A    
O1    Zn4   S    
C51   H12   S    
C25   H3    S    
C2    H14   S    
C26   H4    S    
C22   H6    S    
O10   Zn4   S    
H36   N6    S    
C3    C52   S    
C6    C7    A    
C28   O7    A    
C43   H25   S    
C1    C17   S    
C18   H40   S    
C32   C33   A    
O6    Zn1   S    
C12   C39   A    
O1    Zn1   S    
C29   C31   A    
C35   O4    A    
C38   H1    S    
C20   C26   A    
C5    C35   S    
C40   H22   S    
C2    C3    D    
C47   H29   S    
C49   H44   S    
O5    Zn1   S    
O12   Zn2   S    
C10   C11   A    
C16   O6    A    
C14   C40   S    
C46   H31   S    
C20   C21   A    
C50   H9    S    
O3    Zn4   S    
C21   C22   A    
C27   C30   A    
