data_mof_unit_32202.cif
_audit_creation_date              2012-12-10T19:11:27-0500
_audit_creation_method            fapswitch 2.2
_symmetry_space_group_name_H-M    P1
_symmetry_Int_Tables_number       1
_space_group_crystal_system       triclinic
_cell_length_a                    10.59397
_cell_length_b                    9.94511
_cell_length_c                    10.598945
_cell_angle_alpha                 90.000017
_cell_angle_beta                  87.989402
_cell_angle_gamma                 89.99942
_cell_volume                      1115.99825263

loop_
_atom_site_label
_atom_site_type_symbol
_atom_type_description
_atom_site_fract_x
_atom_site_fract_y
_atom_site_fract_z
_atom_type_partial_charge
C1    C     C_R   0.258555 0.500000 0.495510 0.861512
C2    C     C_3   0.481661 0.500001 0.121119 -0.089510
C3    C     C_3   0.074721 0.626447 0.421302 -0.376495
C4    C     C_3   0.066521 0.500044 0.629074 -0.374169
C5    C     C_3   0.930472 0.626761 0.421128 -0.382864
C6    C     C_3   0.922018 0.499939 0.628517 -0.384527
C7    C     C_3   0.074720 0.373498 0.421390 -0.376559
C8    C     C_3   0.121637 0.500000 0.491857 0.130637
C9    C     C_3   0.878331 0.499997 0.490920 0.142316
C10   C     C_3   0.930477 0.373295 0.421030 -0.382862
C11   C     C_3   0.369970 0.080503 0.519001 0.080440
C12   C     C_3   0.369970 0.919499 0.519003 0.080452
C13   C     C_3   0.559912 0.079838 0.380095 -0.190452
C14   C     C_3   0.559913 0.920163 0.380094 -0.190456
C15   C     C_3   0.575566 0.080196 0.600412 -0.254702
C16   C     C_3   0.575568 0.919803 0.600411 -0.254697
C17   C     C_R   0.488971 0.500000 0.258007 0.914845
C18   C     C_R   0.741663 0.499999 0.493989 0.833742
C19   C     C_R   0.508873 0.500000 0.740736 0.949731
C20   C     C_3   0.432820 0.610189 0.033546 0.022730
C21   C     C_3   0.432817 0.389816 0.033547 0.022711
C22   C     C_3   0.382981 0.500003 0.946499 -0.260369
C23   C     C_3   0.510517 0.500000 0.874898 -0.189703
C24   C     C_3   0.560187 0.610927 0.959155 0.169461
C25   C     C_3   0.560184 0.389071 0.959156 0.169461
C26   C     C_3   0.609942 0.499998 0.046857 -0.208949
H1    H     H_    0.289777 0.500006 0.901337 0.190309
H2    H     H_    0.898574 0.371780 0.322041 0.190356
H3    H     H_    0.895252 0.279747 0.468097 0.194126
H4    H     H_    0.308546 0.114686 0.442723 0.091319
H5    H     H_    0.308546 0.885314 0.442724 0.091312
H6    H     H_    0.674541 0.117584 0.592431 0.169426
H7    H     H_    0.674544 0.882414 0.592428 0.169424
H8    H     H_    0.539080 0.116051 0.693420 0.227553
H9    H     H_    0.539085 0.883946 0.693420 0.227550
H10   H     H_    0.660887 0.112453 0.375176 0.176085
H11   H     H_    0.660889 0.887547 0.375177 0.176090
H12   H     H_    0.703848 0.499996 0.090374 0.179503
H13   H     H_    0.113618 0.626990 0.322503 0.226854
H14   H     H_    0.099181 0.410224 0.680935 0.204366
H15   H     H_    0.106657 0.720264 0.467536 0.207663
H16   H     H_    0.099072 0.589973 0.680842 0.204457
H17   H     H_    0.895358 0.720250 0.468386 0.194169
H18   H     H_    0.884795 0.590190 0.679715 0.196639
H19   H     H_    0.898441 0.628473 0.322186 0.190317
H20   H     H_    0.884918 0.409554 0.679587 0.196721
H21   H     H_    0.113744 0.372769 0.322639 0.226828
H22   H     H_    0.106533 0.279731 0.467804 0.207709
N1    N     N_3   0.499750 0.138610 0.497240 -0.119720
N2    N     N_3   0.499750 0.861390 0.497240 -0.119718
O1    O     O_R   0.314910 0.616040 0.499970 -0.613406
O2    O     O_R   0.314910 0.383960 0.499970 -0.613411
O3    O     O_R   0.500080 0.616020 0.313900 -0.611955
O4    O     O_R   0.500080 0.383980 0.313900 -0.611979
O5    O     O_R   0.685320 0.616040 0.499930 -0.632063
O6    O     O_R   0.685320 0.383960 0.499930 -0.632069
O7    O     O_R   0.500150 0.616060 0.686000 -0.593002
O8    O     O_R   0.500150 0.383940 0.686000 -0.592999
Zn1   Zn    Zn3+2 0.500150 0.654960 0.499940 0.960264
Zn2   Zn    Zn3+2 0.500150 0.345040 0.499940 0.960253
I1    I     I_    0.275610 0.169598 0.687484 -0.347613
I2    I     I_    0.275619 0.830407 0.687492 -0.347605
C27   C     C_2   0.504705 0.133668 0.262730 0.501544
H23   H     H_    0.403530 0.135853 0.253663 0.033217
O9    O     O_2   0.574491 0.166189 0.174093 -0.555582
C28   C     C_2   0.504707 0.866335 0.262727 0.501603
H24   H     H_    0.403529 0.864181 0.253650 0.033178
O10   O     O_2   0.574502 0.833777 0.174100 -0.555568
C29   C     C_2   0.346569 0.726340 0.059130 0.460147
H25   H     H_    0.368557 0.823982 0.018359 0.109492
O11   O     O_2   0.248781 0.710668 0.121585 -0.599381
C30   C     C_2   0.346563 0.273670 0.059132 0.460128
H26   H     H_    0.368553 0.176026 0.018368 0.109502
O12   O     O_2   0.248771 0.289349 0.121580 -0.599386
I3    I     I_    0.684718 0.769496 0.898484 -0.292190
I4    I     I_    0.684712 0.230495 0.898489 -0.292184

loop_
_geom_bond_atom_site_label_1
_geom_bond_atom_site_label_2
_ccdc_geom_bond_type
C7    C10   S    
C28   O10   D    
C27   O9    D    
O5    Zn1   S    
C1    C8    S    
C4    C8    S    
C6    C9    S    
O3    Zn1   S    
C15   H6    S    
O4    Zn2   S    
C19   O7    A    
N1    Zn2   S    
N2    Zn1   S    
C24   C26   S    
C16   H9    S    
O7    Zn1   S    
O8    Zn2   S    
C15   C16   S    
C29   O11   D    
O2    Zn2   S    
C20   C24   S    
C11   H4    S    
C23   C24   S    
C9    C10   S    
C15   H8    S    
C18   O6    A    
C23   C25   S    
C28   H24   S    
C5    H17   S    
C3    H13   S    
C6    H18   S    
C21   C22   S    
C2    C17   S    
C19   O8    A    
C21   C30   S    
C2    C20   S    
C4    H14   S    
C7    C8    S    
C13   H10   S    
C30   O12   D    
C3    C8    S    
C26   H12   S    
C3    C5    S    
C25   C26   S    
C5    H19   S    
O6    Zn2   S    
C7    H21   S    
C19   C23   S    
C5    C9    S    
C11   N1    S    
C16   H7    S    
C12   I2    S    
C13   C27   S    
C2    C21   S    
C14   C28   S    
C2    C26   S    
C1    O1    A    
C18   O5    A    
C13   N1    S    
C4    C6    S    
C20   C22   S    
C22   H1    S    
C12   H5    S    
C20   C29   S    
O1    Zn1   S    
C17   O3    A    
C10   H2    S    
C21   C25   S    
C3    H15   S    
C6    H20   S    
C16   N2    S    
C30   H26   S    
C11   I1    S    
C12   N2    S    
C11   C12   S    
C24   I3    S    
C25   I4    S    
C7    H22   S    
C14   H11   S    
C10   H3    S    
C14   N2    S    
C4    H16   S    
C15   N1    S    
C29   H25   S    
C1    O2    A    
C27   H23   S    
C9    C18   S    
C22   C23   S    
C13   C14   S    
C17   O4    A    
