data_mof_unit_38685.cif
_audit_creation_date              2012-12-10T17:47:17-0500
_audit_creation_method            fapswitch 2.2
_symmetry_space_group_name_H-M    P1
_symmetry_Int_Tables_number       1
_space_group_crystal_system       triclinic
_cell_length_a                    11.673234
_cell_length_b                    14.862021
_cell_length_c                    14.925037
_cell_angle_alpha                 64.901604
_cell_angle_beta                  104.319154
_cell_angle_gamma                 103.814767
_cell_volume                      2245.3844396

loop_
_atom_site_label
_atom_site_type_symbol
_atom_type_description
_atom_site_fract_x
_atom_site_fract_y
_atom_site_fract_z
_atom_type_partial_charge
C1    C     C_R   0.483883 0.119824 0.313029 0.798328
C2    C     C_R   0.516136 0.880174 0.686972 0.798310
C3    C     C_R   0.454968 0.320844 0.003818 0.117778
C4    C     C_R   0.545293 0.679102 0.996158 0.117753
C5    C     C_R   0.512335 0.467671 0.051426 0.048486
C6    C     C_R   0.487975 0.532290 0.948529 0.048496
C7    C     C_R   0.440226 0.488534 0.876674 -0.286536
C8    C     C_R   0.560170 0.511423 0.123274 -0.286485
C9    C     C_R   0.427905 0.385228 0.902509 -0.026568
C10   C     C_R   0.572508 0.614725 0.097442 -0.026664
C11   C     C_R   0.692677 0.285503 0.669093 -0.364384
C12   C     C_R   0.307397 0.714546 0.330834 -0.364298
C13   C     C_R   0.668223 0.206755 0.637925 0.183265
C14   C     C_R   0.331876 0.793312 0.361980 0.183396
C15   C     C_R   0.514542 0.283869 0.508975 -0.028582
C16   C     C_R   0.485323 0.716051 0.491120 -0.028533
C17   C     C_R   0.537708 0.368934 0.536258 -0.013997
C18   C     C_R   0.462189 0.631014 0.463796 -0.014253
C19   C     C_R   0.629504 0.365952 0.618856 0.130088
C20   C     C_R   0.370465 0.634039 0.381147 0.129795
C21   C     C_R   0.478260 0.457048 0.485067 0.026874
C22   C     C_R   0.521609 0.542889 0.514997 0.026823
C23   C     C_R   0.284108 0.999196 0.500226 0.838325
C24   C     C_R   0.715891 0.000810 0.499764 0.838298
C25   C     C_R   0.620345 0.534711 0.595979 -0.012481
C26   C     C_R   0.379547 0.465252 0.404058 -0.012374
C27   C     C_R   0.665759 0.445465 0.649007 -0.225269
C28   C     C_R   0.334175 0.554516 0.351014 -0.225642
C29   C     C_1   0.162072 0.997929 0.500559 -0.173816
C30   C     C_1   0.837926 0.002098 0.499410 -0.173668
C31   C     C_1   0.059687 0.998794 0.500392 -0.059194
C32   C     C_1   0.940311 0.001247 0.499565 -0.059178
C33   C     C_R   0.480048 0.188629 0.206892 -0.040166
C34   C     C_R   0.520040 0.811354 0.793110 -0.040166
C35   C     C_R   0.443094 0.215965 0.032067 -0.212543
C36   C     C_R   0.557026 0.783964 0.967951 -0.212329
C37   C     C_R   0.460299 0.151657 0.132176 -0.204313
C38   C     C_R   0.539769 0.848295 0.867850 -0.204484
C39   C     C_R   0.497526 0.292910 0.180378 -0.254203
C40   C     C_R   0.502645 0.707077 0.819597 -0.254068
C41   C     C_R   0.490347 0.361197 0.079225 0.076833
C42   C     C_R   0.509904 0.638766 0.920741 0.076787
Cu1   Cu    Cu3+1 0.469550 0.918260 0.475690 0.942458
Cu2   Cu    Cu3+1 0.530450 0.081740 0.524310 0.942416
H1    H     H_    0.487799 0.681162 0.759893 0.151826
H2    H     H_    0.512364 0.318851 0.240064 0.151862
H3    H     H_    0.410006 0.532832 0.799055 0.147671
H4    H     H_    0.590491 0.467125 0.200874 0.147760
N1    N     N_R   0.576230 0.204580 0.560790 -0.202945
N2    N     N_R   0.423770 0.795420 0.439210 -0.202911
O1    O     O_R   0.459870 0.022090 0.338120 -0.582165
O2    O     O_R   0.540130 0.977910 0.661880 -0.582213
O3    O     O_R   0.511290 0.160150 0.379180 -0.594016
O4    O     O_R   0.488710 0.839850 0.620820 -0.594045
O5    O     O_R   0.311490 0.930960 0.479480 -0.577047
O6    O     O_R   0.688510 0.069040 0.520520 -0.576977
O7    O     O_R   0.362910 0.069020 0.520540 -0.574476
O8    O     O_R   0.637090 0.930980 0.479460 -0.574397
C43   C     C_R   0.375692 0.344676 0.823450 0.109292
C44   C     C_R   0.252938 0.341830 0.784655 -0.141054
C45   C     C_R   0.199103 0.289267 0.722539 -0.145735
C46   C     C_R   0.267299 0.238778 0.699553 -0.130386
C47   C     C_R   0.390074 0.244014 0.735271 -0.120926
C48   C     C_R   0.444758 0.298147 0.795712 -0.162578
H5    H     H_    0.198301 0.376923 0.805642 0.126937
H6    H     H_    0.104007 0.285499 0.694367 0.132198
H7    H     H_    0.225026 0.195088 0.654499 0.123311
H8    H     H_    0.442320 0.204233 0.717872 0.144674
H9    H     H_    0.539389 0.299112 0.825524 0.131150
C49   C     C_R   0.625006 0.655307 0.176435 0.109211
C50   C     C_R   0.555973 0.701425 0.204674 -0.162538
C51   C     C_R   0.610809 0.755613 0.265042 -0.121110
C52   C     C_R   0.733747 0.761383 0.300107 -0.130670
C53   C     C_R   0.801959 0.711342 0.276575 -0.145644
C54   C     C_R   0.747945 0.658688 0.214572 -0.141138
H10   H     H_    0.461212 0.700093 0.175314 0.131321
H11   H     H_    0.558550 0.795054 0.282862 0.144843
H12   H     H_    0.776133 0.805130 0.345089 0.123192
H13   H     H_    0.897183 0.715526 0.304236 0.132456
H14   H     H_    0.802555 0.623947 0.193152 0.126943
C55   C     C_R   0.695602 0.617584 0.622751 0.079855
C56   C     C_R   0.689351 0.625893 0.711758 -0.185268
C57   C     C_R   0.768268 0.699067 0.741411 -0.127466
C58   C     C_R   0.857114 0.761123 0.684901 -0.096105
C59   C     C_R   0.867245 0.749710 0.598981 -0.129413
C60   C     C_R   0.786656 0.678418 0.567884 -0.149451
H15   H     H_    0.623545 0.575718 0.757633 0.139457
H16   H     H_    0.761885 0.706498 0.809022 0.138458
H17   H     H_    0.919339 0.816798 0.708616 0.127001
H18   H     H_    0.938677 0.794753 0.557225 0.134390
H19   H     H_    0.798082 0.667371 0.503773 0.134358
C61   C     C_R   0.304364 0.382432 0.377157 0.079894
C62   C     C_R   0.213114 0.321636 0.431814 -0.149571
C63   C     C_R   0.132632 0.250385 0.400584 -0.129519
C64   C     C_R   0.143052 0.238984 0.314737 -0.096147
C65   C     C_R   0.232076 0.301020 0.258421 -0.127428
C66   C     C_R   0.310900 0.374147 0.288208 -0.185232
H20   H     H_    0.201463 0.332667 0.495868 0.134150
H21   H     H_    0.061057 0.205363 0.442178 0.134458
H22   H     H_    0.080910 0.183337 0.290923 0.126961
H23   H     H_    0.238671 0.293607 0.190855 0.138541
H24   H     H_    0.376863 0.424301 0.242485 0.139415
H25   H     H_    0.543519 0.927205 0.849147 0.147276
H26   H     H_    0.456483 0.072737 0.150904 0.147401
H27   H     H_    0.419437 0.181687 0.977766 0.150497
H28   H     H_    0.580587 0.818191 0.022294 0.150548
H29   H     H_    0.739186 0.440884 0.711336 0.146181
H30   H     H_    0.260790 0.559127 0.288649 0.146243
H31   H     H_    0.547474 0.721466 0.554517 0.168867
H32   H     H_    0.452236 0.278339 0.445702 0.168976
C67   C     C_R   0.248744 0.867725 0.312590 0.179119
C68   C     C_R   0.147744 0.855375 0.354421 -0.130557
C69   C     C_R   0.061922 0.919511 0.302868 -0.161006
C70   C     C_R   0.073434 0.993354 0.207351 -0.123119
C71   C     C_R   0.168687 0.000921 0.162097 -0.141353
C72   C     C_R   0.254099 0.936426 0.213581 -0.161776
H33   H     H_    0.136257 0.796784 0.427376 0.122913
H34   H     H_    0.986098 0.911420 0.336664 0.131548
H35   H     H_    0.006935 0.042876 0.167420 0.124532
H36   H     H_    0.175014 0.055258 0.086443 0.137738
H37   H     H_    0.322426 0.937419 0.175654 0.105521
C73   C     C_R   0.751483 0.132445 0.687158 0.179076
C74   C     C_R   0.746193 0.063560 0.786107 -0.161312
C75   C     C_R   0.831724 0.999156 0.837441 -0.141561
C76   C     C_R   0.927028 0.007002 0.792106 -0.123167
C77   C     C_R   0.938453 0.081014 0.696650 -0.160630
C78   C     C_R   0.852493 0.145038 0.645233 -0.130588
H38   H     H_    0.677828 0.062357 0.824108 0.105486
H39   H     H_    0.825454 0.944679 0.913051 0.137756
H40   H     H_    0.993627 0.957559 0.831927 0.124525
H41   H     H_    0.014309 0.089315 0.662793 0.131509
H42   H     H_    0.863884 0.203736 0.572311 0.122770
H43   H     H_    0.765537 0.285763 0.730595 0.141641
H44   H     H_    0.234602 0.714328 0.269275 0.141616

loop_
_geom_bond_atom_site_label_1
_geom_bond_atom_site_label_2
_ccdc_geom_bond_type
Cu2   N1    S    
C21   C26   A    
C4    C36   A    
C62   C63   A    
C52   C53   A    
C64   C65   A    
Cu1   O1    S    
C70   C71   A    
C1    C33   S    
C74   C75   A    
C39   C41   A    
C59   C60   A    
C11   C19   A    
C43   C48   A    
C51   H11   S    
C46   H7    S    
C34   C40   A    
C5    C6    A    
C23   C29   S    
C35   C37   A    
C16   N2    A    
C60   H19   S    
C11   H43   S    
C68   H33   S    
C45   C46   A    
C45   H6    S    
C26   C61   S    
C56   H15   S    
C77   H41   S    
C23   O7    A    
C73   C78   A    
C1    O3    A    
C78   H42   S    
Cu1   O8    S    
Cu2   O3    S    
C31   C32   S    
C22   C25   A    
C16   H31   S    
C52   H12   S    
C49   C50   A    
C27   H29   S    
C19   C27   A    
C54   H14   S    
C66   H24   S    
Cu2   O2    S    
C40   C42   A    
C57   H16   S    
C43   C44   A    
C12   H44   S    
C21   C22   A    
C25   C55   S    
C15   H32   S    
C14   C67   S    
C76   H40   S    
C68   C69   A    
C61   C66   A    
C55   C56   A    
C40   H1    S    
C72   H37   S    
C36   H28   S    
C58   C59   A    
C2    O4    A    
C64   H22   S    
C34   C38   A    
C20   C28   A    
C33   C37   A    
C47   C48   A    
C44   C45   A    
C9    C43   S    
C7    H3    S    
Cu1   Cu2   S    
C8    H4    S    
C38   H25   S    
C35   H27   S    
C5    C8    A    
Cu2   O6    S    
Cu1   O4    S    
C57   C58   A    
C3    C35   A    
Cu2   O7    S    
C65   C66   A    
C12   C20   A    
C46   C47   A    
C55   C60   A    
C16   C18   A    
C33   C39   A    
C48   H9    S    
C3    C9    A    
C1    O1    A    
C67   C72   A    
C2    O2    A    
C39   H2    S    
C13   N1    A    
C10   C49   S    
C8    C10   A    
C12   C14   A    
C44   H5    S    
C56   C57   A    
C53   H13   S    
C76   C77   A    
C24   O6    A    
C58   H17   S    
C4    C10   A    
C50   H10   S    
C69   C70   A    
Cu1   O5    S    
C15   C17   A    
C5    C41   A    
C47   H8    S    
C3    C41   A    
C67   C68   A    
C18   C22   A    
C70   H35   S    
C51   C52   A    
C37   H26   S    
C59   H18   S    
Cu1   N2    S    
C23   O5    A    
C6    C7    A    
C25   C27   A    
C26   C28   A    
C36   C38   A    
C50   C51   A    
C29   C31   T    
C30   C32   T    
C13   C73   S    
C11   C13   A    
C2    C34   S    
C74   H38   S    
C14   N2    A    
C4    C42   A    
C63   H21   S    
C28   H30   S    
C77   C78   A    
C61   C62   A    
C17   C19   A    
C75   H39   S    
C18   C20   A    
C15   N1    A    
C63   C64   A    
C24   C30   S    
C69   H34   S    
C7    C9    A    
C53   C54   A    
C24   O8    A    
C71   H36   S    
C6    C42   A    
C49   C54   A    
C73   C74   A    
C65   H23   S    
C62   H20   S    
C71   C72   A    
C75   C76   A    
C17   C21   A    
