data_mof_unit_38085.cif
_audit_creation_date              2012-12-11T14:34:03-0500
_audit_creation_method            fapswitch 2.2
_symmetry_space_group_name_H-M    P1
_symmetry_Int_Tables_number       1
_space_group_crystal_system       triclinic
_cell_length_a                    13.976564
_cell_length_b                    14.009887
_cell_length_c                    27.310538
_cell_angle_alpha                 90.151162
_cell_angle_beta                  89.936183
_cell_angle_gamma                 120.040953
_cell_volume                      4629.29700728

loop_
_atom_site_label
_atom_site_type_symbol
_atom_type_description
_atom_site_fract_x
_atom_site_fract_y
_atom_site_fract_z
_atom_type_partial_charge
C1    C     C_R   0.233425 0.787965 0.568445 0.547284
C2    C     C_R   0.212027 0.445661 0.568489 0.556795
C3    C     C_R   0.554462 0.766550 0.568447 0.545529
C4    C     C_3   0.668082 0.740524 0.787859 -0.194610
C5    C     C_3   0.259715 0.926999 0.788153 -0.194640
C6    C     C_3   0.072484 0.332091 0.788273 -0.194627
C7    C     C_3   0.646646 0.728282 0.731683 0.127185
C8    C     C_3   0.272038 0.918031 0.731960 0.127166
C9    C     C_3   0.081491 0.353797 0.732140 0.127162
C10   C     C_1   0.722290 0.869009 0.857757 -0.069856
C11   C     C_1   0.130714 0.852726 0.857780 -0.069868
C12   C     C_1   0.147180 0.277602 0.857751 -0.069903
C13   C     C_1   0.644244 0.823960 0.655993 -0.010365
C14   C     C_1   0.176121 0.820266 0.656020 -0.010649
C15   C     C_1   0.179645 0.356568 0.656075 -0.010460
C16   C     C_1   0.610315 0.802122 0.614572 0.025111
C17   C     C_1   0.197978 0.808299 0.614585 0.024691
C18   C     C_1   0.191673 0.390258 0.614658 0.024717
C19   C     C_R   0.105857 0.220960 0.088825 0.590676
C20   C     C_R   0.776760 0.884003 0.087766 0.585844
C21   C     C_R   0.115822 0.892529 0.087513 0.585353
C22   C     C_R   0.106500 0.218923 0.950297 0.545506
C23   C     C_R   0.781072 0.887353 0.950304 0.545610
C24   C     C_R   0.112665 0.893513 0.950336 0.543595
C25   C     C_R   0.623640 0.896502 0.361542 -0.131809
C26   C     C_R   0.101583 0.734981 0.361430 -0.143351
C27   C     C_R   0.313787 0.461995 0.350401 -0.127752
C28   C     C_R   0.646675 0.911529 0.311532 0.015335
C29   C     C_R   0.085951 0.741818 0.311255 0.014511
C30   C     C_R   0.305629 0.435489 0.300663 0.014553
C31   C     C_R   0.684333 0.935266 0.209761 0.013526
C32   C     C_R   0.060011 0.751037 0.209258 0.016006
C33   C     C_R   0.274228 0.360124 0.202736 0.014715
C34   C     C_R   0.234353 0.787490 0.431008 0.536973
C35   C     C_R   0.236679 0.500436 0.425747 0.559533
C36   C     C_R   0.554475 0.766425 0.431512 0.536457
C37   C     C_R   0.670125 0.013374 0.236646 -0.131649
C38   C     C_R   0.971236 0.675418 0.238680 -0.129997
C39   C     C_R   0.361952 0.367292 0.231102 -0.125693
C40   C     C_R   0.651523 0.001421 0.287024 -0.136834
C41   C     C_R   0.984680 0.670278 0.289038 -0.146437
C42   C     C_R   0.377852 0.405506 0.279306 -0.131840
C43   C     C_R   0.711770 0.948681 0.159336 0.222502
C44   C     C_R   0.047641 0.762837 0.158591 0.221922
C45   C     C_R   0.248624 0.310751 0.155485 0.219658
C46   C     C_R   0.719345 0.864281 0.134528 0.033766
C47   C     C_R   0.134841 0.851444 0.133248 0.032373
C48   C     C_R   0.151104 0.292709 0.132016 0.030955
C49   C     C_R   0.634911 0.728879 0.359327 -0.131361
C50   C     C_R   0.287387 0.892500 0.354718 -0.124234
C51   C     C_R   0.154679 0.487467 0.343865 -0.130538
C52   C     C_R   0.652941 0.740061 0.309337 0.016117
C53   C     C_R   0.275313 0.896218 0.304762 0.012800
C54   C     C_R   0.146144 0.462151 0.294084 0.017838
C55   C     C_R   0.658216 0.831376 0.285081 0.068078
C56   C     C_R   0.174488 0.820219 0.282591 0.069338
C57   C     C_R   0.220057 0.433074 0.272559 0.066999
C58   C     C_R   0.659058 0.657615 0.282953 -0.128547
C59   C     C_R   0.364402 0.972716 0.276620 -0.125590
C60   C     C_R   0.061325 0.460006 0.266114 -0.123822
C61   C     C_R   0.668697 0.664568 0.232401 -0.113426
C62   C     C_R   0.353438 0.975128 0.226325 -0.109756
C63   C     C_R   0.045895 0.423702 0.217790 -0.121926
C64   C     C_R   0.676407 0.756046 0.208109 0.003605
C65   C     C_R   0.252599 0.902507 0.203994 0.002975
C66   C     C_R   0.114627 0.388214 0.197066 -0.000713
C67   C     C_3   0.592794 0.877512 0.734578 -0.088373
C68   C     C_3   0.122011 0.715040 0.734317 -0.088327
C69   C     C_3   0.285006 0.407638 0.734576 -0.088433
C70   C     C_R   0.672987 0.841087 0.234267 0.028990
C71   C     C_R   0.162482 0.823621 0.231834 0.029340
C72   C     C_R   0.204449 0.395819 0.223734 0.029790
C73   C     C_R   0.692915 0.765677 0.158208 -0.166544
C74   C     C_R   0.238554 0.913922 0.154811 -0.168177
C75   C     C_R   0.089465 0.337746 0.151471 -0.181151
C76   C     C_R   0.612653 0.802421 0.384925 -0.000321
C77   C     C_R   0.203612 0.808404 0.382873 0.000825
C78   C     C_R   0.235017 0.482573 0.372663 -0.005603
C79   C     C_3   0.791243 0.926214 0.719989 -0.265203
C80   C     C_3   0.073806 0.864727 0.720044 -0.265263
C81   C     C_3   0.135218 0.209700 0.719703 -0.264942
C82   C     C_3   0.809733 0.940954 0.776363 -0.234675
C83   C     C_3   0.059041 0.868490 0.776413 -0.234680
C84   C     C_3   0.131576 0.190879 0.776016 -0.234801
C85   C     C_1   0.743332 0.876213 0.900815 -0.015523
C86   C     C_1   0.123564 0.866656 0.900844 -0.015402
C87   C     C_1   0.133340 0.256487 0.900800 -0.016235
C88   C     C_3   0.668656 0.839756 0.708944 0.056943
C89   C     C_3   0.160230 0.828674 0.708970 0.056900
C90   C     C_3   0.171174 0.332042 0.709004 0.057090
C91   C     C_3   0.610207 0.884126 0.791045 -0.225693
C92   C     C_3   0.115145 0.725662 0.790799 -0.225488
C93   C     C_3   0.274378 0.389845 0.791013 -0.225673
C94   C     C_3   0.702956 0.859192 0.804572 0.026772
C95   C     C_3   0.140603 0.843287 0.804598 0.026680
C96   C     C_3   0.156573 0.297210 0.804580 0.026818
Cr1   Cr    Cr6+3 0.164410 0.584450 0.499910 1.034265
Cr2   Cr    Cr6+3 0.415550 0.579960 0.499910 1.035947
Cr3   Cr    Cr6+3 0.420040 0.835590 0.499910 1.033640
Cr4   Cr    Cr6+3 0.155170 0.075460 0.019960 1.069800
Cr5   Cr    Cr6+3 0.924540 0.079710 0.019960 1.065603
Cr6   Cr    Cr6+3 0.920290 0.844830 0.019960 1.068057
H1    H     H_    0.631231 0.966701 0.805697 0.135235
H2    H     H_    0.032187 0.664186 0.805224 0.135326
H3    H     H_    0.336149 0.368769 0.805341 0.135069
H4    H     H_    0.505090 0.816580 0.726557 0.118270
H5    H     H_    0.182951 0.688335 0.726307 0.118818
H6    H     H_    0.311590 0.495162 0.726849 0.117952
H7    H     H_    0.531676 0.823120 0.809088 0.092452
H8    H     H_    0.175952 0.707981 0.808878 0.092431
H9    H     H_    0.291914 0.468056 0.809341 0.092514
H10   H     H_    0.734768 0.721932 0.796822 0.103761
H11   H     H_    0.278718 0.012225 0.797353 0.104030
H12   H     H_    0.987108 0.265511 0.797263 0.103945
H13   H     H_    0.606962 0.953818 0.381322 0.125581
H14   H     H_    0.036616 0.670379 0.383187 0.117848
H15   H     H_    0.378708 0.461873 0.372033 0.133578
H16   H     H_    0.671593 0.083343 0.219269 0.113001
H17   H     H_    0.889999 0.621395 0.223719 0.112256
H18   H     H_    0.416202 0.339034 0.217569 0.114352
H19   H     H_    0.640476 0.062371 0.306809 0.100653
H20   H     H_    0.915469 0.610691 0.310675 0.102254
H21   H     H_    0.444072 0.407132 0.300578 0.102133
H22   H     H_    0.696868 0.700209 0.138625 0.148668
H23   H     H_    0.306264 0.978818 0.134215 0.144440
H24   H     H_    0.016971 0.327530 0.132280 0.136372
H25   H     H_    0.672370 0.599548 0.212390 0.105285
H26   H     H_    0.422736 0.035890 0.205075 0.116587
H27   H     H_    0.977136 0.418746 0.197324 0.104636
H28   H     H_    0.653875 0.586646 0.301284 0.094513
H29   H     H_    0.442466 0.030609 0.293515 0.099656
H30   H     H_    0.004066 0.481826 0.282226 0.111102
H31   H     H_    0.627791 0.656583 0.377233 0.131299
H32   H     H_    0.366591 0.950484 0.370770 0.135846
H33   H     H_    0.096515 0.507650 0.360528 0.126682
H34   H     H_    0.846798 0.898790 0.703973 0.101988
H35   H     H_    0.101512 0.947646 0.704185 0.102171
H36   H     H_    0.052095 0.154315 0.703728 0.102273
H37   H     H_    0.814282 0.006859 0.702879 0.132298
H38   H     H_    0.992925 0.807110 0.702803 0.132090
H39   H     H_    0.193008 0.186886 0.702321 0.132627
H40   H     H_    0.834573 0.027218 0.786676 0.126427
H41   H     H_    0.972458 0.807215 0.786574 0.126301
H42   H     H_    0.193179 0.166014 0.786028 0.126333
H43   H     H_    0.878757 0.927201 0.786765 0.110088
H44   H     H_    0.073266 0.951292 0.786974 0.110158
H45   H     H_    0.048701 0.121943 0.786402 0.110116
H46   H     H_    0.705764 0.706211 0.714985 0.167685
H47   H     H_    0.294409 0.999225 0.715482 0.167788
H48   H     H_    0.000148 0.294851 0.715488 0.167945
H49   H     H_    0.593327 0.679986 0.808396 0.130144
H50   H     H_    0.320120 0.912600 0.808667 0.130161
H51   H     H_    0.086697 0.406546 0.809060 0.130118
O1    O     O_R   0.137150 0.468200 0.553200 -0.488035
O2    O     O_R   0.531800 0.668950 0.553200 -0.492059
O3    O     O_R   0.331050 0.862850 0.553200 -0.490078
O4    O     O_R   0.179100 0.982980 0.967000 -0.513644
O5    O     O_R   0.017020 0.196120 0.967000 -0.512324
O6    O     O_R   0.803880 0.820900 0.967000 -0.513770
O7    O     O_R   0.173970 0.688730 0.549930 -0.492436
O8    O     O_R   0.311270 0.485240 0.549930 -0.486861
O9    O     O_R   0.514760 0.826030 0.549930 -0.490396
O10   O     O_R   0.140110 0.470540 0.446010 -0.511103
O11   O     O_R   0.529460 0.669570 0.446010 -0.534034
O12   O     O_R   0.330430 0.859890 0.446010 -0.523783
O13   O     O_R   0.176710 0.690910 0.450560 -0.523364
O14   O     O_R   0.309090 0.485800 0.450560 -0.503874
O15   O     O_R   0.514200 0.823290 0.450560 -0.507885
O16   O     O_3   0.333333 0.666667 0.499990 -0.297771
O17   O     O_R   0.176750 0.985260 0.074180 -0.514378
O18   O     O_R   0.014740 0.191490 0.074180 -0.524066
O19   O     O_R   0.808510 0.823250 0.074180 -0.514116
O20   O     O_R   0.146100 0.172630 0.068980 -0.436285
O21   O     O_R   0.827370 0.973470 0.068980 -0.440781
O22   O     O_R   0.026530 0.853900 0.068980 -0.435705
O23   O     O_3   0.000000 0.000000 0.020040 -0.242597
O24   O     O_R   0.148270 0.170520 0.969620 -0.499200
O25   O     O_R   0.829480 0.977750 0.969620 -0.498043
O26   O     O_R   0.022250 0.851730 0.969620 -0.500069
O27   O     O_3   0.736158 0.043454 0.134003 -0.693792
H52   H     H_    0.774079 0.107364 0.156378 0.314449
O28   O     O_3   0.950548 0.695179 0.133856 -0.693752
H53   H     H_    0.919259 0.619391 0.146726 0.305250
O29   O     O_3   0.312546 0.274020 0.132757 -0.692048
H54   H     H_    0.391120 0.326714 0.140027 0.309238
C97   C     C_1   0.611865 0.984256 0.715377 0.230002
N1    N     N_1   0.626807 0.067786 0.700345 -0.247473
C98   C     C_1   0.015029 0.627397 0.714818 0.229725
N2    N     N_1   0.931315 0.558826 0.699552 -0.247840
C99   C     C_1   0.372962 0.388919 0.714977 0.229847
N3    N     N_1   0.441775 0.374255 0.699633 -0.247072
O30   O     O_3   0.539854 0.641337 0.720676 -0.699985
H55   H     H_    0.486213 0.650857 0.740841 0.306024
O31   O     O_3   0.359009 0.898281 0.720917 -0.700084
H56   H     H_    0.349246 0.835087 0.740909 0.305997
O32   O     O_3   0.101115 0.460361 0.721479 -0.700594
H57   H     H_    0.164277 0.513840 0.741692 0.306053

loop_
_geom_bond_atom_site_label_1
_geom_bond_atom_site_label_2
_ccdc_geom_bond_type
C15   C18   T    
C79   H37   S    
C10   C85   T    
C99   N3    T    
C82   C94   S    
C2    C18   S    
C33   C45   A    
C48   C75   A    
C67   C97   S    
C82   H40   S    
C27   C78   A    
C92   H8    S    
C81   C84   S    
C6    C9    S    
C53   C59   A    
C9    O32   S    
C54   C60   A    
C55   C70   A    
C25   C28   A    
C40   H19   S    
C59   H29   S    
C67   C88   S    
C33   C39   A    
C5    H50   S    
C31   C43   A    
C60   C63   A    
C19   O18   A    
Cr3   O15   S    
C37   C40   A    
C69   C93   S    
C4    C7    S    
C34   C77   S    
C53   C56   A    
C74   H23   S    
C28   C40   A    
C11   C86   T    
Cr6   O23   S    
C80   H35   S    
Cr3   O9    S    
C30   C57   A    
C36   O15   A    
Cr1   O16   S    
O29   H54   S    
C84   C96   S    
C80   C89   S    
O28   H53   S    
C6    H12   S    
C23   O25   A    
Cr5   O25   S    
C36   C76   S    
C33   C72   A    
C93   H3    S    
Cr2   O16   S    
C51   H33   S    
Cr4   O4    S    
C28   C55   A    
C31   C70   A    
C20   O21   A    
C37   H16   S    
C21   O22   A    
C23   O6    A    
Cr4   O23   S    
C35   O14   A    
C64   C73   A    
C8    O31   S    
C68   H5    S    
C32   C38   A    
C39   C42   A    
C34   O12   A    
Cr2   O14   S    
C3    O9    A    
C44   C47   A    
C1    O3    A    
C5    H11   S    
C49   C52   A    
C58   C61   A    
C81   H39   S    
O31   H56   S    
C4    H10   S    
C63   C66   A    
C2    O1    A    
C27   C30   A    
Cr6   O26   S    
C14   C17   T    
C60   H30   S    
Cr5   O21   S    
C22   O24   A    
Cr4   O24   S    
C84   H42   S    
C2    O8    A    
C3    O2    A    
C79   C88   S    
C5    C95   S    
C69   H6    S    
C42   H21   S    
C32   C71   A    
C27   H15   S    
Cr6   O19   S    
C81   H36   S    
C9    H48   S    
C66   C72   A    
C43   O27   S    
C50   C53   A    
Cr4   O17   S    
C26   C77   A    
Cr1   O7    S    
C38   C41   A    
C21   O17   A    
C50   H32   S    
C19   C48   S    
C22   O5    A    
Cr1   O10   S    
Cr6   O22   S    
C65   C71   A    
Cr6   O6    S    
C92   C95   S    
C35   O10   A    
C65   C74   A    
C31   C37   A    
C98   N2    T    
C41   H20   S    
C9    C90   S    
C61   C64   A    
C64   C70   A    
C19   O20   A    
C14   C89   S    
C79   H34   S    
C5    C8    S    
C83   H44   S    
C7    C88   S    
C73   H22   S    
C83   C95   S    
Cr3   O3    S    
C83   H41   S    
C24   O26   A    
C67   C91   S    
C68   C89   S    
C32   C44   A    
C49   C76   A    
C61   H25   S    
Cr1   O1    S    
C45   O29   S    
C52   C58   A    
C93   H9    S    
C4    C94   S    
C81   C90   S    
Cr3   O12   S    
Cr2   O8    S    
C20   O19   A    
Cr5   O5    S    
C93   C96   S    
C6    C96   S    
C7    O30   S    
C38   H17   S    
C69   C90   S    
C50   C77   A    
C44   O28   S    
C82   H43   S    
O27   H52   S    
C80   C83   S    
C7    H46   S    
C45   C48   A    
C11   C95   S    
C4    H49   S    
C49   H31   S    
Cr2   O2    S    
C59   C62   A    
C62   C65   A    
C29   C41   A    
C24   O4    A    
C1    O7    A    
C30   C42   A    
C47   C74   A    
C91   H1    S    
O32   H57   S    
C22   C87   S    
C69   C99   S    
C79   C82   S    
Cr2   O11   S    
C52   C55   A    
C67   H4    S    
Cr3   O16   S    
C29   C56   A    
C84   H45   S    
C35   C78   S    
C1    C17   S    
C25   C76   A    
O30   H55   S    
C51   C54   A    
C75   H24   S    
C25   H13   S    
C8    H47   S    
C51   C78   A    
C12   C87   T    
C80   H38   S    
C91   C94   S    
C62   H26   S    
C91   H7    S    
C58   H28   S    
C66   C75   A    
C13   C88   S    
C68   C92   S    
Cr5   O18   S    
C63   H27   S    
C57   C72   A    
C43   C46   A    
C26   H14   S    
C6    H51   S    
C92   H2    S    
C68   C98   S    
C26   C29   A    
C39   H18   S    
C23   C85   S    
C13   C16   T    
Cr4   O20   S    
C36   O11   A    
C10   C94   S    
C12   C96   S    
Cr5   O23   S    
C8    C89   S    
C21   C47   S    
C97   N1    T    
C34   O13   A    
C24   C86   S    
C46   C73   A    
C20   C46   S    
C3    C16   S    
Cr1   O13   S    
C56   C71   A    
C15   C90   S    
C54   C57   A    
