data_mof_unit_59657.cif
_audit_creation_date              2012-10-26T18:50:03-0400
_audit_creation_method            fapswitch 2.2
_symmetry_space_group_name_H-M    P1
_symmetry_Int_Tables_number       1
_space_group_crystal_system       triclinic
_cell_length_a                    10.809832
_cell_length_b                    13.001787
_cell_length_c                    11.616938
_cell_angle_alpha                 99.885217
_cell_angle_beta                  93.973764
_cell_angle_gamma                 90.527903
_cell_volume                      1604.25007975

loop_
_atom_site_label
_atom_site_type_symbol
_atom_type_description
_atom_site_fract_x
_atom_site_fract_y
_atom_site_fract_z
_atom_type_partial_charge
C1    C     C_R   0.498462 0.298930 0.478560 0.536840
C2    C     C_R   0.496203 0.860679 0.433332 -0.132630
C3    C     C_R   0.505930 0.031431 0.556243 0.048866
C4    C     C_R   0.497322 0.968715 0.443718 0.048966
C5    C     C_R   0.406235 0.385773 0.019521 -0.191323
C6    C     C_R   0.598560 0.611771 0.980126 -0.187031
C7    C     C_R   0.413240 0.398183 0.142185 0.033549
C8    C     C_R   0.591551 0.599230 0.857296 0.038048
C9    C     C_R   0.538399 0.551174 0.158324 0.038034
C10   C     C_R   0.461883 0.448775 0.841691 0.025249
C11   C     C_R   0.535246 0.541116 0.034985 0.000683
C12   C     C_R   0.501970 0.701085 0.521432 0.562384
C13   C     C_R   0.467204 0.457752 0.964891 -0.003509
C14   C     C_R   0.260738 0.493557 0.500140 0.541812
C15   C     C_R   0.734951 0.481032 0.497893 0.547841
C16   C     C_R   0.122471 0.528119 0.721229 -0.090932
C17   C     C_R   0.857112 0.378359 0.284238 -0.088596
C18   C     C_R   0.070429 0.510513 0.823804 0.001468
C19   C     C_R   0.916594 0.341268 0.182696 0.007028
C20   C     C_R   0.954942 0.460147 0.814682 -0.115944
C21   C     C_R   0.045405 0.336057 0.189966 -0.125587
C22   C     C_R   0.888448 0.436343 0.706556 -0.098817
C23   C     C_R   0.503555 0.814487 0.533878 0.000049
C24   C     C_R   0.113416 0.371893 0.295699 -0.114996
C25   C     C_R   0.938561 0.458274 0.603860 0.008320
C26   C     C_R   0.056259 0.422948 0.395496 0.005669
C27   C     C_R   0.064233 0.488202 0.608278 -0.005797
C28   C     C_R   0.925070 0.420162 0.391297 -0.006702
C29   C     C_R   0.866585 0.451115 0.496573 -0.040752
C30   C     C_R   0.125291 0.472422 0.500809 -0.034920
C31   C     C_3   0.142560 0.536940 0.941529 -0.258233
C32   C     C_3   0.077919 0.618790 0.026766 -0.302952
C33   C     C_3   0.151562 0.641645 0.145703 -0.430641
C34   C     C_R   0.498349 0.185612 0.466098 0.001120
C35   C     C_3   0.842049 0.305909 0.067537 -0.260781
C36   C     C_3   0.764029 0.206940 0.068651 -0.291914
C37   C     C_3   0.688495 0.173541 0.951950 -0.458052
C38   C     C_R   0.489768 0.014981 0.343348 -0.140352
C39   C     C_R   0.513605 0.985186 0.656604 -0.141425
C40   C     C_R   0.490290 0.123099 0.354468 -0.142014
C41   C     C_R   0.512443 0.877060 0.645491 -0.138087
C42   C     C_R   0.506459 0.139445 0.566647 -0.133084
Cu1   Cu    Cu3+1 0.509250 0.507730 0.615930 0.912555
Cu2   Cu    Cu3+1 0.490750 0.492270 0.384070 0.907206
H1    H     H_    0.093563 0.301335 0.114565 0.093240
H2    H     H_    0.512980 0.187314 0.653155 0.113432
H3    H     H_    0.518357 0.842561 0.724143 0.123192
H4    H     H_    0.484287 0.157631 0.275823 0.118908
H5    H     H_    0.483308 0.967698 0.256613 0.098150
H6    H     H_    0.520237 0.032489 0.743309 0.097547
H7    H     H_    0.407732 0.386128 0.787015 0.120575
H8    H     H_    0.591425 0.614449 0.213099 0.119028
H9    H     H_    0.640351 0.654162 0.815645 0.129488
H10   H     H_    0.369246 0.340330 0.182867 0.109058
H11   H     H_    0.159526 0.569541 0.184794 0.180973
H12   H     H_    0.914962 0.441404 0.891584 0.100337
H13   H     H_    0.246037 0.672055 0.136187 0.155961
H14   H     H_    0.103319 0.701175 0.205931 0.142971
H15   H     H_    0.069134 0.692223 0.990234 0.162503
H16   H     H_    0.983481 0.590332 0.039760 0.162705
H17   H     H_    0.153406 0.464193 0.979180 0.145111
H18   H     H_    0.237094 0.566894 0.931256 0.148800
H19   H     H_    0.624340 0.236228 0.934387 0.156139
H20   H     H_    0.750899 0.156241 0.879318 0.152479
H21   H     H_    0.632794 0.102047 0.955186 0.132803
H22   H     H_    0.826102 0.142534 0.085176 0.164686
H23   H     H_    0.354354 0.319993 0.967955 0.079413
H24   H     H_    0.698802 0.220822 0.139270 0.158307
H25   H     H_    0.780384 0.370186 0.049491 0.146978
H26   H     H_    0.904865 0.290039 0.994938 0.133409
H27   H     H_    0.652665 0.676289 0.031586 0.082536
H28   H     H_    0.206746 0.574350 0.733755 0.149383
H29   H     H_    0.757954 0.367809 0.278012 0.151318
H30   H     H_    0.799430 0.396818 0.703420 0.141071
H31   H     H_    0.209832 0.352950 0.298844 0.138892
H32   H     H_    0.489454 0.812794 0.346845 0.113654
N1    N     N_R   0.523180 0.519350 0.790130 -0.234886
N2    N     N_R   0.476820 0.480650 0.209870 -0.230847
O1    O     O_R   0.506570 0.354460 0.582000 -0.519405
O2    O     O_R   0.493430 0.645540 0.418000 -0.505523
O3    O     O_R   0.490940 0.341410 0.386200 -0.527226
O4    O     O_R   0.509060 0.658590 0.613800 -0.506437
O5    O     O_R   0.327470 0.506520 0.597900 -0.511803
O6    O     O_R   0.672530 0.493480 0.402100 -0.511035
O7    O     O_R   0.311840 0.493460 0.402100 -0.504753
O8    O     O_R   0.688160 0.506540 0.597900 -0.501747

loop_
_geom_bond_atom_site_label_1
_geom_bond_atom_site_label_2
_ccdc_geom_bond_type
C33   H11   S    
C3    C42   A    
C33   H14   S    
Cu1   O5    S    
C31   H17   S    
C35   C36   S    
C34   C42   A    
C5    H23   S    
C16   H28   S    
C39   C41   A    
C38   H5    S    
C12   C23   S    
C34   C40   A    
C36   C37   S    
C19   C21   A    
C24   C26   A    
C36   H22   S    
C1    O3    A    
C42   H2    S    
C35   H26   S    
C22   C25   A    
C37   H21   S    
C5    C13   A    
C20   H12   S    
C16   C27   A    
C3    C39   A    
C27   C30   A    
C17   H29   S    
C17   C28   A    
C31   H18   S    
C9    H8    S    
C14   O5    A    
C14   C30   S    
C10   H7    S    
C32   H15   S    
C37   H19   S    
C10   N1    A    
C1    C34   S    
C15   C29   S    
C21   H1    S    
C25   C29   A    
C6    H27   S    
Cu2   O2    S    
Cu2   O3    S    
C6    C11   A    
C5    C7    A    
C6    C8    A    
C2    C4    A    
Cu1   Cu2   S    
C31   C32   S    
C41   H3    S    
C12   O4    A    
C9    C11   A    
C15   O8    A    
C20   C22   A    
C26   C30   A    
C7    N2    A    
C8    N1    A    
C1    O1    A    
C25   C27   A    
C32   H16   S    
C3    C4    A    
C37   H20   S    
C2    H32   S    
C40   H4    S    
C28   C29   A    
C33   H13   S    
Cu1   O8    S    
C14   O7    A    
C4    C38   A    
Cu2   O6    S    
C10   C13   A    
C8    H9    S    
C36   H24   S    
C24   H31   S    
C15   O6    A    
Cu1   N1    S    
C26   C28   A    
C23   C41   A    
C32   C33   S    
Cu2   N2    S    
C19   C35   S    
C38   C40   A    
C11   C13   A    
C12   O2    A    
C17   C19   A    
C18   C20   A    
C9    N2    A    
C39   H6    S    
C35   H25   S    
C16   C18   A    
C21   C24   A    
C2    C23   A    
Cu1   O4    S    
C22   H30   S    
C18   C31   S    
C7    H10   S    
Cu1   O1    S    
Cu2   O7    S    
