data_mof_unit_8409.cif
_audit_creation_date              2013-03-05T15:58:06-0500
_audit_creation_method            fapswitch 2.2
_symmetry_space_group_name_H-M    P1
_symmetry_Int_Tables_number       1
_space_group_crystal_system       triclinic
_cell_length_a                    12.594109
_cell_length_b                    13.008153
_cell_length_c                    14.965934
_cell_angle_alpha                 89.161159
_cell_angle_beta                  103.420647
_cell_angle_gamma                 81.918432
_cell_volume                      2358.32709973

loop_
_atom_site_label
_atom_site_type_symbol
_atom_site_description
_atom_site_fract_x
_atom_site_fract_y
_atom_site_fract_z
_atom_type_partial_charge
O1    O     O_R   0.366740 0.627160 0.477250 -0.601736
O2    O     O_R   0.544830 0.662520 0.507680 -0.574040
C1    C     C_R   0.437421 0.692478 0.491113 0.945733
O3    O     O_R   0.410940 0.482340 0.616930 -0.650765
O4    O     O_R   0.589030 0.517700 0.647360 -0.603963
C2    C     C_R   0.501185 0.499522 0.673054 0.941405
Zn1   Zn    Zn3+2 0.381090 0.476390 0.479680 1.066935
Zn2   Zn    Zn3+2 0.618910 0.523610 0.520320 1.065048
O5    O     O_R   0.455170 0.337480 0.492320 -0.571177
O6    O     O_R   0.633260 0.372840 0.522750 -0.589889
O7    O     O_R   0.410970 0.482300 0.352640 -0.560583
O8    O     O_R   0.589060 0.517660 0.383070 -0.603904
C3    C     C_R   0.562673 0.307944 0.512478 0.967796
C4    C     C_R   0.498490 0.500232 0.326983 0.976798
C5    C     C_R   0.580420 0.439198 0.202675 -0.180762
C6    C     C_R   0.494718 0.499209 0.230550 -0.128921
C7    C     C_R   0.405367 0.555994 0.166967 0.293357
C8    C     C_R   0.402394 0.551905 0.073031 -0.001491
C9    C     C_R   0.491719 0.494135 0.044954 0.030666
C10   C     C_R   0.580368 0.437176 0.110239 0.092553
C11   C     C_R   0.314720 0.607915 0.007341 -0.148407
C12   C     C_R   0.314474 0.608994 0.914250 -0.045515
C13   C     C_R   0.404572 0.552104 0.886195 0.049096
C14   C     C_R   0.494239 0.495737 0.952130 0.046838
C15   C     C_R   0.587423 0.442222 0.925324 -0.016299
C16   C     C_R   0.674029 0.382552 0.990969 0.291405
C17   C     C_R   0.669159 0.380611 0.082963 -0.174769
C18   C     C_R   0.407052 0.547874 0.793925 -0.126589
C19   C     C_R   0.501306 0.500967 0.768813 -0.045946
C20   C     C_R   0.592346 0.451833 0.833762 -0.151302
H1    H     H_    0.648104 0.395432 0.253495 0.172395
H2    H     H_    0.246808 0.653864 0.028157 0.223392
H3    H     H_    0.336954 0.582065 0.740444 0.193479
H4    H     H_    0.665156 0.419193 0.811847 0.228956
H5    H     H_    0.735658 0.335368 0.133633 0.187975
C21   C     C_R   0.710065 0.057979 0.638941 -0.171692
H6    H     H_    0.695327 0.876230 0.710640 0.194975
H7    H     H_    0.776672 0.030557 0.698074 0.192807
C22   C     C_R   0.606232 0.197393 0.531015 -0.252787
C23   C     C_R   0.290099 0.849897 0.435108 -0.024489
C24   C     C_R   0.269690 0.957284 0.415819 -0.114528
C25   C     C_R   0.353700 0.017235 0.442644 -0.084232
C26   C     C_R   0.456997 0.972887 0.497930 0.086816
C27   C     C_R   0.468360 0.870726 0.534687 -0.014061
C28   C     C_R   0.545144 0.030505 0.524928 0.035491
C29   C     C_R   0.631231 0.994604 0.602721 0.029149
C30   C     C_R   0.633073 0.899677 0.647763 -0.216080
C31   C     C_R   0.550073 0.838912 0.616964 0.321953
C32   C     C_R   0.548891 0.125082 0.479490 -0.166671
C33   C     C_R   0.694677 0.161697 0.607352 0.299514
C34   C     C_R   0.395451 0.804593 0.489204 -0.142949
H8    H     H_    0.335643 0.099283 0.423338 0.186012
H9    H     H_    0.189838 0.994223 0.376013 0.182337
C35   C     C_R   0.065924 0.450589 0.325424 -0.223315
H10   H     H_    0.033293 0.439211 0.253248 0.201770
N1    N     N_R   0.222190 0.444670 0.452360 -0.157100
C36   C     C_R   0.813053 0.560957 0.639660 0.062068
C37   C     C_R   0.922728 0.530438 0.683365 -0.235895
C38   C     C_R   0.997422 0.493287 0.631836 -0.014441
C39   C     C_R   0.965160 0.510031 0.534195 -0.066534
C40   C     C_R   0.851088 0.544708 0.492903 0.122828
C41   C     C_R   0.039497 0.492208 0.476195 -0.002969
C42   C     C_R   0.996717 0.493915 0.380169 -0.028562
C43   C     C_R   0.888305 0.543369 0.340602 -0.183030
C44   C     C_R   0.817009 0.575593 0.398638 0.204903
C45   C     C_R   0.155629 0.480091 0.508222 -0.016555
C46   C     C_R   0.177959 0.420402 0.364136 0.472784
N2    N     N_R   0.776970 0.554790 0.547140 -0.111264
H11   H     H_    0.193452 0.505805 0.574724 0.138876
H12   H     H_    0.755770 0.579516 0.682082 0.198494
H13   H     H_    0.945864 0.524679 0.757886 0.219629
C47   C     C_2   0.519705 0.138616 0.376635 1.020451
O9    O     O_2   0.492175 0.066667 0.329160 -0.563627
O10   O     O_R   0.532758 0.230860 0.333766 -0.803588
H14   H     H_    0.512701 0.229678 0.264175 0.362308
C48   C     C_2   0.196900 0.791422 0.401852 0.963936
O11   O     O_2   0.204959 0.720218 0.350478 -0.511218
O12   O     O_R   0.096906 0.821982 0.426250 -0.772772
H15   H     H_    0.038762 0.777187 0.399215 0.364409
N3    N     N_R   0.537933 0.756866 0.677812 0.195842
O13   O     O_R   0.439564 0.741742 0.683079 -0.401983
O14   O     O_R   0.621894 0.714450 0.741965 -0.409160
N4    N     N_R   0.245558 0.367045 0.309754 0.224047
O15   O     O_R   0.312235 0.283627 0.344747 -0.401047
O16   O     O_R   0.223026 0.385968 0.221200 -0.336465
C49   C     C_2   0.858866 0.576547 0.241662 1.012680
O17   O     O_2   0.781380 0.545955 0.189318 -0.599305
O18   O     O_R   0.923040 0.640166 0.208106 -0.736336
H16   H     H_    0.896230 0.656442 0.139425 0.373494
N5    N     N_R   0.324831 0.625623 0.198768 0.206536
O19   O     O_R   0.223358 0.607766 0.185051 -0.296716
O20   O     O_R   0.352772 0.709173 0.238739 -0.340272
C50   C     C_2   0.099544 0.426382 0.682661 0.928382
O21   O     O_2   0.132035 0.344901 0.651108 -0.576397
O22   O     O_R   0.155388 0.453877 0.768993 -0.796936
H17   H     H_    0.223114 0.401744 0.797273 0.355817
N6    N     N_R   0.723774 0.656890 0.368474 0.233787
O23   O     O_R   0.663834 0.664827 0.284583 -0.332315
O24   O     O_R   0.704210 0.729697 0.423753 -0.355282
C51   C     C_2   0.220469 0.674236 0.850151 0.964434
O25   O     O_2   0.236669 0.731368 0.790621 -0.570913
O26   O     O_R   0.113221 0.673694 0.861020 -0.756458
H18   H     H_    0.056017 0.721438 0.813871 0.355738
N7    N     N_R   0.765844 0.321666 0.965535 0.213415
O27   O     O_R   0.748465 0.255748 0.901058 -0.329410
O28   O     O_R   0.864799 0.317556 0.017670 -0.323958
N8    N     N_R   0.767715 0.228864 0.654820 0.229760
O29   O     O_R   0.729108 0.308341 0.695322 -0.391345
O30   O     O_R   0.873808 0.198758 0.673857 -0.320553

loop_
_geom_bond_atom_site_label_1
_geom_bond_atom_site_label_2
_geom_bond_distance
_ccdc_geom_bond_type
C46   N4    1.428627 S    
C50   O21   1.223215 D    
C8    C11   1.401961 A    
C24   C25   1.390245 A    
O22   H17   1.013870 S    
N7    O28   1.301330 A    
N6    O23   1.300438 A    
C36   C37   1.382797 A    
C28   C29   1.415912 A    
Zn1   O7    2.024433 S    
C16   C17   1.392313 A    
C19   C20   1.387941 A    
C18   C19   1.390252 A    
C48   O12   1.397950 S    
O4    C2    1.302349 A    
O7    C4    1.297277 A    
C49   O18   1.398054 S    
C37   H13   1.083928 S    
C45   H11   1.078799 S    
C35   C42   1.398388 A    
C5    C6    1.389263 A    
C39   C41   1.416250 A    
C8    C9    1.413442 A    
O5    C3    1.316219 A    
C16   N7    1.436976 S    
C35   H10   1.083182 S    
C30   C31   1.396157 A    
C6    C7    1.402172 A    
C32   C47   1.498936 S    
N8    O29   1.298642 A    
C21   C29   1.397351 A    
C36   H12   1.072369 S    
H6    C30   1.084038 S    
C38   C39   1.427624 A    
C50   O22   1.397979 S    
O1    Zn1   1.943102 S    
C11   C12   1.392335 A    
N8    O30   1.301048 A    
Zn1   N1    2.049276 S    
O3    Zn1   2.005224 S    
C43   C49   1.482492 S    
N7    O27   1.301250 A    
N6    O24   1.301566 A    
C5    C10   1.383875 A    
C11   H2    1.082231 S    
C12   C51   1.486144 S    
O10   H14   1.013993 S    
C20   H4    1.078386 S    
C48   O11   1.220643 D    
C47   O10   1.400129 S    
C41   C45   1.414673 A    
O12   H15   1.014301 S    
N3    O13   1.301206 A    
C35   C46   1.392418 A    
C17   H5    1.084605 S    
C15   C16   1.414057 A    
C23   C48   1.481536 S    
C39   C40   1.430673 A    
O1    C1    1.299788 A    
C26   C27   1.406317 A    
C41   C42   1.411510 A    
N5    O20   1.300668 A    
N4    O15   1.296118 A    
C28   C32   1.408896 A    
Zn2   O8    2.005224 S    
C22   C33   1.417703 A    
C51   O26   1.398401 S    
C7    C8    1.399618 A    
C13   C18   1.390205 A    
C14   C15   1.421210 A    
C26   C28   1.411383 A    
C24   H9    1.083879 S    
C27   C34   1.412672 A    
N3    O14   1.301363 A    
C23   C24   1.397690 A    
C22   C32   1.398097 A    
O8    C4    1.300337 A    
C18   H3    1.081208 S    
Zn2   N2    2.036930 S    
C33   N8    1.433515 S    
C4    C6    1.433242 S    
O3    C2    1.296532 A    
C25   C26   1.408958 A    
C36   N2    1.360741 A    
C23   C34   1.425044 A    
C21   C33   1.395217 A    
C15   C20   1.390626 A    
Zn1   O5    1.898788 S    
C29   C30   1.392856 A    
C1    C34   1.477220 S    
N4    O16   1.301449 A    
C49   O17   1.219754 D    
O2    Zn2   1.898788 S    
C7    N5    1.433191 S    
C47   O9    1.223652 D    
O6    C3    1.295346 A    
O4    Zn2   2.024433 S    
C5    H1    1.085872 S    
C10   C17   1.395658 A    
N1    C46   1.368762 A    
C43   C44   1.415345 A    
C31   N3    1.440056 S    
C9    C10   1.410654 A    
C21   H7    1.084499 S    
C9    C14   1.396819 A    
C37   C38   1.390338 A    
C44   N6    1.446276 S    
C40   N2    1.366679 A    
N5    O19   1.300912 A    
N1    C45   1.357184 A    
C51   O25   1.222831 D    
O2    C1    1.317750 A    
O26   H18   1.013923 S    
C3    C22   1.463486 S    
C13   C14   1.419627 A    
C42   C43   1.412538 A    
C40   C44   1.410572 A    
C2    C19   1.433176 S    
O18   H16   1.013796 S    
Zn2   O6    1.943104 S    
C12   C13   1.416204 A    
C38   C50   1.483898 S    
C27   C31   1.422547 A    
C25   H8    1.080061 S    
