data_mof_unit_15903.cif
_audit_creation_date              2013-03-05T15:46:19-0500
_audit_creation_method            fapswitch 2.2
_symmetry_space_group_name_H-M    P1
_symmetry_Int_Tables_number       1
_space_group_crystal_system       triclinic
_cell_length_a                    17.504998
_cell_length_b                    24.732973
_cell_length_c                    14.872322
_cell_angle_alpha                 90.026233
_cell_angle_beta                  126.392074
_cell_angle_gamma                 90.006377
_cell_volume                      5183.22356674

loop_
_atom_site_label
_atom_site_type_symbol
_atom_site_description
_atom_site_fract_x
_atom_site_fract_y
_atom_site_fract_z
_atom_type_partial_charge
C1    C     C_R   0.840888 0.648463 0.910114 0.352064
C2    C     C_R   0.181721 0.365413 0.093069 0.362801
C3    C     C_R   0.181111 0.635164 0.093048 0.371604
C4    C     C_R   0.841110 0.351429 0.909913 0.353892
C5    C     C_R   0.345506 0.150055 0.909394 0.376039
C6    C     C_R   0.686432 0.870218 0.091833 0.340881
C7    C     C_R   0.686090 0.130246 0.091945 0.349249
C8    C     C_R   0.345721 0.849900 0.908958 0.377209
N1    N     N_R   0.892620 0.603790 0.941800 -0.100404
N2    N     N_R   0.107380 0.396210 0.058200 -0.105290
N3    N     N_R   0.107380 0.603790 0.058200 -0.106838
N4    N     N_R   0.892620 0.396210 0.941800 -0.098357
N5    N     N_R   0.392620 0.103790 0.941800 -0.096008
N6    N     N_R   0.607380 0.896210 0.058200 -0.105628
N7    N     N_R   0.607380 0.103790 0.058200 -0.107007
N8    N     N_R   0.392620 0.896210 0.941800 -0.092713
C9    C     C_R   0.932427 0.355827 0.097017 -0.080704
C10   C     C_R   0.084590 0.634692 0.905704 -0.135308
C11   C     C_R   0.084977 0.365503 0.905789 -0.142200
C12   C     C_R   0.931987 0.643907 0.097180 -0.054740
C13   C     C_R   0.439331 0.852378 0.095455 -0.100752
C14   C     C_R   0.592246 0.125607 0.904428 -0.127407
C15   C     C_R   0.592123 0.874285 0.904331 -0.132978
C16   C     C_R   0.439272 0.147414 0.095889 -0.066497
H1    H     H_    0.971375 0.344456 0.183936 0.139996
H2    H     H_    0.048387 0.650424 0.822214 0.150391
H3    H     H_    0.048865 0.349599 0.822406 0.145303
H4    H     H_    0.970916 0.655258 0.184136 0.148104
H5    H     H_    0.480976 0.839232 0.181517 0.140563
H6    H     H_    0.561009 0.134233 0.817840 0.153488
H7    H     H_    0.560723 0.865468 0.817751 0.145070
H8    H     H_    0.481180 0.160518 0.182026 0.144414
N9    N     N_R   0.952210 0.397600 0.057910 -0.069638
N10   N     N_R   0.047790 0.602400 0.942090 -0.070735
N11   N     N_R   0.047790 0.397600 0.942090 -0.067620
N12   N     N_R   0.952210 0.602400 0.057910 -0.077858
N13   N     N_R   0.452210 0.897600 0.057910 -0.061655
N14   N     N_R   0.547790 0.102400 0.942090 -0.076195
N15   N     N_R   0.547790 0.897600 0.942090 -0.073096
N16   N     N_R   0.452210 0.102400 0.057910 -0.072273
C17   C     C_R   0.052821 0.545391 0.306659 -0.066519
C18   C     C_R   0.003472 0.454509 0.733585 -0.051395
C19   C     C_R   0.003707 0.545371 0.733695 -0.051149
C20   C     C_R   0.052758 0.454552 0.306467 -0.081252
C21   C     C_R   0.483245 0.045576 0.251733 -0.065374
C22   C     C_R   0.448158 0.954641 0.693486 -0.084326
C23   C     C_R   0.448130 0.045288 0.693434 -0.072988
C24   C     C_R   0.483315 0.954338 0.251682 -0.062577
H9    H     H_    0.070550 0.586820 0.334635 0.106322
H10   H     H_    0.002423 0.413594 0.709104 0.098418
H11   H     H_    0.002999 0.586245 0.709253 0.101478
H12   H     H_    0.070533 0.413107 0.334136 0.104683
H13   H     H_    0.474442 0.087141 0.265006 0.116086
H14   H     H_    0.429439 0.913357 0.664848 0.125011
H15   H     H_    0.429446 0.086547 0.664722 0.124119
H16   H     H_    0.474527 0.912737 0.264692 0.095368
N17   N     N_R   0.026300 0.529110 0.206760 -0.044072
N18   N     N_R   0.973700 0.470890 0.793240 -0.044741
N19   N     N_R   0.973700 0.529110 0.793240 -0.045304
N20   N     N_R   0.026300 0.470890 0.206760 -0.041874
N21   N     N_R   0.526300 0.029110 0.206760 -0.055749
N22   N     N_R   0.473700 0.970890 0.793240 -0.041953
N23   N     N_R   0.473700 0.029110 0.793240 -0.042934
N24   N     N_R   0.526300 0.970890 0.206760 -0.052310
C25   C     C_R   0.731999 0.455136 0.754797 -0.042892
C26   C     C_R   0.263833 0.544966 0.297330 -0.084121
C27   C     C_R   0.263703 0.455219 0.297775 -0.088482
C28   C     C_R   0.731997 0.544803 0.754837 -0.087436
C29   C     C_R   0.232009 0.954902 0.753751 -0.024667
C30   C     C_R   0.761920 0.045070 0.299845 -0.070667
C31   C     C_R   0.761684 0.955441 0.301073 -0.089993
C32   C     C_R   0.231858 0.044709 0.754470 -0.088380
H17   H     H_    0.707554 0.413914 0.736369 0.162866
H18   H     H_    0.279999 0.585506 0.329795 0.169377
H19   H     H_    0.279761 0.414805 0.330798 0.169649
H20   H     H_    0.707445 0.585985 0.736150 0.175119
H21   H     H_    0.208250 0.913538 0.735948 0.161150
H22   H     H_    0.776607 0.085725 0.331688 0.166174
H23   H     H_    0.776782 0.914986 0.333995 0.173207
H24   H     H_    0.207499 0.085974 0.736926 0.179395
N25   N     N_R   0.818530 0.472270 0.792960 -0.053429
N26   N     N_R   0.181470 0.527730 0.207040 -0.058269
N27   N     N_R   0.181470 0.472270 0.207040 -0.057873
N28   N     N_R   0.818530 0.527730 0.792960 -0.048874
N29   N     N_R   0.318530 0.972270 0.792960 -0.055396
N30   N     N_R   0.681470 0.027730 0.207040 -0.060106
N31   N     N_R   0.681470 0.972270 0.207040 -0.059219
N32   N     N_R   0.318530 0.027730 0.792960 -0.049852
C33   C     C_R   0.861346 0.672379 0.005622 -0.017674
C34   C     C_R   0.171389 0.348783 0.998361 0.037243
C35   C     C_R   0.170676 0.651762 0.998275 0.025022
C36   C     C_R   0.861877 0.327325 0.005345 -0.004315
C37   C     C_R   0.371562 0.176471 0.004510 -0.028450
C38   C     C_R   0.679610 0.857479 0.996573 0.053048
C39   C     C_R   0.679578 0.142632 0.996730 0.044874
C40   C     C_R   0.371675 0.823351 0.003717 -0.014131
C41   C     C_R   0.072039 0.499941 0.371365 0.023292
C42   C     C_R   0.030229 0.499888 0.703997 0.029697
C43   C     C_R   0.453070 0.999921 0.277431 0.055413
C44   C     C_R   0.430826 0.999938 0.629070 0.018518
C45   C     C_R   0.677123 0.499951 0.732250 0.021614
C46   C     C_R   0.316145 0.500138 0.352876 0.021160
C47   C     C_R   0.177074 0.999632 0.731048 0.021682
C48   C     C_R   0.812755 0.000418 0.358152 0.015214
Ni1   Ni    Ni4+2 0.934150 0.565840 0.869060 0.302462
Ni2   Ni    Ni4+2 0.065850 0.434160 0.130940 0.269280
Ni3   Ni    Ni4+2 0.065850 0.565840 0.130940 0.267772
Ni4   Ni    Ni4+2 0.934150 0.434160 0.869060 0.304560
Ni5   Ni    Ni4+2 0.434150 0.065840 0.869060 0.293960
Ni6   Ni    Ni4+2 0.565850 0.934160 0.130940 0.270170
Ni7   Ni    Ni4+2 0.565850 0.065840 0.130940 0.268207
Ni8   Ni    Ni4+2 0.434150 0.934160 0.869060 0.297487
C49   C     C_3   0.505139 0.454550 0.608993 -0.104299
C50   C     C_3   0.478883 0.545499 0.494658 -0.116358
C51   C     C_3   0.480559 0.456600 0.490756 -0.133831
C52   C     C_3   0.503522 0.543724 0.612975 -0.130788
C53   C     C_3   0.009460 0.950762 0.601840 -0.105637
C54   C     C_3   0.971135 0.049294 0.507793 -0.122136
C55   C     C_3   0.981286 0.962520 0.483954 -0.132388
C56   C     C_3   0.999669 0.037801 0.626172 -0.118263
C57   C     C_3   0.429109 0.498292 0.575993 -0.127701
C58   C     C_3   0.553158 0.501865 0.526261 -0.120029
C59   C     C_3   0.930160 0.988984 0.580726 -0.116812
C60   C     C_3   0.048786 0.011048 0.527660 -0.128260
H25   H     H_    0.374851 0.496847 0.592195 0.152757
H26   H     H_    0.605773 0.503324 0.507396 0.161615
H27   H     H_    0.878261 0.980043 0.598620 0.157649
H28   H     H_    0.099054 0.020036 0.507176 0.159757
H29   H     H_    0.517854 0.417498 0.658095 0.193526
H30   H     H_    0.466491 0.582509 0.445408 0.178586
H31   H     H_    0.469393 0.421190 0.438228 0.180422
H32   H     H_    0.514876 0.579208 0.665270 0.186093
H33   H     H_    0.026871 0.910507 0.642435 0.186699
H34   H     H_    0.954357 0.089586 0.467316 0.176037
H35   H     H_    0.971958 0.931951 0.423425 0.183246
H36   H     H_    0.009442 0.068328 0.686884 0.184008
C61   C     C_3   0.406933 0.500214 0.459819 0.110944
C62   C     C_3   0.577043 0.499959 0.643656 0.123771
C63   C     C_3   0.904182 0.000661 0.464583 0.111090
C64   C     C_3   0.076423 0.999475 0.644922 0.125202
C65   C     C_R   0.861879 0.230560 0.022518 -0.261048
C66   C     C_R   0.185193 0.745589 0.983341 -0.277407
C67   C     C_R   0.189106 0.254561 0.992069 -0.280804
C68   C     C_R   0.859286 0.769407 0.016797 -0.247121
C69   C     C_R   0.359302 0.728268 0.018723 -0.245966
C70   C     C_R   0.682581 0.237715 0.976845 -0.286053
C71   C     C_R   0.684783 0.761997 0.983439 -0.289241
C72   C     C_R   0.357069 0.271923 0.012877 -0.234276
H37   H     H_    0.930583 0.229017 0.037825 0.198149
H38   H     H_    0.118036 0.751019 0.970944 0.197159
H39   H     H_    0.124551 0.249175 0.985701 0.196954
H40   H     H_    0.926253 0.771053 0.027798 0.196014
H41   H     H_    0.426227 0.722843 0.030646 0.204683
H42   H     H_    0.613764 0.239583 0.961322 0.194755
H43   H     H_    0.617950 0.760125 0.972816 0.194639
H44   H     H_    0.421772 0.277338 0.019647 0.203209
C73   C     C_R   0.308389 0.684232 0.012847 0.579489
C74   C     C_R   0.728772 0.284615 0.986485 0.508790
C75   C     C_R   0.731283 0.715130 0.993582 0.594331
C76   C     C_R   0.306345 0.316005 0.007179 0.492162
C77   C     C_R   0.815615 0.183365 0.014193 0.593232
C78   C     C_R   0.235547 0.789506 0.989422 0.498259
C79   C     C_R   0.240170 0.210601 0.999872 0.585240
C80   C     C_R   0.812872 0.816557 0.008209 0.503622
C81   C     C_R   0.221791 0.694129 0.995417 -0.112563
C82   C     C_R   0.818283 0.280262 0.008670 -0.103771
C83   C     C_R   0.818230 0.719610 0.009259 -0.098485
C84   C     C_R   0.222285 0.306133 0.995838 -0.117889
C85   C     C_R   0.725924 0.187936 0.991310 -0.111076
C86   C     C_R   0.322427 0.779842 0.006559 -0.107396
C87   C     C_R   0.323276 0.220277 0.008271 -0.105888
C88   C     C_R   0.725574 0.811886 0.991410 -0.119335
C89   C     C_R   0.094933 0.450738 0.618066 -0.128277
C90   C     C_R   0.112061 0.548670 0.538835 -0.133324
C91   C     C_R   0.110282 0.450780 0.537250 -0.126969
C92   C     C_R   0.097311 0.548650 0.620278 -0.068580
C93   C     C_R   0.389873 0.950881 0.460540 -0.122868
C94   C     C_R   0.393656 0.048706 0.370237 -0.076831
C95   C     C_R   0.394997 0.950874 0.371298 -0.113105
C96   C     C_R   0.388745 0.048747 0.459712 -0.133021
H45   H     H_    0.088540 0.412118 0.646927 0.114215
H46   H     H_    0.116792 0.587253 0.508400 0.133871
H47   H     H_    0.113609 0.412183 0.505707 0.130239
H48   H     H_    0.093229 0.587180 0.651484 0.131863
H49   H     H_    0.390030 0.912257 0.494506 0.132273
H50   H     H_    0.395982 0.087288 0.337925 0.152005
H51   H     H_    0.398737 0.912247 0.340272 0.113753
H52   H     H_    0.387923 0.087374 0.493047 0.137445
C97   C     C_R   0.106018 0.499791 0.487352 0.094634
C98   C     C_R   0.077031 0.499754 0.649623 0.148024
C99   C     C_R   0.408029 0.999820 0.334527 0.132246
C100  C     C_R   0.397379 0.999855 0.512721 0.110120
N33   N     N_R   0.797645 0.673973 0.803637 0.226601
O1    O     O_R   0.816807 0.656907 0.736277 -0.408829
O2    O     O_R   0.740949 0.715004 0.774265 -0.371109
N34   N     N_R   0.236007 0.338299 0.198617 0.216724
O3    O     O_R   0.319813 0.319243 0.238730 -0.367123
O4    O     O_R   0.197523 0.327578 0.249250 -0.418689
N35   N     N_R   0.234405 0.662685 0.198262 0.218249
O5    O     O_R   0.195746 0.672260 0.249117 -0.424273
O6    O     O_R   0.317149 0.683263 0.237758 -0.367233
N36   N     N_R   0.798349 0.325906 0.803463 0.224228
O7    O     O_R   0.743379 0.284044 0.774705 -0.361258
O8    O     O_R   0.817030 0.343477 0.735985 -0.411714
N37   N     N_R   0.302791 0.174034 0.801678 0.225775
O9    O     O_R   0.318139 0.153480 0.733185 -0.423079
O10   O     O_R   0.252549 0.217945 0.773482 -0.374142
N38   N     N_R   0.744366 0.842444 0.196409 0.218658
O11   O     O_R   0.830708 0.828415 0.236426 -0.364581
O12   O     O_R   0.707424 0.826044 0.246011 -0.406284
N39   N     N_R   0.742474 0.158930 0.195717 0.218236
O13   O     O_R   0.704601 0.174454 0.244782 -0.415256
O14   O     O_R   0.828194 0.174387 0.235755 -0.364001
N40   N     N_R   0.304148 0.825835 0.801486 0.222952
O15   O     O_R   0.255397 0.781312 0.773466 -0.364156
O16   O     O_R   0.319846 0.846677 0.733532 -0.426211
S1    S     S_3+6 0.352229 0.617923 0.025918 0.028134
O17   O     O_2   0.278951 0.585512 0.924720 -0.279359
O18   O     O_2   0.442753 0.619167 0.035695 -0.194876
O19   O     O_3   0.372846 0.588719 0.140542 -0.518894
H53   H     H_    0.381033 0.549755 0.132915 0.400273
S2    S     S_3+6 0.673610 0.347667 0.970715 0.013699
O20   O     O_2   0.642559 0.372627 0.861850 -0.287900
O21   O     O_2   0.588262 0.340360 0.970550 -0.221191
O22   O     O_3   0.750758 0.389677 0.075232 -0.484610
H54   H     H_    0.773927 0.369420 0.144487 0.345846
S3    S     S_3+6 0.680451 0.651957 0.987784 0.010862
O23   O     O_2   0.751134 0.619988 0.090995 -0.265570
O24   O     O_2   0.591883 0.659842 0.980745 -0.216546
O25   O     O_3   0.653251 0.617653 0.874693 -0.569070
H55   H     H_    0.643142 0.579859 0.887488 0.381561
S4    S     S_3+6 0.348639 0.382285 0.015665 0.031248
O26   O     O_2   0.380198 0.407097 0.124972 -0.235711
O27   O     O_2   0.431009 0.381344 0.008970 -0.200430
O28   O     O_3   0.261138 0.420375 0.911173 -0.495594
H56   H     H_    0.239746 0.400355 0.842243 0.332791
S5    S     S_3+6 0.869193 0.119782 0.031520 0.034419
O29   O     O_2   0.804054 0.086336 0.928405 -0.254540
O30   O     O_2   0.962907 0.126534 0.050004 -0.204935
O31   O     O_3   0.886326 0.087964 0.142075 -0.510708
H57   H     H_    0.901576 0.050113 0.136425 0.399666
S6    S     S_3+6 0.187518 0.855057 0.973961 0.002731
O32   O     O_2   0.153757 0.877483 0.862247 -0.296682
O33   O     O_2   0.104841 0.852612 0.979977 -0.211095
O34   O     O_3   0.270151 0.896775 0.074357 -0.508609
H58   H     H_    0.291744 0.878767 0.145250 0.332387
S7    S     S_3+6 0.199206 0.144906 0.000098 -0.004464
O35   O     O_2   0.276498 0.114733 0.102239 -0.312490
O36   O     O_2   0.113617 0.148305 0.000402 -0.207155
O37   O     O_3   0.169696 0.111219 0.885493 -0.574018
H59   H     H_    0.161729 0.073145 0.899160 0.383859
S8    S     S_3+6 0.864245 0.880185 0.019588 0.035152
O38   O     O_2   0.899049 0.905228 0.129853 -0.228239
O39   O     O_2   0.946298 0.874155 0.013100 -0.206749
O40   O     O_3   0.782368 0.921232 0.916585 -0.481287
H60   H     H_    0.756369 0.900671 0.846829 0.340105

loop_
_geom_bond_atom_site_label_1
_geom_bond_atom_site_label_2
_geom_bond_distance
_ccdc_geom_bond_type
C30   C48   1.359759 A    
C43   C99   1.461900 S    
C31   C48   1.362239 A    
C65   C77   1.383624 A    
C30   H22   1.075393 S    
C14   C39   1.381287 A    
C26   C46   1.361505 A    
C79   S7    1.776756 S    
C3    N35   1.431385 S    
C10   H2    1.077751 S    
C19   C42   1.385318 A    
C25   C45   1.371902 A    
C42   C98   1.453021 S    
N29   Ni8   1.883865 S    
C71   C75   1.372468 A    
C90   H46   1.080382 S    
C54   C56   1.544962 S    
C31   H23   1.075960 S    
C27   H19   1.075186 S    
C65   H37   1.083887 S    
C49   C62   1.529895 S    
N31   Ni6   1.883120 S    
C51   H31   1.110708 S    
C55   C60   1.531956 S    
S1    O19   1.682032 S    
C27   N27   1.329137 A    
N8    Ni8   1.874522 S    
C65   C82   1.396373 A    
N19   Ni1   1.871273 S    
C49   H29   1.109238 S    
C22   N22   1.332178 A    
C10   C35   1.371874 A    
C91   H47   1.080158 S    
C80   S8    1.769966 S    
C89   H45   1.080031 S    
C8    N40   1.434369 S    
C18   C42   1.384774 A    
C23   N23   1.332642 A    
N40   O16   1.300990 A    
C24   N24   1.332972 A    
C95   H51   1.079532 S    
N1    Ni1   1.874107 S    
C14   N14   1.328988 A    
C59   C63   1.530439 S    
C89   C98   1.400801 A    
N20   Ni2   1.871274 S    
C72   C87   1.392106 A    
C93   H49   1.080059 S    
C3    C35   1.372437 A    
C72   C76   1.376716 A    
C50   C61   1.527749 S    
C57   C61   1.530492 S    
C2    C34   1.372222 A    
C23   H15   1.079549 S    
C33   C83   1.409150 S    
N5    N16   1.390624 A    
N5    Ni5   1.874107 S    
N11   Ni4   1.841739 S    
C96   H52   1.080160 S    
C3    N3    1.319925 A    
C38   C88   1.413598 S    
N6    N15   1.390624 A    
C29   H21   1.076451 S    
C17   H9    1.079675 S    
C51   C61   1.527570 S    
C75   C83   1.400710 A    
N38   O11   1.300717 A    
C6    C38   1.385463 A    
C32   C47   1.373684 A    
C78   C86   1.405421 A    
N1    N12   1.390624 A    
S6    O33   1.503293 D    
O28   H56   0.990097 S    
C76   S4    1.771994 S    
N2    N11   1.390624 A    
C56   C64   1.528873 S    
C75   S3    1.774533 S    
C4    N4    1.325340 A    
C71   H43   1.084637 S    
C5    N5    1.323194 A    
C54   H34   1.110206 S    
C56   C59   1.555046 S    
C19   N19   1.331974 A    
N8    N13   1.390580 A    
C60   H28   1.111137 S    
C77   C85   1.399879 A    
C5    C37   1.367287 A    
C20   H12   1.079524 S    
N22   Ni8   1.871700 S    
S7    O36   1.503286 D    
C55   C63   1.527654 S    
C30   N30   1.328547 A    
N25   Ni4   1.883865 S    
C21   H13   1.074938 S    
N35   O5    1.301260 A    
C8    N8    1.322079 A    
C93   C100  1.401718 A    
C40   C86   1.395012 S    
O34   H58   0.990183 S    
C68   C80   1.383315 A    
N12   Ni3   1.841740 S    
C50   H30   1.110668 S    
C18   N18   1.330891 A    
C90   C97   1.400710 A    
C44   C100  1.461109 S    
C9    C36   1.371818 A    
C9    N9    1.328564 A    
N24   Ni6   1.871274 S    
C67   C79   1.368167 A    
O19   H53   0.990609 S    
C32   N32   1.332556 A    
C60   C64   1.535165 S    
N28   Ni1   1.883121 S    
N16   Ni7   1.841740 S    
C52   C62   1.529745 S    
C29   C47   1.370394 A    
C17   N17   1.328920 A    
S6    O34   1.679827 S    
N36   O7    1.300719 A    
C68   C83   1.396455 A    
N23   Ni5   1.871273 S    
C28   N28   1.332482 A    
N7    Ni7   1.874522 S    
C1    N1    1.325599 A    
C28   C45   1.372104 A    
C58   C62   1.535969 S    
N34   O4    1.301260 A    
N29   N32   1.371693 A    
C21   C43   1.392822 A    
C25   H17   1.076200 S    
C73   C81   1.399617 A    
N4    Ni4   1.874522 S    
N40   O15   1.300756 A    
N17   N20   1.439951 A    
C7    N7    1.325672 A    
C12   H4    1.081455 S    
S2    O22   1.681333 S    
N33   O2    1.300713 A    
N18   N19   1.439951 A    
N37   O9    1.300983 A    
C13   H5    1.081047 S    
S4    O28   1.681020 S    
C55   H35   1.110661 S    
C23   C44   1.385996 A    
C50   C52   1.543955 S    
C56   H36   1.109351 S    
C46   C61   1.433868 S    
C15   H7    1.080551 S    
C58   H26   1.111282 S    
N21   N24   1.439951 A    
C1    N33   1.434361 S    
C70   H42   1.084715 S    
C16   H8    1.081073 S    
N7    N14   1.390580 A    
C57   H25   1.110409 S    
N22   N23   1.439951 A    
C29   N29   1.330428 A    
C36   C82   1.408670 S    
C8    C40   1.365592 A    
C26   N26   1.328758 A    
C69   C73   1.376764 A    
C20   C41   1.384968 A    
C94   C96   1.383451 A    
S3    O23   1.503310 D    
C52   H32   1.109309 S    
C70   C85   1.394474 A    
C45   C62   1.437417 S    
N39   O14   1.300673 A    
C53   H33   1.109482 S    
C22   H14   1.079486 S    
C73   S1    1.771970 S    
O22   H54   0.990554 S    
C95   C99   1.401838 A    
C54   C60   1.534188 S    
N26   Ni3   1.883864 S    
N14   Ni5   1.841033 S    
S2    O21   1.503444 D    
C10   N10   1.326514 A    
N35   O6    1.300785 A    
N13   Ni6   1.841034 S    
C89   C91   1.378416 A    
N36   O8    1.301038 A    
C18   H10   1.071753 S    
S8    O40   1.681664 S    
C31   N31   1.330854 A    
N32   Ni5   1.883121 S    
N38   O12   1.301219 A    
N15   Ni8   1.841739 S    
S3    O24   1.503404 D    
N26   N27   1.371693 A    
S5    O30   1.503104 D    
C4    C36   1.374964 A    
C96   C100  1.402209 A    
C17   C41   1.385563 A    
C80   C88   1.399252 A    
C53   C64   1.530976 S    
C78   S6    1.777514 S    
C54   C63   1.529268 S    
C2    N2    1.320002 A    
C59   H27   1.109935 S    
N25   N28   1.371693 A    
C79   C87   1.404810 A    
C71   C88   1.394878 A    
C74   C82   1.400795 A    
C91   C97   1.400292 A    
S8    O39   1.503051 D    
C41   C97   1.453237 S    
S7    O37   1.679285 S    
C92   C98   1.401171 A    
C92   H48   1.080553 S    
C24   C43   1.392228 A    
C22   C44   1.386059 A    
C69   C86   1.392238 A    
C37   C87   1.395594 S    
C1    C33   1.375265 A    
C67   H39   1.084733 S    
C14   H6    1.080534 S    
C34   C84   1.395615 S    
S4    O27   1.503281 D    
N30   N31   1.371693 A    
N10   Ni1   1.841033 S    
C6    N38   1.431366 S    
C35   C81   1.394763 S    
N3    N10   1.390580 A    
N9    Ni2   1.841034 S    
N34   O3    1.300819 A    
C68   H40   1.083982 S    
C66   C78   1.367487 A    
C7    N39   1.432008 S    
S7    O35   1.502506 D    
C48   C63   1.435571 S    
C70   C74   1.371838 A    
C13   C40   1.364195 A    
C24   H16   1.074830 S    
S1    O18   1.503230 D    
C49   C57   1.551870 S    
C7    C39   1.385989 A    
C12   C33   1.371945 A    
N37   O10   1.300719 A    
N27   Ni2   1.883120 S    
C9    H1    1.081447 S    
C66   H38   1.084834 S    
C53   C55   1.541464 S    
N30   Ni7   1.883864 S    
O37   H59   0.990604 S    
C69   H41   1.084177 S    
C6    N6    1.325717 A    
C32   H24   1.076955 S    
C11   C34   1.372604 A    
C11   N11   1.327475 A    
C16   C37   1.363065 A    
C77   S5    1.770044 S    
N3    Ni3   1.874522 S    
C94   C99   1.401913 A    
C28   H20   1.076099 S    
C19   H11   1.072031 S    
C20   N20   1.327541 A    
N21   Ni7   1.871701 S    
N6    Ni6   1.874107 S    
S5    O29   1.503306 D    
S6    O32   1.501035 D    
C50   C58   1.533511 S    
C21   N21   1.333874 A    
O31   H57   0.990613 S    
C16   N16   1.327066 A    
C93   C95   1.382342 A    
C2    N34   1.431045 S    
C76   C84   1.399527 A    
C51   C58   1.533008 S    
C53   C59   1.550014 S    
O25   H55   0.990641 S    
C90   C92   1.380175 A    
C67   C84   1.388721 A    
S1    O17   1.503657 D    
C4    N36   1.434569 S    
C5    N37   1.434146 S    
N39   O13   1.301249 A    
C12   N12   1.328590 A    
C15   C38   1.381222 A    
C94   H50   1.080168 S    
S3    O25   1.680407 S    
C13   N13   1.327965 A    
C74   S2    1.775182 S    
N33   O1    1.301034 A    
S5    O31   1.681908 S    
N17   Ni3   1.871701 S    
N2    Ni2   1.874107 S    
C25   N25   1.332514 A    
S8    O38   1.502506 D    
C52   C57   1.552701 S    
C72   H44   1.084223 S    
C49   C51   1.543428 S    
N4    N9    1.390580 A    
C47   C64   1.437710 S    
N18   Ni4   1.871700 S    
S2    O20   1.501565 D    
C15   N15   1.329310 A    
C39   C85   1.413378 S    
O40   H60   0.990559 S    
C27   C46   1.361906 A    
S4    O26   1.502618 D    
C11   H3    1.077717 S    
C66   C81   1.387992 A    
C26   H18   1.075123 S    
