data_mof_unit_25255.cif
_audit_creation_date              2012-12-11T15:06:34-0500
_audit_creation_method            fapswitch 2.2
_symmetry_space_group_name_H-M    P1
_symmetry_Int_Tables_number       1
_space_group_crystal_system       triclinic
_cell_length_a                    7.24101
_cell_length_b                    15.06283
_cell_length_c                    22.31553
_cell_angle_alpha                 89.997295
_cell_angle_beta                  90.000345
_cell_angle_gamma                 89.997792
_cell_volume                      2433.95714341

loop_
_atom_site_label
_atom_site_type_symbol
_atom_type_description
_atom_site_fract_x
_atom_site_fract_y
_atom_site_fract_z
_atom_type_partial_charge
O1    O     O_R   0.390810 0.844810 0.447340 -0.533721
O2    O     O_R   0.109190 0.155190 0.947340 -0.533717
O3    O     O_R   0.890810 0.655190 0.552660 -0.533714
O4    O     O_R   0.609190 0.344810 0.052660 -0.533707
O5    O     O_R   0.720550 0.655820 0.440420 -0.538494
O6    O     O_R   0.779450 0.344180 0.940420 -0.538483
O7    O     O_R   0.220550 0.844180 0.559580 -0.538486
O8    O     O_R   0.279450 0.155820 0.059580 -0.538482
C1    C     C_R   0.551623 0.626977 0.426143 0.677056
C2    C     C_R   0.948385 0.373034 0.926148 0.677062
C3    C     C_R   0.051621 0.873028 0.573853 0.677071
C4    C     C_R   0.448387 0.126954 0.073843 0.677076
O9    O     O_R   0.720530 0.844130 0.440420 -0.537116
O10   O     O_R   0.779470 0.155870 0.940420 -0.537128
O11   O     O_R   0.220530 0.655870 0.559580 -0.537115
O12   O     O_R   0.279470 0.344130 0.059580 -0.537128
O13   O     O_R   0.890830 0.844810 0.552660 -0.533524
O14   O     O_R   0.609170 0.155190 0.052660 -0.533528
O15   O     O_R   0.390830 0.655190 0.447340 -0.533524
O16   O     O_R   0.109170 0.344810 0.947340 -0.533522
C5    C     C_R   0.552665 0.873088 0.426202 0.688902
C6    C     C_R   0.947337 0.126912 0.926204 0.688896
C7    C     C_R   0.052675 0.626904 0.573793 0.688903
C8    C     C_R   0.447330 0.373092 0.073794 0.688903
O17   O     O_3   0.557310 0.749980 0.536820 -0.374150
O18   O     O_3   0.942690 0.250020 0.036820 -0.374151
O19   O     O_3   0.057310 0.750020 0.463180 -0.374157
O20   O     O_3   0.442690 0.249980 0.963180 -0.374154
V1    V     V_3+5 0.832160 0.749980 0.493170 1.437173
V2    V     V_3+5 0.667840 0.250020 0.993170 1.437186
V3    V     V_3+5 0.332160 0.750020 0.506830 1.437181
V4    V     V_3+5 0.167840 0.249980 0.006830 1.437183
C9    C     C_R   0.007558 0.604908 0.866868 -0.150455
C10   C     C_R   0.493251 0.395093 0.366836 -0.150431
C11   C     C_R   0.507858 0.895083 0.133110 -0.150479
C12   C     C_R   0.993314 0.104925 0.633157 -0.150426
H1    H     H_    0.962272 0.546748 0.953343 0.108068
H2    H     H_    0.538942 0.453225 0.453291 0.108066
H3    H     H_    0.462840 0.953255 0.046622 0.108068
H4    H     H_    0.038905 0.046783 0.546699 0.108066
H5    H     H_    0.064885 0.728796 0.784536 0.164947
H6    H     H_    0.435441 0.271238 0.284546 0.165120
H7    H     H_    0.565026 0.771196 0.215458 0.164913
H8    H     H_    0.935711 0.228795 0.715458 0.165087
H9    H     H_    0.013453 0.671547 0.885051 0.110850
H10   H     H_    0.487822 0.328432 0.385001 0.110870
H11   H     H_    0.513963 0.828455 0.114921 0.110845
H12   H     H_    0.987900 0.171584 0.614991 0.110871
C13   C     C_R   0.962529 0.447562 0.883600 -0.033201
C14   C     C_R   0.537553 0.552470 0.383586 -0.033177
C15   C     C_R   0.462544 0.052415 0.116382 -0.033202
C16   C     C_R   0.037547 0.947541 0.616406 -0.033188
C17   C     C_R   0.061897 0.466278 0.593593 -0.246064
C18   C     C_R   0.438420 0.533724 0.093572 -0.246106
C19   C     C_R   0.561843 0.033707 0.406400 -0.246068
C20   C     C_R   0.938426 0.966287 0.906417 -0.246102
C21   C     C_R   0.093183 0.394388 0.631428 -0.115806
C22   C     C_R   0.407215 0.605634 0.131388 -0.115836
C23   C     C_R   0.593004 0.105602 0.368561 -0.115810
C24   C     C_R   0.907211 0.894385 0.868596 -0.115837
C25   C     C_R   0.104550 0.406047 0.693411 0.320033
C26   C     C_R   0.395597 0.593990 0.193368 0.320083
C27   C     C_R   0.604272 0.093949 0.306577 0.320035
C28   C     C_R   0.895604 0.906037 0.806617 0.320077
C29   C     C_R   0.059245 0.489828 0.719059 -0.019391
C30   C     C_R   0.440702 0.510200 0.219046 -0.019429
C31   C     C_R   0.559026 0.010159 0.280935 -0.019370
C32   C     C_R   0.940753 0.989824 0.780946 -0.019416
C33   C     C_R   0.051115 0.564850 0.679922 0.029201
C34   C     C_R   0.448838 0.435169 0.179918 0.029202
C35   C     C_R   0.550987 0.935137 0.320072 0.029164
C36   C     C_R   0.948916 0.064849 0.820077 0.029209
C37   C     C_R   0.027918 0.502589 0.781892 0.068407
C38   C     C_R   0.472047 0.497447 0.281885 0.068476
C39   C     C_R   0.527749 0.997389 0.218101 0.068409
C40   C     C_R   0.972107 0.002575 0.718108 0.068479
C41   C     C_R   0.030298 0.590144 0.805195 0.136513
C42   C     C_R   0.470015 0.409881 0.305184 0.136480
C43   C     C_R   0.530342 0.909840 0.194793 0.136512
C44   C     C_R   0.970120 0.090142 0.694811 0.136489
C45   C     C_R   0.052854 0.662403 0.766650 -0.155908
C46   C     C_R   0.447372 0.337625 0.266652 -0.156020
C47   C     C_R   0.552887 0.837584 0.233343 -0.155823
C48   C     C_R   0.947559 0.162402 0.733347 -0.156036
C49   C     C_R   0.052762 0.650490 0.704809 -0.154308
C50   C     C_R   0.447242 0.349534 0.204813 -0.154331
C51   C     C_R   0.552687 0.849496 0.295185 -0.154298
C52   C     C_R   0.947400 0.150487 0.795186 -0.154338
C53   C     C_R   0.986127 0.432033 0.821920 -0.234072
C54   C     C_R   0.513622 0.568017 0.321921 -0.234127
C55   C     C_R   0.485872 0.067932 0.178073 -0.234095
C56   C     C_R   0.013644 0.932000 0.678072 -0.234115
C57   C     C_R   0.975871 0.534085 0.905748 -0.163723
C58   C     C_R   0.524887 0.465914 0.405714 -0.163762
C59   C     C_R   0.476199 0.965906 0.094225 -0.163719
C60   C     C_R   0.024884 0.034097 0.594277 -0.163770
C61   C     C_R   0.049176 0.552244 0.616799 -0.070516
C62   C     C_R   0.450858 0.447758 0.116793 -0.070490
C63   C     C_R   0.549124 0.947743 0.383195 -0.070508
C64   C     C_R   0.950887 0.052254 0.883201 -0.070483
H13   H     H_    0.968778 0.364984 0.805843 0.134255
H14   H     H_    0.530652 0.635094 0.305865 0.134323
H15   H     H_    0.468302 0.134963 0.194158 0.134266
H16   H     H_    0.030663 0.864923 0.694128 0.134339
H17   H     H_    0.061622 0.455595 0.545562 0.125371
H18   H     H_    0.438884 0.544403 0.045540 0.125383
H19   H     H_    0.561640 0.044387 0.454431 0.125376
H20   H     H_    0.938876 0.955603 0.954448 0.125381
H21   H     H_    0.121762 0.329929 0.612055 0.130539
H22   H     H_    0.378904 0.670109 0.111998 0.130611
H23   H     H_    0.621563 0.170063 0.387931 0.130539
H24   H     H_    0.878876 0.829913 0.887981 0.130585
H25   H     H_    0.058318 0.708777 0.676567 0.101765
H26   H     H_    0.441682 0.291246 0.176577 0.101841
H27   H     H_    0.558263 0.791212 0.323428 0.101744
H28   H     H_    0.941884 0.208770 0.823426 0.101800
O21   O     O_3   0.184092 0.338187 0.725791 -0.664676
H29   H     H_    0.255371 0.364819 0.759182 0.291936
O22   O     O_3   0.316092 0.661895 0.225707 -0.664631
H30   H     H_    0.244576 0.635294 0.259060 0.291879
O23   O     O_3   0.683683 0.161829 0.274185 -0.664710
H31   H     H_    0.754956 0.135220 0.240785 0.291944
O24   O     O_3   0.816059 0.838151 0.774273 -0.664640
H32   H     H_    0.744545 0.864768 0.740923 0.291884

loop_
_geom_bond_atom_site_label_1
_geom_bond_atom_site_label_2
_ccdc_geom_bond_type
O17   V3    S    
C47   C51   A    
C22   C26   A    
C19   C23   A    
O19   V1    S    
C9    H9    S    
O3    C7    A    
H6    C46   S    
C44   C48   A    
C11   H11   S    
C36   C64   A    
C29   C37   A    
O24   H32   S    
O1    C5    A    
C8    C62   S    
C28   C32   A    
O9    V1    S    
H4    C60   S    
C18   C22   A    
O4    C8    A    
C29   C33   A    
C30   C38   A    
O1    V3    S    
H7    C47   S    
O2    V4    S    
C11   C43   A    
O3    V1    S    
C12   C60   A    
C20   H20   S    
C3    C16   S    
C15   C55   A    
C1    O15   A    
C21   H21   S    
C2    O16   A    
C27   O23   S    
O2    C6    A    
C23   H23   S    
C16   C60   A    
O14   V2    S    
C51   H27   S    
C39   C55   A    
C53   H13   S    
O11   C7    A    
O15   V3    S    
O12   C8    A    
O10   V2    S    
C36   C52   A    
C14   C54   A    
O5    V1    S    
C27   C31   A    
C6    C64   S    
C18   H18   S    
C25   O21   S    
O8    V4    S    
C40   C44   A    
O9    C5    A    
O7    V3    S    
C12   C44   A    
C13   C53   A    
C26   C30   A    
O18   V4    S    
C14   C58   A    
C17   C61   A    
C46   C50   A    
C35   C63   A    
C20   C24   A    
C19   H19   S    
C32   C36   A    
C52   H28   S    
O7    C3    A    
O5    C1    A    
C24   H24   S    
C25   C29   A    
C42   C46   A    
C41   C45   A    
O8    C4    A    
H5    C45   S    
H2    C58   S    
C26   O22   S    
H1    C57   S    
O11   V3    S    
H3    C59   S    
O23   H31   S    
C40   C56   A    
C10   H10   S    
C7    C61   S    
C10   C58   A    
C35   C51   A    
C16   C56   A    
C32   C40   A    
C20   C64   A    
C4    O14   A    
C34   C50   A    
C4    C15   S    
C33   C49   A    
O16   V4    S    
C3    O13   A    
C17   C21   A    
O6    V2    S    
C22   H22   S    
C1    C14   S    
C48   C52   A    
C55   H15   S    
H8    C48   S    
C9    C57   A    
O6    C2    A    
O22   H30   S    
C21   C25   A    
C11   C59   A    
O12   V4    S    
C28   O24   S    
C23   C27   A    
C50   H26   S    
C24   C28   A    
O10   C6    A    
C49   H25   S    
C37   C53   A    
C54   H14   S    
O13   V1    S    
C10   C42   A    
C43   C47   A    
C9    C41   A    
C30   C34   A    
C5    C63   S    
C38   C54   A    
O20   V2    S    
C12   H12   S    
C31   C35   A    
O4    V2    S    
C56   H16   S    
C17   H17   S    
C31   C39   A    
C38   C42   A    
C19   C63   A    
C37   C41   A    
C18   C62   A    
C13   C57   A    
O21   H29   S    
C2    C13   S    
C39   C43   A    
C45   C49   A    
C34   C62   A    
C15   C59   A    
C33   C61   A    
