data_mof_unit_65308.cif
_audit_creation_date              2013-03-05T16:28:47-0500
_audit_creation_method            fapswitch 2.2
_symmetry_space_group_name_H-M    P1
_symmetry_Int_Tables_number       1
_space_group_crystal_system       triclinic
_cell_length_a                    19.370237
_cell_length_b                    18.126758
_cell_length_c                    23.522357
_cell_angle_alpha                 90.005484
_cell_angle_beta                  89.777703
_cell_angle_gamma                 90.00195
_cell_volume                      8259.09834081

loop_
_atom_site_label
_atom_site_type_symbol
_atom_site_description
_atom_site_fract_x
_atom_site_fract_y
_atom_site_fract_z
_atom_type_partial_charge
O1    O     O_R   0.400190 0.561980 0.499990 -0.569736
O2    O     O_R   0.599810 0.438020 0.500010 -0.596988
O3    O     O_R   0.599810 0.561980 0.500010 -0.569712
O4    O     O_R   0.400190 0.438020 0.499990 -0.597343
C1    C     C_R   0.367846 0.500004 0.499609 0.808451
C2    C     C_R   0.632162 0.500005 0.500400 0.808223
O5    O     O_R   0.499980 0.561970 0.417880 -0.592886
O6    O     O_R   0.500020 0.438030 0.582120 -0.584827
O7    O     O_R   0.500020 0.561970 0.582120 -0.592856
O8    O     O_R   0.499980 0.438030 0.417880 -0.584747
C3    C     C_R   0.500012 0.500009 0.390799 0.794347
C4    C     C_R   0.499961 0.500018 0.609200 0.794691
Cu1   Cu    Cu3+1 0.500000 0.573360 0.500000 0.932687
Cu2   Cu    Cu3+1 0.500000 0.426640 0.500000 0.923798
C5    C     C_R   0.557484 0.476263 0.880334 0.527199
C6    C     C_R   0.442664 0.525148 0.119769 0.527346
N1    N     N_R   0.500179 0.500641 0.852002 -0.467601
N2    N     N_R   0.499859 0.500469 0.148066 -0.468191
C7    C     C_R   0.442848 0.525083 0.880639 0.527354
C8    C     C_R   0.557137 0.475896 0.119457 0.527792
C9    C     C_R   0.441688 0.525806 0.940275 -0.012730
C10   C     C_R   0.558383 0.475392 0.059824 -0.013096
C11   C     C_R   0.500088 0.500678 0.970048 -0.019395
C12   C     C_R   0.500019 0.500634 0.030052 -0.019382
C13   C     C_R   0.558550 0.475571 0.939964 -0.012503
C14   C     C_R   0.441579 0.525816 0.060138 -0.012749
C15   C     C_R   0.383657 0.550748 0.970704 -0.169753
C16   C     C_R   0.616430 0.450504 0.029398 -0.169813
C17   C     C_R   0.383614 0.550779 0.030018 -0.169498
C18   C     C_R   0.616523 0.450620 0.970085 -0.169470
O9    O     O_2   0.613411 0.453335 0.850856 -0.548567
O10   O     O_2   0.386889 0.548407 0.149288 -0.547755
O11   O     O_2   0.386967 0.548006 0.851460 -0.548266
O12   O     O_2   0.612843 0.452567 0.148672 -0.547227
H1    H     H_    0.338107 0.570329 0.948819 0.185880
H2    H     H_    0.661959 0.430867 0.051284 0.185823
H3    H     H_    0.338035 0.570383 0.052146 0.185990
H4    H     H_    0.662121 0.431065 0.947959 0.185966
C19   C     C_R   0.498884 0.433444 0.238758 -0.111275
C20   C     C_R   0.502017 0.433576 0.761250 -0.110872
H5    H     H_    0.497938 0.381631 0.215859 0.139094
H6    H     H_    0.503323 0.381765 0.784133 0.140900
C21   C     C_R   0.498962 0.433239 0.298020 -0.229205
C22   C     C_R   0.501910 0.433331 0.701989 -0.230733
H7    H     H_    0.498132 0.380809 0.320081 0.158693
H8    H     H_    0.503418 0.380905 0.679936 0.159043
C23   C     C_R   0.500031 0.500101 0.328259 -0.043845
C24   C     C_R   0.499904 0.500141 0.671739 -0.043740
C25   C     C_R   0.500924 0.567097 0.298177 -0.231923
C26   C     C_R   0.498058 0.567129 0.701805 -0.231994
H9    H     H_    0.501780 0.619444 0.320356 0.154502
H10   H     H_    0.496520 0.619443 0.679615 0.154029
C27   C     C_R   0.500748 0.567140 0.238919 -0.109343
C28   C     C_R   0.498224 0.567221 0.761061 -0.108454
H11   H     H_    0.501626 0.619047 0.216147 0.139248
H12   H     H_    0.497011 0.619159 0.783789 0.140767
C29   C     C_R   0.499784 0.500353 0.209024 0.361105
C30   C     C_R   0.500170 0.500482 0.791007 0.358756
C31   C     C_R   0.743057 0.521276 0.449270 0.109534
C32   C     C_R   0.255366 0.480832 0.451020 0.103558
C33   C     C_R   0.256970 0.520188 0.550995 0.107983
C34   C     C_R   0.744676 0.479785 0.548727 0.101514
C35   C     C_R   0.815213 0.522229 0.449249 -0.227177
C36   C     C_R   0.183191 0.482251 0.452536 -0.146234
C37   C     C_R   0.184815 0.521189 0.551014 -0.227477
C38   C     C_R   0.816852 0.481207 0.547210 -0.146266
H13   H     H_    0.843121 0.537951 0.411080 0.138379
H14   H     H_    0.153913 0.468243 0.414857 0.133783
H15   H     H_    0.156903 0.536114 0.589372 0.138549
H16   H     H_    0.846142 0.466419 0.584704 0.133921
C39   C     C_R   0.851877 0.502731 0.497954 0.123064
C40   C     C_R   0.148158 0.502740 0.502057 0.123050
C41   C     C_R   0.707496 0.500111 0.499412 -0.075130
C42   C     C_R   0.292526 0.500101 0.500591 -0.074621
C43   C     C_R   0.963839 0.570924 0.499562 0.188173
C44   C     C_R   0.036352 0.435738 0.501539 0.172735
C45   C     C_R   0.036181 0.570919 0.501258 0.188114
C46   C     C_R   0.963705 0.435763 0.497681 0.172526
C47   C     C_R   0.072318 0.503335 0.502760 -0.098283
C48   C     C_R   0.927719 0.503364 0.497256 -0.098262
C49   C     C_R   0.527153 0.721293 0.454890 0.060852
C50   C     C_R   0.449190 0.278824 0.528061 0.077028
C51   C     C_R   0.472852 0.721308 0.545109 0.060953
C52   C     C_R   0.550813 0.278825 0.471939 0.077426
H17   H     H_    0.549046 0.691475 0.419364 0.121693
H18   H     H_    0.409300 0.308911 0.550477 0.122608
H19   H     H_    0.450961 0.691502 0.580637 0.121481
H20   H     H_    0.590701 0.308912 0.449524 0.123574
C53   C     C_R   0.527141 0.798788 0.453862 -0.259455
C54   C     C_R   0.447963 0.201317 0.528186 -0.301844
C55   C     C_R   0.472873 0.798804 0.546133 -0.259526
C56   C     C_R   0.552045 0.201318 0.471813 -0.301466
H21   H     H_    0.548870 0.827495 0.417602 0.134809
H22   H     H_    0.406962 0.172511 0.550376 0.132139
H23   H     H_    0.451149 0.827524 0.582393 0.135129
H24   H     H_    0.593048 0.172513 0.449623 0.132699
C57   C     C_R   0.500009 0.838616 0.499997 0.218509
C58   C     C_R   0.500005 0.161599 0.499999 0.172239
N3    N     N_R   0.500000 0.683620 0.500000 -0.164644
N4    N     N_R   0.500000 0.316380 0.500000 -0.167665
C59   C     C_R   0.538265 0.960931 0.541028 0.182103
C60   C     C_R   0.462796 0.039216 0.458181 0.170750
C61   C     C_R   0.461758 0.960918 0.458962 0.181843
C62   C     C_R   0.537224 0.039229 0.541812 0.170635
C63   C     C_R   0.500008 0.078868 0.499997 -0.101639
C64   C     C_R   0.500011 0.921485 0.499995 -0.076147
N5    N     N_2   0.579752 0.921252 0.580543 -0.415422
H25   H     H_    0.581801 0.943795 0.620691 0.275931
C65   C     C_3   0.647422 0.901660 0.559173 -0.661043
H26   H     H_    0.674616 0.867384 0.591159 0.222767
H27   H     H_    0.678346 0.952229 0.550960 0.227370
H28   H     H_    0.643153 0.869167 0.519312 0.230328
N6    N     N_2   0.423632 0.077402 0.416302 -0.420080
H29   H     H_    0.396624 0.122290 0.431536 0.262169
C66   C     C_3   0.461094 0.093809 0.364480 -0.698954
H30   H     H_    0.424794 0.115882 0.332281 0.230119
H31   H     H_    0.485697 0.043318 0.346938 0.224266
H32   H     H_    0.501545 0.135826 0.372523 0.229284
N7    N     N_2   0.420277 0.921226 0.419443 -0.415212
H33   H     H_    0.418234 0.943758 0.379295 0.276104
C67   C     C_3   0.352604 0.901636 0.440807 -0.659995
H34   H     H_    0.325414 0.867348 0.408819 0.223443
H35   H     H_    0.321678 0.952205 0.449014 0.227030
H36   H     H_    0.356866 0.869156 0.480670 0.230278
N8    N     N_2   0.576389 0.077428 0.583689 -0.419848
H37   H     H_    0.603395 0.122317 0.568455 0.262470
C68   C     C_3   0.538931 0.093842 0.635513 -0.698667
H38   H     H_    0.498475 0.135850 0.627473 0.228850
H39   H     H_    0.575232 0.115930 0.667710 0.231118
H40   H     H_    0.514334 0.043351 0.653057 0.223944
C69   C     C_3   0.705982 0.542216 0.395017 -0.387732
C70   C     C_3   0.702080 0.625852 0.388631 -0.815065
H41   H     H_    0.675416 0.650669 0.425870 0.257906
H42   H     H_    0.754767 0.649645 0.385052 0.244044
H43   H     H_    0.672736 0.639909 0.349642 0.236985
H44   H     H_    0.733756 0.518575 0.357789 0.203473
H45   H     H_    0.653003 0.519046 0.393658 0.190252
C71   C     C_3   0.291060 0.460554 0.395738 -0.433100
C72   C     C_3   0.314245 0.529353 0.363486 -0.796875
H46   H     H_    0.351731 0.561694 0.388871 0.254699
H47   H     H_    0.339485 0.512875 0.322963 0.257254
H48   H     H_    0.269002 0.564685 0.353585 0.251304
H49   H     H_    0.336023 0.424076 0.403701 0.216786
H50   H     H_    0.255490 0.428759 0.367982 0.205871
C73   C     C_3   0.294070 0.539929 0.605503 -0.389533
C74   C     C_3   0.298460 0.623414 0.612775 -0.808152
H51   H     H_    0.325353 0.648698 0.575840 0.256245
H52   H     H_    0.245906 0.647495 0.616527 0.243923
H53   H     H_    0.327803 0.636584 0.651950 0.241147
H54   H     H_    0.266105 0.515834 0.642457 0.203330
H55   H     H_    0.346905 0.516364 0.606654 0.189413
C75   C     C_3   0.709020 0.458490 0.603797 -0.425448
C76   C     C_3   0.685694 0.526688 0.636742 -0.803764
H56   H     H_    0.648204 0.559413 0.611661 0.253914
H57   H     H_    0.660424 0.509470 0.677067 0.257692
H58   H     H_    0.730877 0.561915 0.647052 0.249963
H59   H     H_    0.664146 0.422027 0.595474 0.217696
H60   H     H_    0.744653 0.426327 0.631241 0.207025
N9    N     N_2   0.928173 0.639698 0.501505 -0.399703
H61   H     H_    0.885023 0.643117 0.476221 0.251038
C77   C     C_3   0.916378 0.667614 0.558298 -0.641850
H62   H     H_    0.881159 0.630199 0.582078 0.213056
H63   H     H_    0.892277 0.723088 0.555838 0.219816
H64   H     H_    0.965979 0.672761 0.581535 0.239912
N10   N     N_2   0.074068 0.368152 0.502366 -0.421259
H65   H     H_    0.054257 0.326898 0.477092 0.255651
C78   C     C_3   0.092551 0.342589 0.558548 -0.690526
H66   H     H_    0.125216 0.292480 0.554834 0.225781
H67   H     H_    0.045466 0.328685 0.583435 0.212286
H68   H     H_    0.122376 0.385334 0.581631 0.241259
N11   N     N_2   0.071832 0.639733 0.500145 -0.399757
H69   H     H_    0.114994 0.642644 0.525455 0.251161
C79   C     C_3   0.083600 0.668801 0.443696 -0.641161
H70   H     H_    0.118816 0.631880 0.419454 0.213274
H71   H     H_    0.107694 0.724223 0.446827 0.219971
H72   H     H_    0.033990 0.674410 0.420539 0.239734
N12   N     N_2   0.926012 0.368186 0.496063 -0.421464
H73   H     H_    0.945844 0.326449 0.520842 0.255731
C80   C     C_3   0.907524 0.343721 0.439588 -0.688927
H74   H     H_    0.874957 0.293472 0.442711 0.226057
H75   H     H_    0.954611 0.330422 0.414506 0.212088
H76   H     H_    0.877596 0.386865 0.417049 0.241602

loop_
_geom_bond_atom_site_label_1
_geom_bond_atom_site_label_2
_geom_bond_distance
_ccdc_geom_bond_type
C59   N5    1.425840 S    
C51   H19   1.080463 S    
N11   H69   1.029598 S    
C25   C27   1.393901 A    
N10   H65   1.030318 S    
C15   C17   1.395197 A    
C46   N12   1.426607 S    
C27   H11   1.082834 S    
C3    C23   1.471088 S    
C71   C72   1.526439 S    
C44   C47   1.409850 A    
C4    C24   1.471062 S    
O3    C2    1.286442 A    
C73   C74   1.525336 S    
C56   C58   1.403172 A    
C23   C25   1.405658 A    
C79   H70   1.111454 S    
O5    C3    1.291159 A    
N11   C79   1.445833 S    
C31   C69   1.515121 S    
C26   C28   1.393841 A    
C58   C63   1.499658 S    
C34   C75   1.515630 S    
O1    C1    1.286346 A    
C36   H14   1.084196 S    
C7    C9    1.402927 A    
C44   C46   1.410448 A    
N6    H29   1.030881 S    
C40   C47   1.469112 S    
C71   H49   1.110046 S    
C65   H27   1.111522 S    
C72   H48   1.110905 S    
C46   C48   1.409861 A    
C5    C13   1.402928 A    
C66   H30   1.110105 S    
C19   C29   1.400188 A    
C56   H24   1.082885 S    
C18   H4    1.083085 S    
C60   C63   1.417401 A    
C1    C42   1.459057 S    
O7    Cu1   1.942677 S    
C62   C63   1.417400 A    
C67   H36   1.110577 S    
C33   C73   1.515083 S    
C62   N8    1.425124 S    
C38   C39   1.396034 A    
C70   H41   1.110346 S    
C66   H31   1.110629 S    
C26   H10   1.082951 S    
C11   C12   1.411424 A    
N9    C77   1.445831 S    
C34   C41   1.416560 A    
C76   H57   1.110485 S    
C43   C48   1.411541 A    
C31   C41   1.416529 A    
C74   H52   1.110835 S    
C73   H54   1.111846 S    
O3    Cu1   1.944325 S    
C45   N11   1.425934 S    
N1    C30   1.434747 S    
C80   H76   1.109623 S    
C8    O12   1.349518 S    
C45   C47   1.411494 A    
C9    C15   1.404985 A    
N10   C78   1.446779 S    
C51   N3    1.365528 A    
Cu1   Cu2   2.659556 S    
C53   H21   1.082909 S    
N5    C65   1.446321 S    
O2    C2    1.286557 A    
C39   C48   1.469136 S    
C77   H63   1.110272 S    
C22   H8    1.082968 S    
C54   H22   1.082881 S    
C78   H68   1.109623 S    
C35   H13   1.084352 S    
N7    C67   1.446316 S    
C6    C14   1.402952 A    
C75   H60   1.112003 S    
C20   C30   1.400620 A    
C34   C38   1.398618 A    
C52   N4    1.364838 A    
C22   C24   1.405294 A    
C78   H67   1.110809 S    
C69   H44   1.111842 S    
O8    Cu2   1.942682 S    
C65   H28   1.110578 S    
C78   H66   1.110224 S    
C27   C29   1.400144 A    
O4    C1    1.286497 A    
C19   C21   1.393989 A    
C49   N3    1.365536 A    
C25   H9    1.082955 S    
C50   H18   1.081348 S    
C53   C57   1.403756 A    
Cu1   N3    1.998656 S    
C68   H39   1.110106 S    
C69   H45   1.109394 S    
C74   H53   1.110507 S    
C43   C45   1.402020 A    
N2    C29   1.433868 S    
N9    H61   1.029586 S    
C20   C22   1.393979 A    
O6    C4    1.291576 A    
C66   H32   1.109472 S    
C44   N10   1.426608 S    
C55   C57   1.403754 A    
C76   H58   1.110904 S    
Cu2   N4    1.998656 S    
C24   C26   1.405538 A    
C21   H7    1.082965 S    
C16   H2    1.083083 S    
C67   H34   1.110311 S    
C73   H55   1.109424 S    
C79   H71   1.110273 S    
C57   C64   1.502154 S    
C70   H42   1.110832 S    
C8    C10   1.402856 A    
N12   H73   1.030301 S    
C59   C62   1.419562 A    
C9    C11   1.408492 A    
C7    O11   1.349534 S    
N8    H37   1.030877 S    
C10   C12   1.408602 A    
O1    Cu1   1.944311 S    
N5    H25   1.029854 S    
C69   C70   1.525391 S    
C59   C64   1.413247 A    
C77   H64   1.111120 S    
C2    C41   1.459334 S    
C74   H51   1.110304 S    
C28   C30   1.400535 A    
C79   H72   1.111118 S    
C43   N9    1.425935 S    
C13   C18   1.404940 A    
C5    N1    1.370163 A    
C75   H59   1.109962 S    
O6    Cu2   1.942638 S    
C50   N4    1.364837 A    
C61   N7    1.425839 S    
C52   H20   1.081343 S    
C12   C14   1.408673 A    
C20   H6    1.082851 S    
C72   H46   1.109377 S    
C28   H12   1.082843 S    
C5    O9    1.349545 S    
C33   C42   1.416394 A    
C6    O10   1.349529 S    
C37   C40   1.395858 A    
C51   C55   1.404959 A    
C31   C35   1.397781 A    
C50   C54   1.405152 A    
C32   C36   1.398597 A    
C15   H1    1.083081 S    
C16   C18   1.395161 A    
C68   H40   1.110627 S    
C49   C53   1.404956 A    
C60   N6    1.425120 S    
C71   H50   1.112002 S    
C65   H26   1.110308 S    
C72   H47   1.110487 S    
C38   H16   1.084199 S    
C77   H62   1.111449 S    
C70   H43   1.110491 S    
C37   H15   1.084346 S    
C32   C42   1.416388 A    
N1    C7    1.370217 A    
N12   C80   1.446778 S    
C61   C64   1.413244 A    
N2    C8    1.369837 A    
C36   C40   1.396093 A    
O4    Cu2   1.944325 S    
C60   C61   1.419561 A    
O2    Cu2   1.944311 S    
O7    C4    1.291128 A    
C67   H35   1.111523 S    
O8    C3    1.291560 A    
C55   H23   1.082912 S    
C80   H74   1.110235 S    
C33   C37   1.397772 A    
O5    Cu1   1.942643 S    
C11   C13   1.408550 A    
C75   C76   1.526444 S    
C19   H5    1.082847 S    
C14   C17   1.404877 A    
C6    N2    1.369794 A    
N7    H33   1.029857 S    
C17   H3    1.083085 S    
N8    C68   1.447095 S    
C10   C16   1.404898 A    
C52   C56   1.405146 A    
N6    C66   1.447095 S    
C76   H56   1.109379 S    
C21   C23   1.405430 A    
C35   C39   1.395787 A    
C54   C58   1.403178 A    
C49   H17   1.080480 S    
C68   H38   1.109473 S    
C32   C71   1.515590 S    
C80   H75   1.110815 S    
