data_mof_unit_27726.cif
_audit_creation_date              2012-12-11T17:01:16-0500
_audit_creation_method            fapswitch 2.2
_symmetry_space_group_name_H-M    P1
_symmetry_Int_Tables_number       1
_space_group_crystal_system       monoclinic
_cell_length_a                    19.340742
_cell_length_b                    7.086127
_cell_length_c                    17.662099
_cell_angle_alpha                 90.0
_cell_angle_beta                  108.545001
_cell_angle_gamma                 90.0
_cell_volume                      2294.91540818

loop_
_atom_site_label
_atom_site_type_symbol
_atom_type_description
_atom_site_fract_x
_atom_site_fract_y
_atom_site_fract_z
_atom_type_partial_charge
O1    O     O_R   0.413720 0.494330 0.415730 -0.537834
O2    O     O_R   0.586280 0.994330 0.584270 -0.537833
O3    O     O_R   0.560210 0.819300 0.430070 -0.553055
O4    O     O_R   0.439790 0.319300 0.569930 -0.553055
C1    C     C_R   0.580483 0.654968 0.413263 0.761313
C2    C     C_R   0.419517 0.154968 0.586737 0.761313
O5    O     O_R   0.412670 0.823730 0.406310 -0.551719
O6    O     O_R   0.587330 0.323730 0.593690 -0.551719
O7    O     O_R   0.437690 0.998790 0.560340 -0.511470
O8    O     O_R   0.562310 0.498790 0.439660 -0.511470
C3    C     C_R   0.384646 0.655142 0.384322 0.685194
C4    C     C_R   0.615354 0.155142 0.615678 0.685194
O9    O     O_3   0.508380 0.662350 0.550560 -0.366575
O10   O     O_3   0.491620 0.162350 0.449440 -0.366575
V1    V     V_3+5 0.498450 0.935370 0.490620 1.442637
V2    V     V_3+5 0.501550 0.435370 0.509380 1.442637
C5    C     C_R   0.738914 0.008503 0.685781 0.062470
C6    C     C_R   0.261086 0.508503 0.314219 0.062470
C7    C     C_R   0.685956 0.147924 0.681356 -0.118451
C8    C     C_R   0.314044 0.647925 0.318644 -0.118450
C9    C     C_R   0.705360 0.292162 0.739633 -0.187756
C10   C     C_R   0.294640 0.792162 0.260367 -0.187757
H1    H     H_    0.668744 0.409359 0.736946 0.134846
H2    H     H_    0.331256 0.909359 0.263054 0.134846
C11   C     C_R   0.770684 0.281830 0.804610 -0.181608
C12   C     C_R   0.229316 0.781830 0.195390 -0.181608
H3    H     H_    0.782170 0.391673 0.849516 0.127012
H4    H     H_    0.217830 0.891673 0.150484 0.127012
C13   C     C_R   0.818055 0.125549 0.813965 -0.096498
C14   C     C_R   0.181945 0.625549 0.186035 -0.096498
C15   C     C_R   0.801530 0.995924 0.751241 0.072619
C16   C     C_R   0.198470 0.495924 0.248759 0.072619
C17   C     C_3   0.804292 0.786539 0.748361 -0.413774
C18   C     C_3   0.195708 0.286539 0.251639 -0.413774
C19   C     C_3   0.736594 0.798485 0.673799 -0.094952
C20   C     C_3   0.263406 0.298485 0.326201 -0.094952
H5    H     H_    0.792866 0.720173 0.800132 0.159938
H6    H     H_    0.207134 0.220173 0.199868 0.159938
H7    H     H_    0.854810 0.736077 0.737595 0.171785
H8    H     H_    0.145190 0.236077 0.262404 0.171785
H9    H     H_    0.687005 0.732444 0.681306 0.150494
H10   H     H_    0.312995 0.232444 0.318694 0.150494
C21   C     C_R   0.325036 0.299640 0.637096 -0.305380
C22   C     C_R   0.674964 0.799640 0.362903 -0.305380
C23   C     C_R   0.371463 0.146647 0.637741 -0.112053
C24   C     C_R   0.628537 0.646647 0.362259 -0.112053
C25   C     C_R   0.369379 0.985233 0.684075 0.294083
C26   C     C_R   0.630621 0.485233 0.315924 0.294083
C27   C     C_R   0.322889 0.982892 0.732370 0.005477
C28   C     C_R   0.677111 0.482892 0.267630 0.005477
C29   C     C_R   0.275079 0.136834 0.729070 0.009165
C30   C     C_R   0.724921 0.636834 0.270930 0.009165
C31   C     C_R   0.275913 0.293893 0.680650 0.071282
C32   C     C_R   0.724087 0.793893 0.319350 0.071282
C33   C     C_R   0.324331 0.833437 0.785518 -0.176099
C34   C     C_R   0.675669 0.333437 0.214482 -0.176099
C35   C     C_R   0.277650 0.832364 0.831501 -0.191488
C36   C     C_R   0.722350 0.332364 0.168499 -0.191489
C37   C     C_R   0.228250 0.980042 0.825915 0.098780
C38   C     C_R   0.771750 0.480042 0.174085 0.098780
C39   C     C_R   0.226908 0.134574 0.774963 0.048397
C40   C     C_R   0.773092 0.634574 0.225037 0.048397
C41   C     C_R   0.177965 0.286708 0.770520 0.065273
C42   C     C_R   0.822035 0.786709 0.229480 0.065273
C43   C     C_R   0.178268 0.442606 0.719878 0.070261
C44   C     C_R   0.821731 0.942607 0.280121 0.070261
C45   C     C_R   0.227778 0.444216 0.676327 -0.203124
C46   C     C_R   0.772222 0.944216 0.323673 -0.203124
C47   C     C_R   0.180317 0.974645 0.870813 -0.227276
C48   C     C_R   0.819683 0.474645 0.129187 -0.227276
C49   C     C_R   0.131293 0.122643 0.866770 -0.075872
C50   C     C_R   0.868707 0.622644 0.133230 -0.075872
C51   C     C_R   0.130851 0.278486 0.817455 -0.232031
C52   C     C_R   0.869149 0.778486 0.182544 -0.232031
H11   H     H_    0.325442 0.421821 0.600268 0.138163
H12   H     H_    0.674558 0.921821 0.399732 0.138163
H13   H     H_    0.361993 0.716832 0.793302 0.144867
H14   H     H_    0.638007 0.216832 0.206697 0.144867
H15   H     H_    0.279745 0.714178 0.871138 0.131863
H16   H     H_    0.720255 0.214178 0.128862 0.131863
H17   H     H_    0.181657 0.855290 0.909707 0.121318
H18   H     H_    0.818343 0.355290 0.090293 0.121318
H19   H     H_    0.092633 0.390925 0.815618 0.136528
H20   H     H_    0.907367 0.890925 0.184382 0.136528
H21   H     H_    0.228732 0.564090 0.638463 0.121519
H22   H     H_    0.771268 0.064090 0.361537 0.121519
O11   O     O_R   0.937800 0.775460 0.060470 -0.537479
O12   O     O_R   0.062200 0.275460 0.939530 -0.537479
O13   O     O_R   0.087350 0.441340 0.093710 -0.538381
O14   O     O_R   0.912650 0.941340 0.906290 -0.538381
C53   C     C_R   0.114868 0.610549 0.116221 0.693437
C54   C     C_R   0.885132 0.110549 0.883779 0.693437
O15   O     O_R   0.939820 0.446010 0.069950 -0.544225
O16   O     O_R   0.060180 0.946010 0.930050 -0.544225
O17   O     O_R   0.913690 0.271230 0.915700 -0.540024
O18   O     O_R   0.086310 0.771230 0.084300 -0.540025
C55   C     C_R   0.918613 0.614500 0.084796 0.703707
C56   C     C_R   0.081387 0.114500 0.915204 0.703707
O19   O     O_3   0.991670 0.603050 0.949510 -0.373334
O20   O     O_3   0.008330 0.103050 0.050490 -0.373335
V3    V     V_3+5 0.001550 0.329940 0.009370 1.390548
V4    V     V_3+5 0.998450 0.829940 0.990630 1.390548
C57   C     C_3   0.128894 0.612499 0.712735 -0.347831
C58   C     C_3   0.051137 0.573453 0.657939 -0.309675
C59   C     C_3   0.001690 0.742375 0.656583 -0.775392
H23   H     H_    0.998281 0.769046 0.717297 0.229040
H24   H     H_    0.023006 0.870595 0.635346 0.230585
H25   H     H_    0.946033 0.713551 0.615612 0.212366
H26   H     H_    0.052041 0.545869 0.596289 0.196431
H27   H     H_    0.028144 0.447152 0.678502 0.194708
H28   H     H_    0.128547 0.656880 0.772813 0.178519
H29   H     H_    0.150618 0.734992 0.687968 0.183286
C60   C     C_3   0.871106 0.112499 0.287265 -0.347832
C61   C     C_3   0.948863 0.073453 0.342061 -0.309675
C62   C     C_3   0.998310 0.242375 0.343417 -0.775392
H30   H     H_    0.001719 0.269047 0.282703 0.229040
H31   H     H_    0.976994 0.370595 0.364654 0.230585
H32   H     H_    0.053967 0.213552 0.384388 0.212366
H33   H     H_    0.947959 0.045869 0.403711 0.196430
H34   H     H_    0.971856 0.947152 0.321499 0.194708
H35   H     H_    0.871453 0.156880 0.227187 0.178519
H36   H     H_    0.849382 0.234992 0.312031 0.183286
C63   C     C_3   0.752400 0.740861 0.596733 -0.324915
C64   C     C_3   0.760105 0.525772 0.592091 -0.302075
C65   C     C_3   0.791221 0.467330 0.526322 -0.790187
H37   H     H_    0.756636 0.520363 0.467634 0.238323
H38   H     H_    0.847280 0.523236 0.538711 0.228274
H39   H     H_    0.793313 0.310933 0.523501 0.212365
H40   H     H_    0.796664 0.469795 0.649693 0.213120
H41   H     H_    0.705683 0.460205 0.579989 0.203670
H42   H     H_    0.706795 0.789617 0.544445 0.162007
H43   H     H_    0.803105 0.811030 0.594116 0.182239
C66   C     C_3   0.247600 0.240861 0.403267 -0.324915
C67   C     C_3   0.239895 0.025772 0.407909 -0.302075
C68   C     C_3   0.208779 0.967330 0.473678 -0.790187
H44   H     H_    0.243364 0.020364 0.532366 0.238323
H45   H     H_    0.152720 0.023235 0.461289 0.228273
H46   H     H_    0.206688 0.810933 0.476499 0.212365
H47   H     H_    0.203336 0.969795 0.350307 0.213120
H48   H     H_    0.294317 0.960205 0.420011 0.203670
H49   H     H_    0.293205 0.289617 0.455555 0.162006
H50   H     H_    0.196895 0.311030 0.405884 0.182239
O21   O     O_3   0.414525 0.835282 0.682640 -0.636334
H51   H     H_    0.387626 0.716864 0.683395 0.278961
O22   O     O_3   0.585475 0.335283 0.317360 -0.636334
H52   H     H_    0.612374 0.216864 0.316605 0.278961

loop_
_geom_bond_atom_site_label_1
_geom_bond_atom_site_label_2
_ccdc_geom_bond_type
C68   H46   S    
C44   C46   A    
C41   C43   A    
C44   C60   S    
O18   V4    S    
C63   H43   S    
C46   H22   S    
C35   H15   S    
C20   H10   S    
O1    C3    A    
O2    C4    A    
C20   C66   S    
C2    O7    A    
C61   C62   S    
C68   H44   S    
C25   C27   A    
O5    C3    A    
C59   H24   S    
C66   H50   S    
C17   H7    S    
C18   H8    S    
C57   H28   S    
C2    C23   S    
C26   C28   A    
O22   H52   S    
C58   H26   S    
C33   H13   S    
C35   C37   A    
C32   C46   A    
O16   C56   A    
C36   C38   A    
C62   H30   S    
C25   O21   S    
C34   H14   S    
C38   C40   A    
C27   C29   A    
C47   C49   A    
O14   V4    S    
C40   C42   A    
C17   C19   S    
C53   O18   A    
C21   C31   A    
C60   H36   S    
O17   V3    S    
C22   C24   A    
C62   H31   S    
C29   C39   A    
C65   H39   S    
C28   C30   A    
C15   C17   S    
O13   C53   A    
C18   C20   S    
C61   H33   S    
C36   H16   S    
O13   V3    S    
O5    V1    S    
O6    V2    S    
C21   H11   S    
C48   H18   S    
O20   V4    S    
C58   C59   S    
C49   C56   S    
C30   C32   A    
O12   V3    S    
C50   C55   S    
C23   C25   A    
C11   C13   A    
C59   H25   S    
C24   C26   A    
C3    C8    S    
C45   H21   S    
C37   C39   A    
C14   C16   A    
C63   C64   S    
O4    C2    A    
O15   V3    S    
C67   H47   S    
C49   C51   A    
O11   C55   A    
C41   C51   A    
C43   C45   A    
C27   C33   A    
C54   O17   A    
C17   H5    S    
C57   H29   S    
C29   C31   A    
C42   C44   A    
O4    V2    S    
O11   V4    S    
O14   C54   A    
C38   C48   A    
O6    C4    A    
C62   H32   S    
C26   O22   S    
C39   C41   A    
C64   H41   S    
O1    V2    S    
O2    V1    S    
C21   C23   A    
C19   H9    S    
C37   C47   A    
C50   C52   A    
O19   V3    S    
C8    C10   A    
C12   C14   A    
C9    H1    S    
C65   H37   S    
C5    C15   A    
C10   H2    S    
C6    C16   A    
C43   C57   S    
O15   C55   A    
O3    V1    S    
C60   C61   S    
C59   H23   S    
C68   H45   S    
C9    C11   A    
C63   H42   S    
C18   H6    S    
C66   H49   S    
C52   H20   S    
C14   C53   S    
O3    C1    A    
C48   C50   A    
C67   C68   S    
C67   H48   S    
C11   H3    S    
C1    C24   S    
C12   H4    S    
C33   C35   A    
O7    V1    S    
C1    O8    A    
C13   C15   A    
C30   C40   A    
C58   H27   S    
C66   C67   S    
C4    C7    S    
C19   C63   S    
O20   V3    S    
C5    C7    A    
C34   C36   A    
C64   H40   S    
C6    C8    A    
C31   C45   A    
C28   C34   A    
C47   H17   S    
O12   C56   A    
C22   C32   A    
O19   V4    S    
C60   H35   S    
O16   V4    S    
C10   C12   A    
O9    V2    S    
C57   C58   S    
C65   H38   S    
C42   C52   A    
O10   V1    S    
O8    V2    S    
C5    C19   S    
C22   H12   S    
C6    C20   S    
C51   H19   S    
C13   C54   S    
C61   H34   S    
O21   H51   S    
C16   C18   S    
C64   C65   S    
C7    C9    A    
