data_mof_unit_8189.cif
_audit_creation_date              2012-12-10T16:45:22-0500
_audit_creation_method            fapswitch 2.2
_symmetry_space_group_name_H-M    P1
_symmetry_Int_Tables_number       1
_space_group_crystal_system       triclinic
_cell_length_a                    7.480295
_cell_length_b                    8.687246
_cell_length_c                    15.604493
_cell_angle_alpha                 94.881638
_cell_angle_beta                  75.426451
_cell_angle_gamma                 103.51269
_cell_volume                      953.863502357

loop_
_atom_site_label
_atom_site_type_symbol
_atom_type_description
_atom_site_fract_x
_atom_site_fract_y
_atom_site_fract_z
_atom_type_partial_charge
C1    C     C_R   0.545298 0.800203 0.502711 0.868839
C2    C     C_R   0.454646 0.199798 0.497365 0.859447
C3    C     C_R   0.327382 0.288179 0.064243 0.280263
C4    C     C_R   0.745636 0.512240 0.905683 0.366246
C5    C     C_R   0.189493 0.250508 0.013978 0.433635
C6    C     C_R   0.872886 0.568310 0.959004 0.416295
C7    C     C_2   0.570453 0.968483 0.503954 -0.349153
C8    C     C_2   0.429408 0.031528 0.496237 -0.345462
C9    C     C_R   0.384467 0.485038 0.666509 0.794492
C10   C     C_R   0.615431 0.511049 0.333193 0.804400
C11   C     C_R   0.314276 0.445480 0.760480 -0.054198
C12   C     C_R   0.687559 0.517216 0.236300 -0.100814
C13   C     C_R   0.094882 0.276272 0.875625 0.467357
C14   C     C_R   0.947957 0.581531 0.105926 0.431472
C15   C     C_R   0.143543 0.337474 0.790130 -0.227759
C16   C     C_R   0.880919 0.567308 0.198162 -0.251292
C17   C     C_R   0.436456 0.493559 0.816400 -0.156157
C18   C     C_R   0.561892 0.469674 0.181583 -0.217524
C19   C     C_R   0.407803 0.416611 0.895941 -0.024461
C20   C     C_R   0.626176 0.467012 0.088835 -0.000461
C21   C     C_R   0.228647 0.314587 0.929297 0.032516
C22   C     C_R   0.817326 0.541511 0.050991 -0.046671
C23   C     C_R   0.551372 0.444449 0.944086 -0.139531
C24   C     C_R   0.500176 0.401009 0.033633 -0.072065
Cu1   Cu    Cu3+1 0.322120 0.483240 0.490330 1.043065
Cu2   Cu    Cu3+1 0.677880 0.516760 0.509670 1.038071
H1    H     H_    0.412104 0.436436 0.212052 0.204436
H2    H     H_    0.557766 0.589142 0.795053 0.198115
H3    H     H_    0.979829 0.599047 0.240279 0.162427
H4    H     H_    0.049746 0.297958 0.746047 0.148437
H5    H     H_    0.706010 0.040747 0.511154 0.191033
H6    H     H_    0.293840 0.959269 0.489051 0.192060
N1    N     N_2   0.945180 0.542040 0.524240 0.137490
N2    N     N_2   0.054820 0.457960 0.475760 0.134919
O1    O     O_R   0.384450 0.714270 0.493720 -0.536710
O2    O     O_R   0.615550 0.285730 0.506280 -0.537696
O3    O     O_R   0.684880 0.742590 0.510050 -0.606156
O4    O     O_R   0.315120 0.257410 0.489950 -0.606712
O5    O     O_R   0.265540 0.477900 0.617090 -0.522347
O6    O     O_R   0.734460 0.522100 0.382910 -0.538130
O7    O     O_R   0.565970 0.506210 0.633420 -0.609218
O8    O     O_R   0.434030 0.493790 0.366580 -0.606822
O9    O     O_3   0.017522 0.147436 0.045569 -0.663385
H7    H     H_    0.998871 0.129347 0.109305 0.365034
O10   O     O_3   0.051091 0.650462 0.918159 -0.647110
H8    H     H_    0.078050 0.750041 0.953272 0.366488
O11   O     O_3   0.920881 0.175477 0.905830 -0.674185
H9    H     H_    0.845104 0.164669 0.860973 0.309279
O12   O     O_3   0.140063 0.627543 0.068872 -0.728519
H10   H     H_    0.210102 0.646604 0.116309 0.324993
O13   O     O_3   0.298165 0.198192 0.137401 -0.758385
H11   H     H_    0.422141 0.180168 0.140997 0.348768
O14   O     O_3   0.821739 0.514667 0.815483 -0.695434
H12   H     H_    0.756956 0.416314 0.788960 0.312350
O15   O     O_3   0.014503 0.633654 0.586994 -0.585820
H13   H     H_    0.911778 0.686496 0.618544 0.341900
O16   O     O_3   0.985401 0.366173 0.413084 -0.608878
H14   H     H_    0.088052 0.313201 0.381593 0.337221

loop_
_geom_bond_atom_site_label_1
_geom_bond_atom_site_label_2
_ccdc_geom_bond_type
Cu1   O8    S    
N1    O15   S    
N2    O16   S    
C19   C23   A    
O15   H13   S    
Cu2   O3    S    
C6    O10   S    
Cu1   O4    S    
C10   O8    A    
C2    O4    A    
Cu2   N1    S    
C9    O7    A    
O11   H9    S    
C1    O3    A    
Cu1   N2    S    
C23   C24   A    
C14   C22   A    
N1    N2    D    
C5    O9    S    
C13   C21   A    
C7    C8    D    
Cu1   Cu2   S    
C1    C7    S    
O14   H12   S    
Cu1   O5    S    
C9    C11   S    
Cu2   O6    S    
O16   H14   S    
C10   C12   S    
Cu1   O1    S    
Cu2   O2    S    
C17   C19   A    
C20   C22   A    
O12   H10   S    
C18   C20   A    
C13   C15   A    
O9    H7    S    
C4    O14   S    
C14   C16   A    
C14   O12   S    
C7    H5    S    
C12   C18   A    
O13   H11   S    
C8    H6    S    
C20   C24   A    
C9    O5    A    
C5    C21   A    
C1    O1    A    
C15   H4    S    
C10   O6    A    
C4    C6    A    
C2    O2    A    
C13   O11   S    
C4    C23   A    
C3    O13   S    
C11   C17   A    
C19   C21   A    
C16   H3    S    
O10   H8    S    
C17   H2    S    
C11   C15   A    
C2    C8    S    
C18   H1    S    
C12   C16   A    
Cu2   O7    S    
C3    C24   A    
C3    C5    A    
C6    C22   A    
