data_mof_unit_28504.cif
_audit_creation_date              2012-12-10T20:52:45-0500
_audit_creation_method            fapswitch 2.2
_symmetry_space_group_name_H-M    P1
_symmetry_Int_Tables_number       1
_space_group_crystal_system       triclinic
_cell_length_a                    8.460572
_cell_length_b                    15.829102
_cell_length_c                    15.078717
_cell_angle_alpha                 89.499068
_cell_angle_beta                  98.637443
_cell_angle_gamma                 90.392972
_cell_volume                      1996.38015449

loop_
_atom_site_label
_atom_site_type_symbol
_atom_type_description
_atom_site_fract_x
_atom_site_fract_y
_atom_site_fract_z
_atom_type_partial_charge
C1    C     C_R   0.499570 0.338934 0.500320 0.925848
C2    C     C_R   0.499493 0.661098 0.499678 0.869346
C3    C     C_R   0.500265 0.500749 0.904827 -0.051604
C4    C     C_R   0.499843 0.501474 0.094697 -0.054339
C5    C     C_R   0.595371 0.560153 0.959187 0.134638
C6    C     C_R   0.403862 0.442473 0.039758 0.129478
C7    C     C_1   0.499551 0.500066 0.806831 0.086769
C8    C     C_1   0.500592 0.501190 0.193012 0.068239
C9    C     C_R   0.202261 0.513253 0.476723 0.934178
C10   C     C_R   0.796971 0.515410 0.522367 0.956689
C11   C     C_2   0.038825 0.539821 0.461548 -0.129455
C12   C     C_2   0.959096 0.546492 0.532679 -0.095323
C13   C     C_R   0.443413 0.954126 0.575750 -0.076270
C14   C     C_R   0.468585 0.045556 0.416433 -0.078615
C15   C     C_R   0.457567 0.912581 0.495208 0.023298
C16   C     C_R   0.460540 0.087114 0.497775 0.021032
C17   C     C_R   0.465839 0.956944 0.414548 0.120543
C18   C     C_R   0.443566 0.042775 0.577339 0.115341
C19   C     C_1   0.472418 0.823469 0.496747 -0.030185
C20   C     C_1   0.474559 0.176304 0.499536 -0.025208
C21   C     C_1   0.487439 0.250857 0.500189 -0.194815
C22   C     C_1   0.486315 0.749046 0.498078 -0.179712
C23   C     C_R   0.403584 0.442969 0.945051 -0.061548
C24   C     C_R   0.594206 0.560593 0.053948 -0.063428
N1    N     N_1   0.499960 0.500020 0.270540 -0.091572
N2    N     N_1   0.500040 0.499980 0.729460 -0.096989
O1    O     O_R   0.500000 0.378020 0.573650 -0.600456
O2    O     O_R   0.500000 0.621980 0.426350 -0.624112
O3    O     O_R   0.500070 0.378020 0.426320 -0.598812
O4    O     O_R   0.499930 0.621980 0.573680 -0.623314
O5    O     O_R   0.271720 0.500000 0.556430 -0.629710
O6    O     O_R   0.728280 0.500000 0.443570 -0.617465
O7    O     O_R   0.271790 0.500000 0.409110 -0.608396
O8    O     O_R   0.728210 0.500000 0.590890 -0.621409
Zn1   Zn    Zn3+2 0.499950 0.500000 0.598370 0.945870
Zn2   Zn    Zn3+2 0.500050 0.500000 0.401630 0.949178
C25   C     C_3   0.965953 0.557950 0.364046 -0.333085
C26   C     C_3   0.938362 0.477019 0.308208 -0.781287
H1    H     H_    0.051018 0.456430 0.285933 0.251669
H2    H     H_    0.893391 0.424452 0.346890 0.262267
H3    H     H_    0.849439 0.488782 0.247677 0.236595
H4    H     H_    0.854325 0.595351 0.359115 0.230169
H5    H     H_    0.049185 0.599818 0.333485 0.192613
C27   C     C_3   0.032615 0.583747 0.622941 -0.378707
C28   C     C_3   0.933951 0.657183 0.650291 -0.904323
H6    H     H_    0.912130 0.704682 0.595179 0.253509
H7    H     H_    0.817886 0.634955 0.667805 0.290112
H8    H     H_    0.000494 0.688285 0.710410 0.239909
H9    H     H_    0.043029 0.533809 0.675671 0.219126
H10   H     H_    0.153013 0.610975 0.620276 0.242930
C29   C     C_3   0.428995 0.090174 0.663357 -0.393018
C30   C     C_3   0.592970 0.115265 0.713211 -0.851352
H11   H     H_    0.666322 0.058221 0.732191 0.253099
H12   H     H_    0.657032 0.157199 0.670915 0.259555
H13   H     H_    0.578127 0.149692 0.775258 0.243361
H14   H     H_    0.354919 0.147643 0.647945 0.206622
H15   H     H_    0.365423 0.051963 0.709103 0.202473
C31   C     C_3   0.476576 0.909275 0.328189 -0.389832
C32   C     C_3   0.313262 0.875045 0.286471 -0.874453
H16   H     H_    0.265017 0.830370 0.332998 0.260533
H17   H     H_    0.227714 0.927780 0.269989 0.253088
H18   H     H_    0.324804 0.840952 0.223730 0.241236
H19   H     H_    0.524283 0.949298 0.277480 0.206410
H20   H     H_    0.562369 0.856346 0.342123 0.201228
C33   C     C_R   0.434525 0.904096 0.658576 0.154450
C34   C     C_R   0.285558 0.879410 0.680702 -0.174191
C35   C     C_R   0.277604 0.831392 0.758222 -0.131260
C36   C     C_R   0.418061 0.807372 0.813523 -0.116823
C37   C     C_R   0.566763 0.831236 0.791304 -0.147841
C38   C     C_R   0.575209 0.879281 0.713899 -0.131133
H21   H     H_    0.176174 0.897557 0.638120 0.123424
H22   H     H_    0.162622 0.812964 0.775546 0.121296
H23   H     H_    0.411656 0.770249 0.873529 0.119447
H24   H     H_    0.675502 0.812504 0.834007 0.126436
H25   H     H_    0.690925 0.897073 0.696951 0.117269
C39   C     C_R   0.483319 0.095492 0.334244 0.145160
C40   C     C_R   0.633981 0.124087 0.318269 -0.170592
C41   C     C_R   0.648093 0.171158 0.240918 -0.128908
C42   C     C_R   0.512105 0.189877 0.179291 -0.120788
C43   C     C_R   0.361603 0.162034 0.195216 -0.148869
C44   C     C_R   0.346977 0.114970 0.272550 -0.132386
H26   H     H_    0.740000 0.109754 0.365596 0.124059
H27   H     H_    0.764435 0.193007 0.228672 0.124904
H28   H     H_    0.523414 0.226012 0.119270 0.116362
H29   H     H_    0.256350 0.176924 0.147629 0.127675
H30   H     H_    0.229959 0.093750 0.284423 0.118854
C45   C     C_3   0.297324 0.380994 0.082270 -0.393870
C46   C     C_3   0.138939 0.422012 0.093271 -0.879393
H31   H     H_    0.160127 0.478933 0.136023 0.254556
H32   H     H_    0.072689 0.440366 0.026784 0.259396
H33   H     H_    0.064512 0.376543 0.125661 0.247013
H34   H     H_    0.272470 0.322763 0.042181 0.204399
H35   H     H_    0.357965 0.358987 0.148794 0.210078
C47   C     C_3   0.691550 0.625594 0.914414 -0.398533
C48   C     C_3   0.845213 0.588328 0.889807 -0.875665
H36   H     H_    0.921118 0.562672 0.950151 0.251475
H37   H     H_    0.818473 0.537096 0.839968 0.261415
H38   H     H_    0.913660 0.638527 0.860155 0.245422
H39   H     H_    0.618038 0.650708 0.852751 0.203531
H40   H     H_    0.722949 0.681684 0.957108 0.211741
C49   C     C_R   0.296645 0.385340 0.886327 0.150575
C50   C     C_R   0.342765 0.301835 0.873647 -0.174267
C51   C     C_R   0.242320 0.248343 0.816877 -0.136404
C52   C     C_R   0.096532 0.278178 0.771855 -0.104241
C53   C     C_R   0.050793 0.361563 0.783634 -0.138421
C54   C     C_R   0.150607 0.415107 0.840621 -0.160312
H41   H     H_    0.455808 0.278320 0.907906 0.120392
H42   H     H_    0.277437 0.183773 0.807818 0.129035
H43   H     H_    0.019127 0.236722 0.727805 0.119533
H44   H     H_    0.938206 0.384748 0.748526 0.140932
H45   H     H_    0.114833 0.479738 0.848971 0.127888
C55   C     C_R   0.688481 0.625153 0.110050 0.124420
C56   C     C_R   0.611725 0.695655 0.139441 -0.156169
C57   C     C_R   0.701798 0.760677 0.184881 -0.139989
C58   C     C_R   0.868460 0.755463 0.201912 -0.131937
C59   C     C_R   0.945481 0.685314 0.172994 -0.154475
C60   C     C_R   0.855868 0.620199 0.127472 -0.147926
H46   H     H_    0.482836 0.701150 0.125185 0.122201
H47   H     H_    0.642596 0.815822 0.205340 0.130221
H48   H     H_    0.937900 0.806017 0.236899 0.128459
H49   H     H_    0.074607 0.681402 0.185778 0.130602
H50   H     H_    0.916572 0.566250 0.105302 0.133611

loop_
_geom_bond_atom_site_label_1
_geom_bond_atom_site_label_2
_ccdc_geom_bond_type
C27   H9    S    
C53   H44   S    
C1    C21   S    
C49   C50   A    
C3    C23   A    
C48   H36   S    
C24   C55   S    
C4    C8    S    
C5    C47   S    
C48   H38   S    
C13   C33   S    
C40   C41   A    
C30   H11   S    
C15   C19   S    
O3    Zn2   S    
C25   C26   S    
C7    N2    T    
C13   C18   A    
O6    Zn2   S    
C29   H14   S    
C3    C7    S    
C55   C60   A    
C4    C24   A    
C23   C49   S    
C58   C59   A    
C49   C54   A    
O7    Zn2   S    
C59   C60   A    
C35   H22   S    
C25   H4    S    
C11   C25   S    
C55   C56   A    
C41   H27   S    
C36   C37   A    
C2    C22   S    
C51   H42   S    
C29   H15   S    
C57   H47   S    
C30   H13   S    
C17   C31   S    
C56   H46   S    
C34   C35   A    
C32   H16   S    
C45   H34   S    
C9    O7    A    
C8    N1    T    
C14   C17   A    
C50   C51   A    
O8    Zn1   S    
C52   C53   A    
C30   H12   S    
C18   C29   S    
C57   C58   A    
C54   H45   S    
C28   H7    S    
C31   H20   S    
C26   H1    S    
C32   H17   S    
C59   H49   S    
C35   C36   A    
C50   H41   S    
C19   C22   T    
C39   C40   A    
C26   H3    S    
C4    C6    A    
C41   C42   A    
O1    Zn1   S    
C36   H23   S    
C28   H6    S    
C6    C45   S    
C29   C30   S    
C14   C39   S    
C25   H5    S    
C60   H50   S    
C43   H29   S    
C34   H21   S    
C46   H33   S    
C47   H40   S    
C16   C20   S    
C1    O3    A    
C37   H24   S    
C10   O8    A    
C20   C21   T    
C9    C11   S    
C10   C12   S    
O4    Zn1   S    
C46   H32   S    
C58   H48   S    
C47   C48   S    
C13   C15   A    
C14   C16   A    
C51   C52   A    
C27   C28   S    
C56   C57   A    
C28   H8    S    
C27   H10   S    
C31   H19   S    
C15   C17   A    
C32   H18   S    
C44   H30   S    
C43   C44   A    
C3    C5    A    
C39   C44   A    
C11   C12   D    
C48   H37   S    
C53   C54   A    
C2    O4    A    
C47   H39   S    
C31   C32   S    
C12   C27   S    
C26   H2    S    
C42   H28   S    
C5    C24   A    
C40   H26   S    
C6    C23   A    
C45   H35   S    
O5    Zn1   S    
C37   C38   A    
C9    O5    A    
N1    Zn2   S    
C42   C43   A    
C10   O6    A    
N2    Zn1   S    
C46   H31   S    
O2    Zn2   S    
C45   C46   S    
C16   C18   A    
C33   C34   A    
C38   H25   S    
C1    O1    A    
C52   H43   S    
C2    O2    A    
C33   C38   A    
