data_mof_unit_50366.cif
_audit_creation_date              2012-12-11T16:48:29-0500
_audit_creation_method            fapswitch 2.2
_symmetry_space_group_name_H-M    P1
_symmetry_Int_Tables_number       1
_space_group_crystal_system       triclinic
_cell_length_a                    17.201341
_cell_length_b                    24.291794
_cell_length_c                    14.931826
_cell_angle_alpha                 90.404752
_cell_angle_beta                  125.467621
_cell_angle_gamma                 89.783348
_cell_volume                      5081.41817844

loop_
_atom_site_label
_atom_site_type_symbol
_atom_type_description
_atom_site_fract_x
_atom_site_fract_y
_atom_site_fract_z
_atom_type_partial_charge
C1    C     C_R   0.311161 0.374861 0.908051 -0.070845
C2    C     C_R   0.548988 0.498197 0.722713 0.055402
C3    C     C_R   0.055365 0.846537 0.908562 -0.108864
C4    C     C_R   0.314116 0.358608 0.998270 0.065772
C5    C     C_R   0.615375 0.314311 0.000243 0.078215
C6    C     C_R   0.814117 0.858604 0.998267 0.065784
C7    C     C_R   0.115363 0.814307 0.000240 0.078208
C8    C     C_R   0.064167 0.998831 0.366630 0.082853
C9    C     C_R   0.048988 0.998197 0.722713 0.055403
C10   C     C_R   0.191317 0.497104 0.640033 0.134223
C11   C     C_R   0.825257 0.499134 0.271273 0.105061
C12   C     C_R   0.691292 0.997108 0.640058 0.134165
C13   C     C_R   0.325257 0.999130 0.271250 0.105009
C14   C     C_2   0.987925 0.460068 0.347113 0.206884
C15   C     C_2   0.087229 0.466281 0.446250 0.246456
C16   C     C_2   0.487948 0.960070 0.347117 0.206901
C17   C     C_R   0.644571 0.346951 0.090403 -0.125097
C18   C     C_2   0.587239 0.966319 0.446260 0.246444
C19   C     C_2   0.927886 0.502365 0.321429 -0.250621
C20   C     C_2   0.101559 0.494733 0.532736 -0.280195
C21   C     C_2   0.427884 0.002366 0.321370 -0.250639
C22   C     C_2   0.601532 0.994737 0.532763 -0.280162
C23   C     C_R   0.252474 0.684046 0.100891 0.136903
C24   C     C_R   0.610295 0.762462 0.890061 0.125451
C25   C     C_R   0.752489 0.184053 0.100897 0.136937
C26   C     C_R   0.110321 0.262459 0.890096 0.125481
C27   C     C_R   0.235729 0.664655 0.002470 0.040840
C28   C     C_R   0.811163 0.874860 0.908049 -0.070861
C29   C     C_R   0.630180 0.742072 0.988882 0.061785
C30   C     C_R   0.735736 0.164656 0.002478 0.040837
C31   C     C_R   0.130195 0.242069 0.988898 0.061825
C32   C     C_R   0.150133 0.680932 0.903641 -0.182071
C33   C     C_R   0.687382 0.774202 0.084875 -0.151389
C34   C     C_R   0.650137 0.180930 0.903652 -0.182074
C35   C     C_R   0.187392 0.274198 0.084881 -0.151408
C36   C     C_R   0.599947 0.226534 0.903363 -0.129602
C37   C     C_R   0.241270 0.317636 0.086027 -0.149055
C38   C     C_R   0.099937 0.726531 0.903355 -0.129586
C39   C     C_R   0.144563 0.846948 0.090401 -0.125142
C40   C     C_R   0.741264 0.817639 0.086023 -0.149040
C41   C     C_R   0.634803 0.255295 0.002133 0.018201
C42   C     C_R   0.238734 0.328029 0.991840 0.056908
C43   C     C_R   0.134786 0.755288 0.002128 0.018211
C44   C     C_R   0.738726 0.828029 0.991829 0.056917
C45   C     C_R   0.400572 0.622844 0.091731 -0.127597
C46   C     C_R   0.553026 0.651085 0.906982 -0.147459
C47   C     C_R   0.900573 0.122843 0.091733 -0.127595
C48   C     C_R   0.053029 0.151086 0.906984 -0.147472
C49   C     C_R   0.701432 0.228111 0.100915 0.123446
C50   C     C_R   0.311139 0.637445 0.000793 0.061480
C51   C     C_R   0.167172 0.302861 0.892790 0.042133
C52   C     C_R   0.201412 0.728101 0.100910 0.123415
C53   C     C_R   0.667149 0.802864 0.892758 0.042044
C54   C     C_3   0.785579 0.248504 0.209732 0.034695
C55   C     C_3   0.166417 0.277196 0.800278 0.062492
C56   C     C_3   0.285566 0.748500 0.209726 0.034751
C57   C     C_3   0.666399 0.777185 0.800224 0.062516
C58   C     C_3   0.341812 0.701149 0.208113 -0.561188
C59   C     C_3   0.600891 0.733973 0.794595 -0.554001
C60   C     C_3   0.841822 0.201151 0.208117 -0.561254
C61   C     C_R   0.611380 0.684415 0.995464 0.059417
C62   C     C_3   0.100914 0.233982 0.794656 -0.554236
C63   C     C_R   0.598755 0.446627 0.619664 0.155614
C64   C     C_R   0.602337 0.447049 0.529837 0.157416
C65   C     C_R   0.098752 0.946626 0.619662 0.155603
C66   C     C_R   0.102334 0.947048 0.529834 0.157417
C67   C     C_R   0.594556 0.496190 0.665256 0.032188
C68   C     C_R   0.600901 0.496955 0.482602 0.027883
C69   C     C_R   0.094556 0.996189 0.665256 0.032186
C70   C     C_R   0.100900 0.996954 0.482601 0.027889
C71   C     C_R   0.618777 0.545057 0.636587 -0.161457
C72   C     C_R   0.811140 0.137443 0.000798 0.061485
C73   C     C_R   0.621421 0.545512 0.544601 -0.168821
C74   C     C_R   0.118780 0.045056 0.636589 -0.161465
C75   C     C_R   0.121423 0.045512 0.544602 -0.168822
C76   C     C_3   0.539303 0.397470 0.479649 -0.493244
C77   C     C_3   0.534752 0.397120 0.577332 -0.483328
C78   C     C_3   0.039298 0.897470 0.479646 -0.493246
C79   C     C_3   0.034747 0.897120 0.577329 -0.483326
C80   C     C_R   0.549524 0.453548 0.302737 -0.152684
C81   C     C_R   0.520941 0.452800 0.753011 -0.105161
C82   C     C_R   0.049523 0.953548 0.302736 -0.152678
C83   C     C_R   0.111383 0.184414 0.995469 0.059418
C84   C     C_R   0.020941 0.952800 0.753011 -0.105168
C85   C     C_R   0.241779 0.543853 0.697311 0.176445
C86   C     C_R   0.769911 0.545030 0.253924 0.184431
C87   C     C_R   0.741768 0.043855 0.697324 0.176496
C88   C     C_R   0.269911 0.045027 0.253908 0.184413
C89   C     C_R   0.548347 0.544859 0.303795 -0.121856
C90   C     C_R   0.518878 0.544911 0.749200 -0.067663
C91   C     C_R   0.048347 0.044859 0.303796 -0.121853
C92   C     C_R   0.018878 0.044911 0.749199 -0.067650
C93   C     C_R   0.242340 0.452406 0.701831 -0.165784
C94   C     C_R   0.564168 0.498832 0.366630 0.082854
C95   C     C_R   0.767586 0.453187 0.244978 -0.123709
C96   C     C_R   0.742327 0.952408 0.701841 -0.165773
C97   C     C_R   0.267582 0.953185 0.244968 -0.123720
C98   C     C_R   0.308994 0.624432 0.908459 -0.108498
C99   C     C_R   0.641751 0.653806 0.088081 -0.060692
C100  C     C_R   0.808994 0.124431 0.908461 -0.108508
C101  C     C_R   0.141751 0.153805 0.088084 -0.060704
C102  C     C_R   0.403437 0.372354 0.091787 -0.091108
C103  C     C_R   0.555371 0.346539 0.908563 -0.108854
C104  C     C_R   0.903437 0.872352 0.091786 -0.091122
H1    H     H_    0.251950 0.371371 0.823141 0.098255
H2    H     H_    0.699827 0.762139 0.161787 0.146082
H3    H     H_    0.628637 0.163921 0.825294 0.144298
H4    H     H_    0.199834 0.262134 0.161784 0.146092
H5    H     H_    0.542502 0.242816 0.824754 0.139856
H6    H     H_    0.291982 0.338460 0.163096 0.132906
H7    H     H_    0.042495 0.742815 0.824744 0.139854
H8    H     H_    0.791984 0.838462 0.163102 0.132889
H9    H     H_    0.812669 0.288992 0.205208 0.148816
H10   H     H_    0.130078 0.303349 0.725615 0.121831
H11   H     H_    0.312646 0.788988 0.205180 0.148828
H12   H     H_    0.676846 0.333333 0.173371 0.129537
H13   H     H_    0.630041 0.803337 0.725532 0.121818
H14   H     H_    0.398739 0.715687 0.200091 0.199516
H15   H     H_    0.526957 0.736588 0.718409 0.200927
H16   H     H_    0.898749 0.215686 0.200100 0.199513
H17   H     H_    0.027000 0.236595 0.718501 0.200966
H18   H     H_    0.365082 0.670285 0.273722 0.227590
H19   H     H_    0.631970 0.691906 0.813585 0.222015
H20   H     H_    0.865089 0.170286 0.273718 0.227600
H21   H     H_    0.131974 0.191924 0.813633 0.222067
H22   H     H_    0.623532 0.583938 0.675263 0.142603
H23   H     H_    0.751953 0.871370 0.823140 0.098258
H24   H     H_    0.627996 0.584709 0.515676 0.143232
H25   H     H_    0.123537 0.083937 0.675268 0.142608
H26   H     H_    0.128000 0.084708 0.515679 0.143230
H27   H     H_    0.468973 0.406393 0.401344 0.206101
H28   H     H_    0.569993 0.360508 0.630517 0.200112
H29   H     H_    0.968968 0.906393 0.401341 0.206103
H30   H     H_    0.069987 0.860507 0.630513 0.200105
H31   H     H_    0.577677 0.361230 0.477127 0.209536
H32   H     H_    0.461663 0.405981 0.553873 0.223709
H33   H     H_    0.077671 0.861230 0.477122 0.209533
H34   H     H_    0.176836 0.833333 0.173368 0.129553
H35   H     H_    0.961659 0.905982 0.553871 0.223715
H36   H     H_    0.426316 0.624276 0.176697 0.115580
H37   H     H_    0.502024 0.663853 0.822896 0.131716
H38   H     H_    0.926318 0.124276 0.176700 0.115578
H39   H     H_    0.002029 0.163854 0.822899 0.131714
H40   H     H_    0.571869 0.411822 0.330596 0.116050
H41   H     H_    0.536041 0.410123 0.749533 0.106949
H42   H     H_    0.071867 0.911821 0.330595 0.116050
H43   H     H_    0.036041 0.910123 0.749534 0.106945
H44   H     H_    0.567090 0.586851 0.333027 0.104141
H45   H     H_    0.959447 0.542504 0.354835 0.177600
H46   H     H_    0.529147 0.587437 0.737882 0.099142
H47   H     H_    0.067091 0.086851 0.333029 0.104137
H48   H     H_    0.029147 0.087436 0.737881 0.099148
H49   H     H_    0.229448 0.410010 0.674265 0.146522
H50   H     H_    0.787577 0.410505 0.254612 0.150770
H51   H     H_    0.729431 0.910013 0.674263 0.146511
H52   H     H_    0.287561 0.910503 0.254599 0.150794
H53   H     H_    0.249378 0.629083 0.824183 0.130274
H54   H     H_    0.668383 0.671447 0.167172 0.129312
H55   H     H_    0.749378 0.129084 0.824186 0.130272
H56   H     H_    0.042856 0.514196 0.529070 0.151634
H57   H     H_    0.168382 0.171445 0.167175 0.129312
H58   H     H_    0.430317 0.365732 0.176609 0.100620
H59   H     H_    0.508233 0.332279 0.824527 0.103252
H60   H     H_    0.930314 0.865730 0.176607 0.100620
H61   H     H_    0.008226 0.832278 0.824526 0.103253
H62   H     H_    0.459429 0.042519 0.354712 0.177642
H63   H     H_    0.542803 0.014153 0.529109 0.151666
H64   H     H_    0.128638 0.663927 0.825281 0.144296
I1    I     I_    0.764131 0.240684 0.337075 -0.365705
I2    I     I_    0.202305 0.430362 0.449398 -0.354688
I3    I     I_    0.447933 0.885131 0.255719 -0.402207
I4    I     I_    0.702347 0.930476 0.449392 -0.354660
I5    I     I_    0.298906 0.240132 0.845312 -0.401273
I6    I     I_    0.264138 0.740684 0.337094 -0.365683
I7    I     I_    0.798934 0.740106 0.845294 -0.401237
I8    I     I_    0.227756 0.619943 0.620775 -0.380281
I9    I     I_    0.827337 0.620097 0.342723 -0.438727
I10   I     I_    0.727738 0.119943 0.620772 -0.380233
I11   I     I_    0.327354 0.120094 0.342716 -0.438720
I12   I     I_    0.947847 0.385237 0.255482 -0.402122
N1    N     N_R   0.395410 0.396350 0.944340 -0.041501
N2    N     N_R   0.474920 0.471030 0.794350 -0.040434
N3    N     N_R   0.025080 0.971030 0.205650 -0.043410
N4    N     N_R   0.974920 0.971030 0.794350 -0.040430
N5    N     N_R   0.320260 0.527820 0.794570 -0.074021
N6    N     N_R   0.679740 0.527820 0.205430 -0.068137
N7    N     N_R   0.820260 0.027820 0.794570 -0.074024
N8    N     N_R   0.179740 0.027820 0.205430 -0.068131
N9    N     N_R   0.524590 0.527840 0.205200 -0.043909
N10   N     N_R   0.475410 0.527840 0.794800 -0.039913
N11   N     N_R   0.024590 0.027840 0.205200 -0.043909
N12   N     N_R   0.604590 0.396350 0.055660 -0.042619
N13   N     N_R   0.975410 0.027840 0.794800 -0.039911
N14   N     N_R   0.320750 0.471000 0.795020 -0.063065
N15   N     N_R   0.679250 0.471000 0.204980 -0.063409
N16   N     N_R   0.820750 0.971000 0.795020 -0.063060
N17   N     N_R   0.179250 0.971000 0.204980 -0.063411
N18   N     N_R   0.393620 0.602490 0.942710 -0.041253
N19   N     N_R   0.606380 0.602490 0.057290 -0.047884
N20   N     N_R   0.893620 0.102490 0.942710 -0.041254
N21   N     N_R   0.106380 0.102490 0.057290 -0.047887
N22   N     N_R   0.451720 0.396350 0.057510 -0.044616
N23   N     N_R   0.895410 0.896350 0.944340 -0.041503
N24   N     N_R   0.548280 0.396350 0.942490 -0.044686
N25   N     N_R   0.951720 0.896350 0.057510 -0.044613
N26   N     N_R   0.048280 0.896350 0.942490 -0.044689
N27   N     N_R   0.104590 0.896350 0.055660 -0.042626
N28   N     N_R   0.449930 0.602500 0.055880 -0.047250
N29   N     N_R   0.550070 0.602500 0.944120 -0.045439
N30   N     N_R   0.949930 0.102500 0.055880 -0.047249
N31   N     N_R   0.050070 0.102500 0.944120 -0.045440
N32   N     N_R   0.525080 0.471030 0.205650 -0.043411
Ni1   Ni    Ni4+2 0.435420 0.434270 0.870230 0.238063
Ni2   Ni    Ni4+2 0.564580 0.434270 0.129770 0.226858
Ni3   Ni    Ni4+2 0.935420 0.934270 0.870230 0.238057
Ni4   Ni    Ni4+2 0.064580 0.934270 0.129770 0.226852
Ni5   Ni    Ni4+2 0.563430 0.564580 0.128740 0.230687
Ni6   Ni    Ni4+2 0.436570 0.564580 0.871260 0.247710
Ni7   Ni    Ni4+2 0.063430 0.064580 0.128740 0.230681
Ni8   Ni    Ni4+2 0.936570 0.064580 0.871260 0.247713

loop_
_geom_bond_atom_site_label_1
_geom_bond_atom_site_label_2
_ccdc_geom_bond_type
N26   Ni3   S    
C47   N30   A    
C23   C58   S    
C79   H35   S    
C5    C103  A    
C10   C85   A    
C16   C21   D    
C65   C79   S    
C29   C33   A    
N7    N16   A    
N13   Ni8   S    
C99   N19   A    
C93   N14   A    
N19   Ni5   S    
N5    N14   A    
C90   H46   S    
N14   Ni1   S    
C1    N1    A    
N20   N30   A    
N3    N11   A    
C40   H8    S    
C54   C60   S    
N31   Ni8   S    
N23   N25   A    
C47   H38   S    
C11   C19   S    
C8    C82   A    
N29   Ni6   S    
C64   C68   A    
C7    C39   A    
N23   Ni3   S    
C35   C37   A    
C9    C69   S    
C89   H44   S    
C3    C7    A    
C32   C38   A    
C72   C100  A    
C76   H27   S    
C43   C52   A    
C57   C59   S    
C96   H51   S    
C5    C17   A    
C11   C86   A    
C49   C54   S    
C54   H9    S    
C12   C22   S    
C58   H14   S    
C85   I8    S    
C31   C83   S    
C60   H20   S    
C97   H52   S    
N12   Ni2   S    
C89   C94   A    
C2    C90   A    
C103  N24   A    
C55   I5    S    
N15   Ni2   S    
C35   H4    S    
C57   I7    S    
C44   C53   A    
C6    C28   A    
C23   C27   A    
N1    N22   A    
N25   Ni4   S    
C10   C20   S    
C80   H40   S    
C4    C102  A    
C92   H48   S    
N2    Ni1   S    
C95   N15   A    
C98   H53   S    
C71   H22   S    
C16   I3    S    
N18   Ni6   S    
C25   C60   S    
C7    C43   S    
C34   C36   A    
C27   C50   S    
C42   C51   A    
C80   N32   A    
C64   C76   S    
C63   C77   S    
C26   C62   S    
C39   H34   S    
C26   C31   A    
C6    C44   S    
C59   H19   S    
C28   N23   A    
C54   I1    S    
C36   C41   A    
C61   C99   A    
C81   N2    A    
N10   Ni6   S    
C9    C92   A    
C41   C49   A    
C82   H42   S    
C76   H31   S    
N9    Ni5   S    
C37   C42   A    
C46   H37   S    
C29   C61   S    
N7    Ni8   S    
C17   N12   A    
C85   N5    A    
C15   C20   D    
C66   C78   S    
N6    Ni5   S    
C63   C67   A    
C50   C98   A    
C33   C40   A    
C58   H18   S    
C74   C75   A    
C98   N18   A    
C46   C61   A    
N18   N28   A    
C97   N17   A    
N6    N15   A    
C84   N4    A    
C76   C77   S    
N21   Ni7   S    
N8    N17   A    
C2    C67   S    
N5    Ni6   S    
N11   Ni7   S    
C71   C73   A    
N16   Ni3   S    
C30   C34   A    
N26   N27   A    
C25   C30   A    
N4    Ni3   S    
C87   N7    A    
C10   C93   A    
C68   C73   A    
C91   N11   A    
C82   N3    A    
C45   H36   S    
C68   C94   S    
C21   H62   S    
C15   I2    S    
C39   N27   A    
N19   N29   A    
C77   H28   S    
C96   N16   A    
C48   N31   A    
C88   N8    A    
C102  H58   S    
N12   N24   A    
C13   C21   S    
C69   C74   A    
C8    C91   A    
C104  N25   A    
N22   Ni2   S    
C24   C29   A    
C92   N13   A    
C37   H6    S    
N17   Ni4   S    
C22   H63   S    
C100  N20   A    
C77   H32   S    
N32   Ni2   S    
C86   N6    A    
C45   N28   A    
C81   H41   S    
C32   H64   S    
C75   H26   S    
N20   Ni8   S    
C31   C35   A    
C74   H25   S    
C34   H3    S    
C80   C94   A    
C73   H24   S    
C78   H33   S    
C36   H5    S    
C3    H61   S    
C88   I11   S    
C57   H13   S    
C90   N10   A    
N8    Ni7   S    
C11   C95   A    
N28   Ni5   S    
C79   H30   S    
C5    C41   S    
C59   H15   S    
C83   C101  A    
C12   C87   A    
C27   C32   A    
C18   C22   D    
C3    N26   A    
C8    C70   S    
C14   C19   D    
C33   H2    S    
N9    N32   A    
C53   C57   S    
C104  H60   S    
C62   H21   S    
C30   C72   S    
C28   H23   S    
C55   H10   S    
C18   I4    S    
C84   H43   S    
C46   N29   A    
C67   C71   A    
C103  H59   S    
C6    C104  A    
C48   C83   A    
C95   H50   S    
C1    C4    A    
C101  H57   S    
C24   C53   A    
C38   C43   A    
C101  N21   A    
C26   C51   A    
N3    Ni4   S    
C87   I10   S    
C91   H47   S    
C78   C79   S    
C100  H55   S    
C23   C52   A    
C66   C70   A    
C4    C42   S    
C45   C50   A    
C24   C59   S    
C65   C69   A    
N24   Ni1   S    
C13   C88   A    
C93   H49   S    
N27   Ni4   S    
C19   H45   S    
C56   H11   S    
C56   C58   S    
C60   H16   S    
C51   C55   S    
C86   I9    S    
C102  N22   A    
C78   H29   S    
C25   C49   A    
C47   C72   A    
N30   Ni7   S    
C9    C84   A    
C63   C64   A    
C52   C56   S    
C40   C44   A    
C13   C97   A    
C55   C62   S    
C48   H39   S    
C16   C18   S    
C65   C66   A    
C20   H56   S    
C99   H54   S    
C56   I6    S    
C70   C75   A    
C89   N9    A    
C14   C15   S    
C12   C96   A    
C2    C81   A    
N1    Ni1   S    
N2    N10   A    
C38   H7    S    
N21   N31   A    
C62   H17   S    
C14   I12   S    
N4    N13   A    
C17   H12   S    
C1    H1    S    
