data_mof_unit_8183.cif
_audit_creation_date              2012-12-10T19:49:22-0500
_audit_creation_method            fapswitch 2.2
_symmetry_space_group_name_H-M    P1
_symmetry_Int_Tables_number       1
_space_group_crystal_system       triclinic
_cell_length_a                    14.876026
_cell_length_b                    14.193025
_cell_length_c                    14.798573
_cell_angle_alpha                 90.3514
_cell_angle_beta                  90.268907
_cell_angle_gamma                 89.902874
_cell_volume                      3124.41116796

loop_
_atom_site_label
_atom_site_type_symbol
_atom_type_description
_atom_site_fract_x
_atom_site_fract_y
_atom_site_fract_z
_atom_type_partial_charge
C1    C     C_R   0.327645 0.500105 0.498708 0.934452
C2    C     C_R   0.672364 0.499935 0.497460 0.943048
C3    C     C_R   0.331313 0.511744 0.044060 0.380721
C4    C     C_R   0.660767 0.555613 0.957276 0.393008
C5    C     C_R   0.090143 0.577750 0.510384 0.647474
C6    C     C_R   0.910096 0.421572 0.500824 0.630034
C7    C     C_R   0.900936 0.575902 0.429961 0.649642
C8    C     C_R   0.098902 0.431264 0.423886 0.633094
C9    C     C_R   0.182135 0.576046 0.522720 -0.296837
C10   C     C_R   0.817994 0.421092 0.510773 -0.353517
C11   C     C_R   0.809013 0.576349 0.442662 -0.288748
C12   C     C_R   0.190585 0.428543 0.438489 -0.311969
C13   C     C_R   0.231896 0.500710 0.488053 -0.206187
C14   C     C_R   0.767941 0.499626 0.484611 -0.212715
C15   C     C_R   0.048419 0.504747 0.461702 -0.095033
C16   C     C_R   0.951684 0.499387 0.460894 -0.087282
C17   C     C_R   0.538702 0.104427 0.427629 0.424415
C18   C     C_R   0.561315 0.896958 0.552006 0.434044
C19   C     C_R   0.461284 0.104301 0.569882 0.422163
C20   C     C_R   0.440004 0.896061 0.445150 0.443789
C21   C     C_R   0.540930 0.204299 0.430816 0.337112
C22   C     C_R   0.555120 0.797716 0.557962 0.369795
C23   C     C_R   0.457681 0.204107 0.567404 0.352231
C24   C     C_R   0.444275 0.796267 0.441834 0.363527
C25   C     C_R   0.500678 0.053422 0.498702 -0.048963
C26   C     C_R   0.501061 0.947462 0.498064 -0.079943
C27   C     C_R   0.498918 0.499709 0.326953 0.904561
C28   C     C_R   0.501683 0.500268 0.673132 0.912756
C29   C     C_R   0.583382 0.513326 0.815454 0.419767
C30   C     C_R   0.416994 0.488929 0.184835 0.420463
C31   C     C_R   0.502179 0.502227 0.768937 -0.184331
C32   C     C_R   0.498054 0.500694 0.231349 -0.182598
C33   C     C_R   0.419926 0.504203 0.812024 -0.268267
C34   C     C_R   0.576439 0.527298 0.188766 -0.299422
C35   C     C_R   0.416295 0.515844 0.904863 -0.007491
C36   C     C_R   0.576707 0.541509 0.096325 -0.000832
C37   C     C_R   0.497422 0.529506 0.953502 -0.107525
C38   C     C_R   0.495428 0.530169 0.047594 -0.096926
C39   C     C_R   0.581425 0.533662 0.908312 -0.125620
C40   C     C_R   0.413419 0.511529 0.092881 -0.139737
C41   C     C_R   0.333077 0.512356 0.949696 0.372962
C42   C     C_R   0.657463 0.562993 0.051614 0.358345
H1    H     H_    0.359031 0.496061 0.772300 0.167750
H2    H     H_    0.637534 0.534066 0.228520 0.174302
H3    H     H_    0.214180 0.632086 0.561041 0.195990
H4    H     H_    0.786166 0.360914 0.541667 0.193580
H5    H     H_    0.770104 0.636263 0.419617 0.194287
H6    H     H_    0.229255 0.370607 0.410852 0.182774
N1    N     N_R   0.500000 0.252470 0.500000 -0.217048
N2    N     N_R   0.500000 0.747530 0.500000 -0.232570
O1    O     O_R   0.369060 0.579480 0.500010 -0.575574
O2    O     O_R   0.630940 0.420520 0.499990 -0.631291
O3    O     O_R   0.630940 0.579480 0.499990 -0.578219
O4    O     O_R   0.369060 0.420520 0.500010 -0.632641
O5    O     O_R   0.499980 0.579490 0.367850 -0.634154
O6    O     O_R   0.500020 0.420510 0.632150 -0.571011
O7    O     O_R   0.500020 0.579490 0.632150 -0.625793
O8    O     O_R   0.499980 0.420510 0.367850 -0.574797
Zn1   Zn    Zn3+2 0.500000 0.606140 0.500000 1.002318
Zn2   Zn    Zn3+2 0.500000 0.393860 0.500000 0.991062
O9    O     O_3   0.663824 0.507576 0.768991 -0.640184
C43   C     C_3   0.692155 0.412330 0.766136 0.137477
H7    H     H_    0.658326 0.375865 0.708647 0.154374
H8    H     H_    0.676860 0.373722 0.829840 0.145133
C44   C     C_3   0.793894 0.408719 0.752262 -0.348783
H9    H     H_    0.812154 0.451322 0.692534 0.233995
H10   H     H_    0.828457 0.439585 0.812077 0.258416
C45   C     C_3   0.827086 0.307727 0.739469 -0.877369
H11   H     H_    0.814016 0.266019 0.801287 0.263154
H12   H     H_    0.900581 0.308047 0.726644 0.294121
H13   H     H_    0.792689 0.273652 0.681139 0.268475
O10   O     O_3   0.341459 0.457019 0.229754 -0.645165
C46   C     C_3   0.344930 0.357607 0.238163 0.114002
H14   H     H_    0.358029 0.340478 0.310126 0.177300
H15   H     H_    0.398446 0.322692 0.196898 0.142290
C47   C     C_3   0.254233 0.315712 0.210385 -0.331350
H16   H     H_    0.199055 0.354605 0.244590 0.264588
H17   H     H_    0.245025 0.323058 0.136222 0.258324
C48   C     C_3   0.248397 0.211643 0.234986 -0.863811
H18   H     H_    0.302526 0.171090 0.200811 0.268200
H19   H     H_    0.182350 0.183108 0.212913 0.281544
H20   H     H_    0.254770 0.202749 0.309289 0.271401
O11   O     O_3   0.254363 0.494881 0.902146 -0.611518
C49   C     C_3   0.217490 0.580994 0.872020 0.070382
H21   H     H_    0.268975 0.627090 0.840190 0.120739
H22   H     H_    0.186589 0.619225 0.929690 0.152151
C50   C     C_3   0.144265 0.559987 0.802032 -0.350796
H23   H     H_    0.174923 0.525535 0.741939 0.218832
H24   H     H_    0.094180 0.510995 0.831419 0.240637
C51   C     C_3   0.096222 0.649707 0.772372 -0.887212
H25   H     H_    0.067012 0.686770 0.831692 0.253900
H26   H     H_    0.040819 0.631272 0.725052 0.304859
H27   H     H_    0.143837 0.697380 0.737587 0.278843
O12   O     O_3   0.736686 0.577059 0.099320 -0.619891
C52   C     C_3   0.737730 0.669848 0.134938 0.022376
H28   H     H_    0.683364 0.680635 0.185299 0.146201
H29   H     H_    0.728745 0.723010 0.080577 0.117700
C53   C     C_3   0.828136 0.686577 0.181661 -0.323809
H30   H     H_    0.838585 0.632199 0.234418 0.252984
H31   H     H_    0.883066 0.679916 0.131334 0.220043
C54   C     C_3   0.832337 0.784013 0.225571 -0.846099
H32   H     H_    0.822418 0.839582 0.173924 0.250433
H33   H     H_    0.899170 0.794186 0.257855 0.300023
H34   H     H_    0.779748 0.790968 0.278267 0.269498
O13   O     O_3   0.248914 0.503303 0.086391 -0.589650
C55   C     C_3   0.225219 0.590794 0.126061 0.122472
H35   H     H_    0.224701 0.648117 0.075118 0.089727
H36   H     H_    0.273030 0.610688 0.180819 0.168376
C56   C     C_3   0.131483 0.582570 0.166911 -0.319162
H37   H     H_    0.082152 0.565593 0.112567 0.225113
H38   H     H_    0.130950 0.524513 0.217020 0.249519
C57   C     C_3   0.103402 0.673922 0.213818 -0.893379
H39   H     H_    0.149853 0.690150 0.270820 0.288959
H40   H     H_    0.034411 0.666115 0.240832 0.306653
H41   H     H_    0.103680 0.733252 0.165215 0.251785
O14   O     O_3   0.743276 0.558467 0.914230 -0.594253
C58   C     C_3   0.773263 0.652475 0.905441 0.121749
H42   H     H_    0.819750 0.668862 0.962262 0.165869
H43   H     H_    0.717536 0.705126 0.904961 0.101250
C59   C     C_3   0.825467 0.661923 0.817180 -0.322068
H44   H     H_    0.880010 0.608352 0.814970 0.222118
H45   H     H_    0.779503 0.649439 0.758945 0.272515
C60   C     C_3   0.867074 0.759620 0.808460 -0.912682
H46   H     H_    0.814063 0.814715 0.809806 0.269402
H47   H     H_    0.903670 0.764324 0.743423 0.300579
H48   H     H_    0.915316 0.772745 0.864635 0.251830
F1    F     F_    0.041530 0.648182 0.549028 -0.638481
F2    F     F_    0.958846 0.348410 0.533969 -0.647888
F3    F     F_    0.940777 0.650997 0.390447 -0.655160
F4    F     F_    0.059002 0.361408 0.375139 -0.647071
F5    F     F_    0.572612 0.057464 0.355175 -0.647475
F6    F     F_    0.625472 0.943954 0.599683 -0.632805
F7    F     F_    0.425183 0.057364 0.640648 -0.643843
F8    F     F_    0.374936 0.942664 0.398880 -0.639060
O15   O     O_3   0.575669 0.254301 0.359251 -0.582531
C61   C     C_3   0.670296 0.246154 0.358176 0.167838
H49   H     H_    0.690385 0.175356 0.332793 0.198120
H50   H     H_    0.699981 0.257620 0.426723 0.126158
C62   C     C_3   0.707972 0.320625 0.294417 -0.367347
H51   H     H_    0.674398 0.314485 0.227358 0.244368
H52   H     H_    0.693635 0.391930 0.322151 0.221038
C63   C     C_3   0.809208 0.309550 0.281930 -0.854589
H53   H     H_    0.844384 0.312183 0.348143 0.291251
H54   H     H_    0.834753 0.367614 0.239188 0.276965
H55   H     H_    0.824437 0.241303 0.248170 0.269442
O16   O     O_3   0.606942 0.751874 0.621822 -0.562875
C64   C     C_3   0.560345 0.750222 0.705474 0.146142
H56   H     H_    0.583485 0.686578 0.741618 0.187177
H57   H     H_    0.485880 0.743981 0.697281 0.121763
C65   C     C_3   0.582409 0.834745 0.766580 -0.327586
H58   H     H_    0.656421 0.843063 0.772101 0.251760
H59   H     H_    0.552906 0.899947 0.738115 0.286796
C66   C     C_3   0.542790 0.821796 0.860823 -0.987836
H60   H     H_    0.468244 0.819063 0.856793 0.277078
H61   H     H_    0.562489 0.882031 0.904809 0.284335
H62   H     H_    0.567546 0.755693 0.892000 0.247931
O17   O     O_3   0.413735 0.253774 0.634608 -0.569901
C67   C     C_3   0.319854 0.243910 0.622304 0.161205
H63   H     H_    0.298212 0.171677 0.641056 0.192440
H64   H     H_    0.299556 0.257576 0.550852 0.127618
C68   C     C_3   0.271147 0.314531 0.683341 -0.355966
H65   H     H_    0.290827 0.302331 0.754886 0.253113
H66   H     H_    0.291071 0.387239 0.664936 0.214714
C69   C     C_3   0.169265 0.305397 0.674097 -0.868836
H67   H     H_    0.147793 0.320409 0.603678 0.295030
H68   H     H_    0.135790 0.356457 0.720031 0.263630
H69   H     H_    0.147496 0.233234 0.692520 0.275162
O18   O     O_3   0.386054 0.748144 0.384849 -0.568175
C70   C     C_3   0.421950 0.743701 0.296072 0.159526
H70   H     H_    0.403537 0.673829 0.267906 0.167908
H71   H     H_    0.496910 0.748467 0.293908 0.110853
C71   C     C_3   0.380105 0.817315 0.233238 -0.324253
H72   H     H_    0.305743 0.816685 0.240280 0.250583
H73   H     H_    0.405767 0.888363 0.250736 0.286168
C72   C     C_3   0.404635 0.797479 0.134720 -1.004350
H74   H     H_    0.478772 0.799171 0.126061 0.274716
H75   H     H_    0.374010 0.852002 0.090713 0.284361
H76   H     H_    0.379265 0.727432 0.112905 0.245286

loop_
_geom_bond_atom_site_label_1
_geom_bond_atom_site_label_2
_ccdc_geom_bond_type
C67   H64   S    
C50   H23   S    
C9    H3    S    
O17   C67   S    
O5    Zn1   S    
C17   F5    S    
C70   H71   S    
C70   H70   S    
C18   F6    S    
C52   H28   S    
C18   C26   A    
C47   C48   S    
C64   H56   S    
C12   H6    S    
C21   N1    A    
C68   H65   S    
C28   O6    A    
C52   C53   S    
C60   H46   S    
C72   H75   S    
O4    Zn2   S    
C28   O7    A    
C3    O13   S    
C7    C11   A    
C69   H68   S    
C54   H32   S    
N1    Zn2   S    
C4    C42   A    
N2    Zn1   S    
C69   H67   S    
C24   O18   S    
C47   H17   S    
C58   H43   S    
C62   C63   S    
C27   O5    A    
C60   H47   S    
C55   H35   S    
O8    Zn2   S    
C15   C16   S    
C41   O11   S    
O14   C58   S    
C46   H14   S    
C9    C13   A    
C43   H8    S    
O2    Zn2   S    
C67   C68   S    
C11   H5    S    
C20   C24   A    
C59   H45   S    
C45   H11   S    
C44   H10   S    
C65   C66   S    
C10   H4    S    
C49   C50   S    
C66   H61   S    
C59   C60   S    
C22   N2    A    
C54   H33   S    
C38   C40   A    
C42   O12   S    
C24   N2    A    
C46   H15   S    
C63   H55   S    
C5    F1    S    
O9    C43   S    
C61   C62   S    
C2    C14   S    
C57   H40   S    
C57   H39   S    
C68   H66   S    
C71   H73   S    
C72   H76   S    
C28   C31   S    
O3    Zn1   S    
C37   C39   A    
C29   O9    S    
C5    C15   A    
C33   H1    S    
C22   O16   S    
O15   C61   S    
C64   C65   S    
C34   H2    S    
C47   H16   S    
C61   H50   S    
C10   C14   A    
C56   C57   S    
C11   C14   A    
C48   H19   S    
C61   H49   S    
C60   H48   S    
C25   C26   S    
C27   O8    A    
C17   C21   A    
O6    Zn2   S    
C32   C34   A    
C1    C13   S    
C19   C23   A    
C1    O4    A    
C5    C9    A    
C37   C38   A    
C51   H26   S    
O11   C49   S    
C4    C39   A    
C8    C12   A    
C44   C45   S    
C29   C39   A    
C43   H7    S    
C31   C33   A    
C30   C40   A    
C49   H21   S    
C66   H62   S    
C1    O1    A    
C35   C41   A    
C2    O2    A    
C19   F7    S    
O18   C70   S    
C3    C40   A    
C44   H9    S    
C8    C15   A    
C53   H31   S    
C50   H24   S    
C8    F4    S    
C67   H63   S    
C46   C47   S    
C65   H59   S    
C58   C59   S    
O1    Zn1   S    
C68   C69   S    
C71   H72   S    
C35   C37   A    
C51   H27   S    
O16   C64   S    
C52   H29   S    
C3    C41   A    
C43   C44   S    
C64   H57   S    
C27   C32   S    
C18   C22   A    
C4    O14   S    
C69   H69   S    
C7    C16   A    
C49   H22   S    
O10   C46   S    
C20   C26   A    
C2    O3    A    
C36   C42   A    
C6    C10   A    
C48   H20   S    
C30   O10   S    
C62   H51   S    
C71   C72   S    
C54   H34   S    
C53   C54   S    
O13   C55   S    
C65   H58   S    
C17   C25   A    
C56   H38   S    
C6    F2    S    
C29   C31   A    
C72   H74   S    
C58   H42   S    
C30   C32   A    
C62   H52   S    
C51   H25   S    
C55   H36   S    
C45   H13   S    
C23   O17   S    
C36   C38   A    
C33   C35   A    
C34   C36   A    
O12   C52   S    
C19   C25   A    
C7    F3    S    
O7    Zn1   S    
C6    C16   A    
C48   H18   S    
C23   N1    A    
C12   C13   A    
C45   H12   S    
C53   H30   S    
C50   C51   S    
C63   H53   S    
C59   H44   S    
C70   C71   S    
C20   F8    S    
C66   H60   S    
C56   H37   S    
C21   O15   S    
C57   H41   S    
C63   H54   S    
C55   C56   S    
