data_mof_unit_60332.cif
_audit_creation_date              2012-12-11T17:30:36-0500
_audit_creation_method            fapswitch 2.2
_symmetry_space_group_name_H-M    P1
_symmetry_Int_Tables_number       1
_space_group_crystal_system       triclinic
_cell_length_a                    26.262114
_cell_length_b                    7.258234
_cell_length_c                    23.864323
_cell_angle_alpha                 90.001342
_cell_angle_beta                  101.005681
_cell_angle_gamma                 89.998131
_cell_volume                      4465.27252386

loop_
_atom_site_label
_atom_site_type_symbol
_atom_type_description
_atom_site_fract_x
_atom_site_fract_y
_atom_site_fract_z
_atom_type_partial_charge
O1    O     O_R   0.192950 0.385540 0.693930 -0.545649
O2    O     O_R   0.807050 0.614460 0.306070 -0.545648
O3    O     O_R   0.307050 0.885540 0.806070 -0.545639
O4    O     O_R   0.692950 0.114460 0.193930 -0.545637
O5    O     O_R   0.296670 0.712560 0.696510 -0.509272
O6    O     O_R   0.703330 0.287440 0.303490 -0.509265
O7    O     O_R   0.203330 0.212560 0.803490 -0.509376
O8    O     O_R   0.796670 0.787440 0.196510 -0.509370
C1    C     C_R   0.313247 0.546500 0.685119 0.853655
C2    C     C_R   0.686753 0.453500 0.314880 0.853643
C3    C     C_R   0.186757 0.046509 0.814864 0.853924
C4    C     C_R   0.813243 0.953491 0.185135 0.853912
O9    O     O_R   0.192700 0.715080 0.687210 -0.522299
O10   O     O_R   0.807300 0.284920 0.312790 -0.522303
O11   O     O_R   0.307300 0.215080 0.812790 -0.522320
O12   O     O_R   0.692700 0.784920 0.187210 -0.522323
O13   O     O_R   0.202340 0.888100 0.796700 -0.521105
O14   O     O_R   0.797660 0.111900 0.203300 -0.521101
O15   O     O_R   0.297660 0.388100 0.703300 -0.521056
O16   O     O_R   0.702340 0.611900 0.296700 -0.521052
C5    C     C_R   0.174454 0.546682 0.672104 0.730135
C6    C     C_R   0.825546 0.453318 0.327896 0.730133
C7    C     C_R   0.325545 0.046680 0.827896 0.730228
C8    C     C_R   0.674454 0.953320 0.172104 0.730226
O17   O     O_3   0.253290 0.552920 0.785930 -0.373103
O18   O     O_3   0.746710 0.447080 0.214070 -0.373099
O19   O     O_3   0.246710 0.052920 0.714070 -0.373006
O20   O     O_3   0.753290 0.947080 0.285930 -0.373002
V1    V     V_3+5 0.249390 0.826720 0.743330 1.666264
V2    V     V_3+5 0.750610 0.173280 0.256670 1.666274
V3    V     V_3+5 0.250610 0.326720 0.756670 1.666187
V4    V     V_3+5 0.749390 0.673280 0.243330 1.666197
H1    H     H_    0.473636 0.738785 0.933737 0.206442
H2    H     H_    0.526364 0.261215 0.066263 0.206440
H3    H     H_    0.026366 0.238796 0.566265 0.206490
H4    H     H_    0.973634 0.761203 0.433734 0.206488
C9    C     C_R   0.529452 0.837292 0.005704 0.445709
C10   C     C_R   0.470548 0.162708 0.994296 0.445711
C11   C     C_R   0.970549 0.337296 0.494297 0.445728
C12   C     C_R   0.029451 0.662704 0.505703 0.445730
C13   C     C_R   0.544862 0.984759 0.043574 -0.049415
C14   C     C_R   0.455138 0.015241 0.956426 -0.049416
C15   C     C_R   0.955139 0.484756 0.456425 -0.049447
C16   C     C_R   0.044861 0.515243 0.543575 -0.049448
C17   C     C_R   0.515048 0.146727 0.037427 -0.173438
C18   C     C_R   0.484952 0.853273 0.962573 -0.173435
C19   C     C_R   0.984952 0.646720 0.462572 -0.173303
C20   C     C_R   0.015048 0.353280 0.537429 -0.173300
C21   C     C_1   0.590847 0.972174 0.088751 0.125363
C22   C     C_1   0.409152 0.027826 0.911249 0.125368
C23   C     C_1   0.909153 0.472169 0.411249 0.125449
C24   C     C_1   0.090847 0.527831 0.588751 0.125454
C25   C     C_1   0.370938 0.037333 0.873433 -0.074233
C26   C     C_1   0.629062 0.962667 0.126567 -0.074244
C27   C     C_1   0.129062 0.537338 0.626567 -0.074097
C28   C     C_1   0.870938 0.462662 0.373433 -0.074108
C29   C     C_R   0.891712 0.100626 0.155298 0.264472
C30   C     C_R   0.108284 0.899389 0.844697 0.264464
C31   C     C_R   0.608495 0.601481 0.345042 0.264560
C32   C     C_R   0.391508 0.398536 0.654963 0.264551
C33   C     C_R   0.927737 0.108941 0.118792 0.615502
C34   C     C_R   0.072259 0.891073 0.881202 0.615495
C35   C     C_R   0.572500 0.609785 0.381594 0.615501
C36   C     C_R   0.427503 0.390231 0.618411 0.615494
C37   C     C_R   0.926255 0.980705 0.074085 -0.398452
C38   C     C_R   0.073746 0.019291 0.925915 -0.398445
C39   C     C_R   0.573820 0.480860 0.426056 -0.397298
C40   C     C_R   0.426179 0.519137 0.573943 -0.397288
C41   C     C_R   0.887590 0.843123 0.066999 0.575368
C42   C     C_R   0.112415 0.156858 0.933006 0.575362
C43   C     C_R   0.612160 0.342243 0.432798 0.575752
C44   C     C_R   0.387833 0.657737 0.567195 0.575744
C45   C     C_R   0.851385 0.834858 0.103144 0.542202
C46   C     C_R   0.148620 0.165126 0.896861 0.542191
C47   C     C_R   0.648361 0.333973 0.396634 0.541966
C48   C     C_R   0.351633 0.666010 0.603360 0.541956
C49   C     C_R   0.852545 0.963646 0.147530 -0.438997
C50   C     C_R   0.147456 0.036354 0.852470 -0.438988
C51   C     C_R   0.647447 0.463664 0.352520 -0.439117
C52   C     C_R   0.352552 0.536336 0.647480 -0.439108
N1    N     N_R   0.956585 0.899825 0.984632 -0.157286
N2    N     N_R   0.043416 0.100168 0.015368 -0.157281
N3    N     N_R   0.526220 0.342908 0.496377 -0.152202
N4    N     N_R   0.473777 0.657089 0.503621 -0.152208
N5    N     N_R   0.990899 0.909161 0.950128 -0.154920
N6    N     N_R   0.009101 0.090833 0.049872 -0.154924
N7    N     N_R   0.491766 0.351906 0.530731 -0.149771
N8    N     N_R   0.508232 0.648090 0.469268 -0.149762
C53   C     C_R   0.035166 0.009545 0.964618 0.643329
C54   C     C_R   0.964835 0.990449 0.035383 0.643339
C55   C     C_R   0.464697 0.509178 0.535213 0.636242
C56   C     C_R   0.535300 0.490818 0.464786 0.636238
Cl1   Cl    Cl    0.565132 0.630590 0.011152 -0.557601
Cl2   Cl    Cl    0.434868 0.369410 0.988848 -0.557597
Cl3   Cl    Cl    0.934870 0.130599 0.488851 -0.557562
Cl4   Cl    Cl    0.065130 0.869401 0.511149 -0.557558
Cl5   Cl    Cl    0.899133 0.260479 0.212110 -0.506383
Cl6   Cl    Cl    0.100858 0.739562 0.787878 -0.506394
Cl7   Cl    Cl    0.601070 0.761580 0.288299 -0.506335
Cl8   Cl    Cl    0.398939 0.238462 0.711713 -0.506348
F1    F     F_    0.964029 0.244636 0.127148 -0.551639
F2    F     F_    0.035962 0.755394 0.872841 -0.551643
F3    F     F_    0.535266 0.742181 0.372337 -0.551879
F4    F     F_    0.464742 0.257854 0.627674 -0.551886
F5    F     F_    0.884827 0.714038 0.025358 -0.548753
F6    F     F_    0.115183 0.285925 0.974654 -0.548757
F7    F     F_    0.615638 0.215847 0.475294 -0.548438
F8    F     F_    0.384350 0.784112 0.524693 -0.548443
F9    F     F_    0.814396 0.701717 0.093819 -0.588523
F10   F     F_    0.185613 0.298251 0.906190 -0.588530
F11   F     F_    0.685293 0.200622 0.405896 -0.588523
F12   F     F_    0.314696 0.799343 0.594093 -0.588531

loop_
_geom_bond_atom_site_label_1
_geom_bond_atom_site_label_2
_ccdc_geom_bond_type
C30   C34   A    
C12   C19   A    
N3    N7    A    
O1    C5    A    
C43   F7    S    
O19   V1    S    
O13   V1    S    
O3    C7    A    
C30   Cl6   S    
C44   C48   A    
O15   V3    S    
O7    C3    A    
N3    C56   A    
N2    C53   A    
C36   C40   A    
O9    V1    S    
O10   V2    S    
C10   C14   A    
N7    C55   A    
O4    C8    A    
C8    C26   S    
C21   C26   T    
O1    V3    S    
C40   C55   S    
C31   Cl7   S    
H4    C19   S    
O2    V4    S    
C23   C28   T    
C14   C18   A    
O3    V1    S    
C45   C49   A    
C42   C46   A    
C10   C17   A    
C1    O15   A    
C32   C52   A    
N8    C56   A    
C2    O16   A    
O2    C6    A    
C41   C45   A    
O14   V2    S    
N4    C55   A    
C24   C27   T    
C48   F12   S    
C16   C24   S    
O11   C7    A    
O12   C8    A    
C9    C13   A    
H1    C18   S    
C12   Cl4   S    
H3    C20   S    
C13   C21   S    
C7    C25   S    
C38   C53   S    
O5    V1    S    
C37   C54   S    
C35   C39   A    
C22   C25   T    
O7    V3    S    
C34   C38   A    
O9    C5    A    
O8    V4    S    
C29   C49   A    
C35   F3    S    
N6    C54   A    
C31   C51   A    
C5    C27   S    
C41   F5    S    
O18   V4    S    
C6    C28   S    
N2    N6    A    
O11   V3    S    
C40   C44   A    
C1    C52   S    
N4    N8    A    
C33   F1    S    
O5    C1    A    
C3    C50   S    
O8    C4    A    
C29   Cl5   S    
C4    C49   S    
C10   Cl2   S    
C9    Cl1   S    
H2    C17   S    
C29   C33   A    
C11   Cl3   S    
C14   C22   S    
N1    C54   A    
O6    V2    S    
C42   F6    S    
O16   V4    S    
C36   F4    S    
C3    O13   A    
N5    C53   A    
C47   F11   S    
O17   V3    S    
C48   C52   A    
C32   Cl8   S    
O6    C2    A    
C11   C15   A    
C2    C51   S    
C45   F9    S    
O12   V4    S    
C31   C35   A    
C32   C36   A    
O10   C6    A    
O20   V2    S    
C9    C18   A    
C43   C47   A    
C15   C23   S    
C38   C42   A    
C15   C19   A    
C37   C41   A    
C39   C56   S    
C39   C43   A    
C44   F8    S    
O4    V2    S    
C30   C50   A    
C33   C37   A    
C12   C16   A    
C46   C50   A    
C4    O14   A    
C13   C17   A    
C46   F10   S    
C47   C51   A    
N1    N5    A    
C16   C20   A    
C11   C20   A    
C34   F2    S    
