data_mof_unit_65002.cif
_audit_creation_date              2012-12-10T16:59:23-0500
_audit_creation_method            fapswitch 2.2
_symmetry_space_group_name_H-M    P1
_symmetry_Int_Tables_number       1
_space_group_crystal_system       triclinic
_cell_length_a                    13.134302
_cell_length_b                    13.156851
_cell_length_c                    17.913237
_cell_angle_alpha                 110.517452
_cell_angle_beta                  73.136373
_cell_angle_gamma                 91.045418
_cell_volume                      2762.43736222

loop_
_atom_site_label
_atom_site_type_symbol
_atom_type_description
_atom_site_fract_x
_atom_site_fract_y
_atom_site_fract_z
_atom_type_partial_charge
Br1   Br    Br    0.331242 0.830759 0.152514 -0.056842
Br2   Br    Br    0.628351 0.111335 0.985322 -0.020988
Br3   Br    Br    0.887972 0.679786 0.521109 -0.018134
Br4   Br    Br    0.392442 0.017581 0.381429 -0.038171
Br5   Br    Br    0.734385 0.214808 0.845673 -0.039872
C1    C     C_R   0.217423 0.544926 0.530123 0.523584
C2    C     C_R   0.595496 0.404283 0.901958 -0.099262
C3    C     C_R   0.628970 0.328373 0.929703 0.031156
C4    C     C_R   0.781670 0.457574 0.469724 0.509515
C5    C     C_R   0.597932 0.347188 0.016111 -0.004025
C6    C     C_R   0.553497 0.454176 0.073156 -0.003081
C7    C     C_R   0.611147 0.265649 0.048561 0.038335
C8    C     C_R   0.594792 0.294629 0.134232 0.082434
C9    C     C_R   0.553671 0.483499 0.156947 0.054688
C10   C     C_2   0.894555 0.445679 0.462132 -0.074105
C11   C     C_2   0.950437 0.531905 0.483343 0.018009
C12   C     C_R   0.392543 0.706742 0.869216 0.089663
C13   C     C_2   0.105158 0.568446 0.537620 0.112873
C14   C     C_2   0.062739 0.511134 0.477066 0.078051
C15   C     C_2   0.536141 0.897264 0.536508 0.127813
C16   C     C_R   0.471811 0.216877 0.474596 0.513998
C17   C     C_2   0.520200 0.934237 0.479782 -0.131528
C18   C     C_2   0.467534 0.099212 0.457857 0.027713
C19   C     C_2   0.516897 0.051686 0.494991 -0.128702
C20   C     C_R   0.528491 0.782605 0.525041 0.521108
C21   C     C_R   0.551727 0.432576 0.276779 0.539421
C22   C     C_R   0.448851 0.566776 0.723784 0.527889
C23   C     C_R   0.471076 0.528385 0.844707 0.070572
C24   C     C_R   0.435328 0.600982 0.814122 0.024392
C25   C     C_R   0.570938 0.403525 0.187276 0.026140
C26   C     C_R   0.384117 0.738366 0.953635 -0.114616
C27   C     C_R   0.475408 0.563733 0.927856 0.010017
C28   C     C_R   0.423694 0.667589 0.984173 -0.000771
C29   C     C_R   0.525603 0.496991 0.957277 0.019230
C30   C     C_R   0.510236 0.526691 0.044158 0.023039
C31   C     C_R   0.446862 0.624498 0.099263 -0.097170
C32   C     C_R   0.409206 0.696626 0.070072 0.019121
F1    F     F_    0.121893 0.427180 0.408538 -0.160901
F2    F     F_    0.044967 0.649935 0.607242 -0.168635
F3    F     F_    0.544290 0.967404 0.610826 -0.168566
F4    F     F_    0.542244 0.589122 0.209228 -0.177987
F5    F     F_    0.603918 0.216561 0.166035 -0.161403
F6    F     F_    0.357435 0.779672 0.842067 -0.150175
F7    F     F_    0.490918 0.421161 0.795221 -0.165585
H1    H     H_    0.930234 0.364139 0.446728 0.111653
H2    H     H_    0.555421 0.101485 0.539703 0.176750
H3    H     H_    0.505778 0.877447 0.423752 0.132186
H4    H     H_    0.347239 0.819242 0.994389 0.150753
H5    H     H_    0.421798 0.646212 0.166039 0.152714
H6    H     H_    0.628409 0.390925 0.836298 0.154542
O1    O     O_3   0.500000 0.500000 0.500000 -0.462820
O2    O     O_R   0.474570 0.394560 0.317400 -0.525812
O3    O     O_R   0.403380 0.624270 0.695980 -0.518016
O4    O     O_R   0.609140 0.497770 0.314440 -0.524283
O5    O     O_R   0.512900 0.483390 0.672170 -0.518901
O6    O     O_R   0.526170 0.271940 0.521690 -0.546672
O7    O     O_R   0.451880 0.756290 0.574830 -0.524627
O8    O     O_R   0.271960 0.460780 0.472050 -0.524615
O9    O     O_R   0.749980 0.510990 0.431420 -0.522251
O10   O     O_R   0.262540 0.611050 0.579000 -0.524684
O11   O     O_R   0.715520 0.417170 0.517520 -0.535543
O12   O     O_R   0.426070 0.262540 0.438550 -0.521307
O13   O     O_R   0.595870 0.709230 0.464930 -0.538600
Zn1   Zn    Zn3+2 0.562560 0.419520 0.551940 0.962607
Zn2   Zn    Zn3+2 0.419550 0.406100 0.433160 0.981424
Zn3   Zn    Zn3+2 0.611810 0.553570 0.428930 0.971439
Zn4   Zn    Zn3+2 0.406080 0.620810 0.585960 0.985822

loop_
_geom_bond_atom_site_label_1
_geom_bond_atom_site_label_2
_ccdc_geom_bond_type
O11   Zn1   S    
C13   F2    S    
C22   O3    A    
O4    Zn3   S    
C14   F1    S    
C21   O2    A    
C22   C24   S    
C12   C24   A    
C1    O8    A    
O8    Zn2   S    
C30   C31   A    
O12   Zn2   S    
Br1   C32   S    
C18   C19   D    
C19   H2    S    
C27   C28   A    
C23   C24   A    
C6    C30   A    
C17   H3    S    
C4    C10   S    
O13   Zn3   S    
Br2   C7    S    
C2    C3    A    
O1    Zn4   S    
O5    Zn1   S    
C16   O6    A    
C5    C6    A    
C16   O12   A    
O3    Zn4   S    
C5    C7    A    
O7    Zn4   S    
C11   C14   S    
C12   C26   A    
C21   O4    A    
C17   C19   S    
C31   C32   A    
C6    C9    A    
O1    Zn1   S    
C9    C25   A    
C21   C25   S    
C22   O5    A    
C26   H4    S    
C9    F4    S    
O9    Zn3   S    
O6    Zn1   S    
C15   F3    S    
C2    C29   A    
C4    O11   A    
C1    C13   S    
Br5   C3    S    
C15   C20   S    
C31   H5    S    
C10   C11   D    
C20   O7    A    
C1    O10   A    
C8    C25   A    
C23   C27   A    
C7    C8    A    
C2    H6    S    
C3    C5    A    
C13   C14   D    
O1    Zn2   S    
C12   F6    S    
O2    Zn2   S    
Br4   C18   S    
C10   H1    S    
C8    F5    S    
C26   C28   A    
C20   O13   A    
C29   C30   A    
C16   C18   S    
C23   F7    S    
C28   C32   A    
Br3   C11   S    
O10   Zn4   S    
C15   C17   D    
C4    O9    A    
O1    Zn3   S    
C27   C29   A    
