data_mof_unit_35947.cif
_audit_creation_date              2012-12-10T19:22:00-0500
_audit_creation_method            fapswitch 2.2
_symmetry_space_group_name_H-M    P1
_symmetry_Int_Tables_number       1
_space_group_crystal_system       triclinic
_cell_length_a                    8.728344
_cell_length_b                    17.735129
_cell_length_c                    16.536693
_cell_angle_alpha                 89.594654
_cell_angle_beta                  97.307089
_cell_angle_gamma                 92.946274
_cell_volume                      2535.70620502

loop_
_atom_site_label
_atom_site_type_symbol
_atom_type_description
_atom_site_fract_x
_atom_site_fract_y
_atom_site_fract_z
_atom_type_partial_charge
C1    C     C_R   0.500241 0.355349 0.500131 0.832120
C2    C     C_R   0.499775 0.644652 0.499869 0.832145
C3    C     C_1   0.500248 0.966215 0.500624 -0.070551
C4    C     C_1   0.499963 0.033788 0.499370 -0.070533
C5    C     C_R   0.607671 0.551434 0.834121 -0.233329
C6    C     C_R   0.392034 0.448691 0.165867 -0.233288
C7    C     C_R   0.601656 0.548697 0.747811 0.016249
C8    C     C_R   0.398156 0.451390 0.252185 0.016353
C9    C     C_R   0.401054 0.452452 0.741294 0.588224
C10   C     C_R   0.599009 0.547508 0.258701 0.588175
C11   C     C_R   0.406538 0.454722 0.826666 -0.252921
C12   C     C_R   0.593441 0.545266 0.173323 -0.252915
C13   C     C_R   0.508254 0.503549 0.874305 0.045695
C14   C     C_R   0.491537 0.496525 0.125683 0.045634
C15   C     C_1   0.504434 0.502069 0.963288 0.017535
C16   C     C_1   0.495307 0.498016 0.036695 0.017542
C17   C     C_R   0.203653 0.499793 0.479396 0.907048
C18   C     C_R   0.796345 0.500174 0.520607 0.907007
C19   C     C_2   0.038301 0.498295 0.467855 -0.303418
C20   C     C_2   0.961695 0.501611 0.532159 -0.303714
C21   C     C_R   0.502286 0.845285 0.576462 0.016015
C22   C     C_R   0.497947 0.154724 0.423539 0.016009
C23   C     C_R   0.502093 0.766244 0.574452 -0.165624
C24   C     C_R   0.498081 0.233764 0.425549 -0.165579
C25   C     C_R   0.500120 0.727576 0.500384 -0.085110
C26   C     C_R   0.499954 0.272425 0.499615 -0.085200
C27   C     C_R   0.498519 0.768618 0.427565 -0.125480
C28   C     C_R   0.501531 0.231378 0.572428 -0.125301
C29   C     C_R   0.498773 0.847093 0.428733 -0.145224
C30   C     C_R   0.501324 0.152903 0.571260 -0.145194
C31   C     C_R   0.500526 0.885512 0.502478 0.052753
C32   C     C_R   0.499661 0.114491 0.497519 0.052723
Cu1   Cu    Cu3+1 0.499990 0.499980 0.580420 1.023595
Cu2   Cu    Cu3+1 0.500010 0.500020 0.419580 1.023617
H1    H     H_    0.979245 0.493885 0.406025 0.213189
H2    H     H_    0.020749 0.505985 0.593997 0.212900
H3    H     H_    0.503486 0.734730 0.630881 0.193722
H4    H     H_    0.496723 0.265281 0.369124 0.193763
H5    H     H_    0.496877 0.740164 0.369714 0.203044
H6    H     H_    0.503119 0.259831 0.630276 0.203541
H7    H     H_    0.497440 0.877984 0.371873 0.152079
H8    H     H_    0.502621 0.122010 0.628117 0.152124
H9    H     H_    0.689232 0.590672 0.868875 0.165786
H10   H     H_    0.310325 0.409519 0.131111 0.165765
H11   H     H_    0.679228 0.586087 0.718284 0.152801
H12   H     H_    0.320506 0.414045 0.281712 0.152836
H13   H     H_    0.328580 0.417675 0.856777 0.197562
H14   H     H_    0.671515 0.582247 0.143212 0.197727
N1    N     N_R   0.499960 0.499970 0.701210 -0.240425
N2    N     N_R   0.500040 0.500030 0.298790 -0.240447
O1    O     O_R   0.499990 0.391240 0.567930 -0.533674
O2    O     O_R   0.500010 0.608760 0.432070 -0.533782
O3    O     O_R   0.500000 0.391270 0.432120 -0.613124
O4    O     O_R   0.500000 0.608730 0.567880 -0.613124
O5    O     O_R   0.274830 0.499990 0.552240 -0.536695
O6    O     O_R   0.725170 0.500010 0.447760 -0.536506
O7    O     O_R   0.274840 0.500020 0.416420 -0.593186
O8    O     O_R   0.725160 0.499980 0.583580 -0.593229
C33   C     C_2   0.504274 0.884835 0.655630 0.375755
H15   H     H_    0.504412 0.945936 0.658117 0.081171
O9    O     O_2   0.505799 0.849560 0.719404 -0.527510
C34   C     C_2   0.496058 0.115181 0.344375 0.375774
H16   H     H_    0.495910 0.054081 0.341885 0.081159
O10   O     O_2   0.494631 0.150461 0.280609 -0.527491
S1    S     S_3+6 0.254530 0.385072 0.697396 -0.009905
O11   O     O_2   0.102137 0.410127 0.717970 -0.330092
O12   O     O_2   0.238624 0.370548 0.607718 -0.288266
O13   O     O_3   0.289203 0.302438 0.745126 -0.561728
H17   H     H_    0.193345 0.270357 0.731038 0.381730
S2    S     S_3+6 0.745925 0.614685 0.302621 -0.009918
O14   O     O_2   0.761289 0.629484 0.392232 -0.288540
O15   O     O_2   0.898246 0.589175 0.282450 -0.330108
O16   O     O_3   0.712408 0.697275 0.254572 -0.561465
H18   H     H_    0.808136 0.729332 0.269164 0.381732

loop_
_geom_bond_atom_site_label_1
_geom_bond_atom_site_label_2
_ccdc_geom_bond_type
Cu1   O5    S    
Cu2   O7    S    
C24   H4    S    
C5    C13   A    
Cu2   O6    S    
C34   H16   S    
C22   C34   S    
C1    O1    A    
O16   H18   S    
C17   O5    A    
C11   H13   S    
C19   C20   D    
C13   C15   S    
C18   O6    A    
C12   H14   S    
S1    O13   S    
S2    O16   S    
C28   C30   A    
Cu1   Cu2   S    
C5    H9    S    
C7    N1    A    
C33   H15   S    
C7    H11   S    
C19   H1    S    
C3    C31   S    
C21   C31   A    
C24   C26   A    
C9    C11   A    
Cu1   O8    S    
C2    O2    A    
Cu2   O3    S    
C29   C31   A    
C6    C8    A    
C10   C12   A    
C6    H10   S    
C17   C19   S    
C12   C14   A    
C21   C33   S    
C2    C25   S    
C22   C24   A    
C23   C25   A    
C21   C23   A    
C1    C26   S    
C14   C16   S    
C27   H5    S    
Cu2   N2    S    
C6    C14   A    
C22   C32   A    
C28   H6    S    
C25   C27   A    
Cu1   N1    S    
C15   C16   T    
C30   C32   A    
C8    N2    A    
C11   C13   A    
S2    O14   D    
C9    N1    A    
C27   C29   A    
C10   S2    S    
C18   C20   S    
C34   O10   D    
S1    O11   D    
C2    O4    A    
C33   O9    D    
C4    C32   S    
Cu1   O4    S    
C5    C7    A    
C1    O3    A    
C30   H8    S    
C20   H2    S    
S2    O15   D    
Cu2   O2    S    
C8    H12   S    
C29   H7    S    
C23   H3    S    
C26   C28   A    
C18   O8    A    
Cu1   O1    S    
C3    C4    T    
C17   O7    A    
O13   H17   S    
S1    O12   D    
C9    S1    S    
C10   N2    A    
