data_mof_unit_37471.cif
_audit_creation_date              2012-12-10T16:49:23-0500
_audit_creation_method            fapswitch 2.2
_symmetry_space_group_name_H-M    P1
_symmetry_Int_Tables_number       1
_space_group_crystal_system       triclinic
_cell_length_a                    7.869433
_cell_length_b                    8.540476
_cell_length_c                    12.938383
_cell_angle_alpha                 88.208594
_cell_angle_beta                  88.860686
_cell_angle_gamma                 93.75786
_cell_volume                      867.068516366

loop_
_atom_site_label
_atom_site_type_symbol
_atom_type_description
_atom_site_fract_x
_atom_site_fract_y
_atom_site_fract_z
_atom_type_partial_charge
C1    C     C_R   0.455146 0.205743 0.496855 0.955901
C2    C     C_R   0.708090 0.446224 0.140515 0.095681
C3    C     C_R   0.594662 0.510277 0.869260 -0.305902
C4    C     C_R   0.422047 0.543853 0.130798 -0.288533
C5    C     C_R   0.585775 0.511875 0.975715 0.147951
C6    C     C_R   0.432062 0.543389 0.024687 0.152745
C7    C     C_2   0.431565 0.041910 0.494945 -0.367344
C8    C     C_2   0.568414 0.958057 0.501430 -0.369358
C9    C     C_3   0.846123 0.366744 0.200906 -0.358687
C10   C     C_3   0.964898 0.267394 0.138356 -0.432816
C11   C     C_3   0.084517 0.182558 0.209233 -0.801422
C12   C     C_R   0.544956 0.794238 0.501952 0.975959
C13   C     C_3   0.116475 0.458980 0.823077 -0.402782
C14   C     C_3   0.102837 0.278752 0.838673 -0.326073
C15   C     C_3   0.919286 0.207654 0.837483 -0.844903
C16   C     C_R   0.465832 0.500867 0.700015 0.860452
C17   C     C_R   0.533236 0.494219 0.300621 0.858398
C18   C     C_R   0.556886 0.494007 0.189384 -0.093336
C19   C     C_R   0.445722 0.511086 0.811845 -0.077979
C20   C     C_R   0.285560 0.558903 0.967940 -0.248058
C21   C     C_R   0.724468 0.470166 0.033578 -0.231547
C22   C     C_R   0.285762 0.523597 0.863441 0.109043
H1    H     H_    0.304381 0.575219 0.167513 0.183312
H2    H     H_    0.887859 0.178539 0.095266 0.238476
H3    H     H_    0.045009 0.342983 0.083173 0.228634
H4    H     H_    0.925020 0.457843 0.240728 0.237657
H5    H     H_    0.781947 0.283892 0.259566 0.226632
H6    H     H_    0.843670 0.267049 0.778535 0.286277
H7    H     H_    0.919307 0.081012 0.820490 0.262797
H8    H     H_    0.855712 0.217043 0.913760 0.237774
H9    H     H_    0.179554 0.227074 0.777004 0.238724
H10   H     H_    0.157709 0.243745 0.913869 0.220285
H11   H     H_    0.012350 0.510303 0.866143 0.177384
H12   H     H_    0.716842 0.497022 0.832030 0.174989
H13   H     H_    0.092474 0.494421 0.742309 0.241306
H14   H     H_    0.166180 0.576002 0.008020 0.135297
H15   H     H_    0.840524 0.446101 0.994530 0.139637
H16   H     H_    0.301951 0.990826 0.489204 0.213541
H17   H     H_    0.697860 0.008887 0.506392 0.213866
H18   H     H_    0.163976 0.268713 0.253082 0.276172
H19   H     H_    0.010463 0.101311 0.264612 0.278676
H20   H     H_    0.170025 0.113307 0.162077 0.247643
I1    I     I_    0.991918 0.736238 0.384208 -0.308613
I2    I     I_    0.989938 0.230283 0.572672 -0.325491
N1    N     N_2   0.054030 0.541640 0.471970 0.020407
N2    N     N_2   0.945970 0.458360 0.528030 0.016199
O1    O     O_R   0.609680 0.261530 0.506880 -0.601176
O2    O     O_R   0.390320 0.738470 0.493120 -0.599433
O3    O     O_R   0.323330 0.288220 0.488910 -0.599941
O4    O     O_R   0.676670 0.711780 0.511090 -0.594394
O5    O     O_R   0.619510 0.488830 0.661140 -0.620649
O6    O     O_R   0.380490 0.511170 0.338860 -0.618762
O7    O     O_R   0.333160 0.515520 0.643180 -0.622985
O8    O     O_R   0.666840 0.484480 0.356820 -0.622225
Zn1   Zn    Zn3+2 0.691200 0.482180 0.511990 1.004513
Zn2   Zn    Zn3+2 0.308800 0.517820 0.488010 1.006078

loop_
_geom_bond_atom_site_label_1
_geom_bond_atom_site_label_2
_ccdc_geom_bond_type
N2    Zn1   S    
C13   C22   S    
C12   O4    A    
C3    C19   A    
C8    H17   S    
C2    C18   A    
O3    Zn2   S    
C6    C20   A    
C9    C10   S    
O4    Zn1   S    
C14   C15   S    
C16   O5    A    
C12   O2    A    
C14   H9    S    
C8    C12   S    
C4    C18   A    
C2    C21   A    
C17   C18   S    
C5    C21   A    
C7    C8    D    
C13   C14   S    
C16   O7    A    
C13   H11   S    
I1    N1    S    
C9    H5    S    
C15   H6    S    
C11   H18   S    
C15   H8    S    
C16   C19   S    
C17   O6    A    
O1    Zn1   S    
C7    H16   S    
I2    N2    S    
C9    H4    S    
C15   H7    S    
O5    Zn1   S    
C5    C6    A    
O7    Zn2   S    
C10   C11   S    
C20   H14   S    
N1    N2    D    
C19   C22   A    
C21   H15   S    
C10   H3    S    
C11   H20   S    
C4    C6    A    
C11   H19   S    
C14   H10   S    
O2    Zn2   S    
C4    H1    S    
O8    Zn1   S    
C1    O1    A    
C3    H12   S    
C10   H2    S    
C1    C7    S    
C2    C9    S    
C1    O3    A    
C17   O8    A    
C13   H13   S    
O6    Zn2   S    
N1    Zn2   S    
C20   C22   A    
C3    C5    A    
