data_mof_unit_59130.cif
_audit_creation_date              2012-12-10T19:12:29-0500
_audit_creation_method            fapswitch 2.2
_symmetry_space_group_name_H-M    P1
_symmetry_Int_Tables_number       1
_space_group_crystal_system       triclinic
_cell_length_a                    15.627563
_cell_length_b                    11.318451
_cell_length_c                    10.068022
_cell_angle_alpha                 91.459476
_cell_angle_beta                  89.620238
_cell_angle_gamma                 90.599212
_cell_volume                      1780.11865243

loop_
_atom_site_label
_atom_site_type_symbol
_atom_type_description
_atom_site_fract_x
_atom_site_fract_y
_atom_site_fract_z
_atom_type_partial_charge
C1    C     C_R   0.497006 0.257192 0.501112 1.100105
C2    C     C_3   0.083690 0.508395 0.501043 -0.004418
C3    C     C_3   0.972217 0.614478 0.520199 0.145404
C4    C     C_3   0.916265 0.504599 0.499311 0.074422
C5    C     C_3   0.029248 0.576415 0.401799 -0.206296
C6    C     C_3   0.972506 0.463462 0.380841 -0.229286
C7    C     C_1   0.174623 0.507747 0.501228 0.046546
C8    C     C_1   0.825444 0.502904 0.499940 0.040339
C9    C     C_3   0.468917 0.069108 0.655303 0.321503
C10   C     C_3   0.470136 0.928144 0.642165 -0.217015
C11   C     C_3   0.422988 0.057161 0.420946 0.156539
C12   C     C_R   0.338912 0.501564 0.500380 0.914545
C13   C     C_3   0.596675 0.071077 0.474911 0.461194
C14   C     C_3   0.498084 0.118598 0.509929 -0.400357
C15   C     C_3   0.501121 0.877004 0.499838 -0.146614
C16   C     C_3   0.433864 0.922077 0.395188 0.060879
C17   C     C_3   0.598492 0.925995 0.475214 0.199212
C18   C     C_3   0.466617 0.384900 0.075288 -0.004934
C19   C     C_3   0.485076 0.377889 0.919266 -0.421192
C20   C     C_3   0.440987 0.594592 0.079480 0.183013
C21   C     C_3   0.588069 0.520690 0.077318 0.145504
C22   C     C_3   0.428133 0.568520 0.921875 -0.022555
C23   C     C_R   0.500887 0.741101 0.500748 0.934632
C24   C     C_3   0.584422 0.534153 0.920002 0.227077
C25   C     C_R   0.661083 0.500299 0.499988 1.020935
C26   C     C_3   0.972023 0.438546 0.595860 0.017996
C27   C     C_3   0.028520 0.396933 0.479792 0.463873
C28   C     C_1   0.250035 0.505146 0.501119 -0.074388
C29   C     C_1   0.750051 0.501455 0.500122 0.012007
C30   C     C_3   0.027992 0.549836 0.620368 -0.251946
H1    H     H_    0.367264 0.055579 0.485386 0.232997
H2    H     H_    0.498702 0.311543 0.123244 0.283522
H3    H     H_    0.542231 0.323221 0.905114 0.192111
H4    H     H_    0.432980 0.331646 0.865809 0.268786
H5    H     H_    0.368091 0.514552 0.911158 0.192477
H6    H     H_    0.613091 0.600874 0.128003 0.195772
H7    H     H_    0.627329 0.469610 0.869889 0.217809
H8    H     H_    0.948295 0.427420 0.284454 0.210777
H9    H     H_    0.054550 0.635014 0.323644 0.179639
H10   H     H_    0.051469 0.585398 0.717386 0.176736
H11   H     H_    0.518855 0.900150 0.711431 0.259023
N1    N     N_3   0.498170 0.499750 0.138610 -0.143680
N2    N     N_3   0.498850 0.496730 0.861320 -0.148014
O1    O     O_R   0.499980 0.314910 0.616040 -0.611208
O2    O     O_R   0.500040 0.314680 0.383960 -0.529944
O3    O     O_R   0.376750 0.500100 0.616020 -0.587746
O4    O     O_R   0.376810 0.499870 0.383940 -0.645011
O5    O     O_R   0.499960 0.685320 0.616040 -0.575536
O6    O     O_R   0.500020 0.685090 0.383960 -0.565423
O7    O     O_R   0.623190 0.500130 0.616060 -0.568372
O8    O     O_R   0.623250 0.499900 0.383980 -0.548549
Zn1   Zn    Zn3+2 0.499960 0.500150 0.654960 1.052486
Zn2   Zn    Zn3+2 0.500040 0.499850 0.345040 1.064928
S1    S     S_3+6 0.068216 0.251340 0.452258 0.033965
O9    O     O_2   0.117676 0.246821 0.323780 -0.242744
O10   O     O_2   0.125853 0.220387 0.564757 -0.284156
O11   O     O_3   0.985568 0.155266 0.443764 -0.529711
H12   H     H_    0.012156 0.076617 0.431788 0.395791
N3    N     N_3   0.393099 0.869345 0.693489 -0.430773
H13   H     H_    0.339071 0.877996 0.636419 0.279754
H14   H     H_    0.379737 0.900770 0.789840 0.244328
N4    N     N_3   0.349903 0.860600 0.410694 -0.465079
H15   H     H_    0.355797 0.769419 0.416638 0.166537
H16   H     H_    0.310472 0.871386 0.328997 0.232495
S2    S     S_3+6 0.635397 0.137554 0.318913 0.132581
O12   O     O_2   0.654335 0.264762 0.349852 -0.225491
O13   O     O_2   0.718853 0.090085 0.267509 -0.136488
O14   O     O_3   0.565726 0.133213 0.193905 -0.542834
H17   H     H_    0.594217 0.090615 0.118953 0.408755
S3    S     S_3+6 0.680696 0.134341 0.590939 0.049519
O15   O     O_2   0.665933 0.263030 0.620242 -0.345831
O16   O     O_2   0.688945 0.075971 0.722760 -0.242432
O17   O     O_3   0.777735 0.121382 0.518112 -0.450755
H18   H     H_    0.796444 0.202795 0.497412 0.395222
N5    N     N_3   0.647480 0.886155 0.590724 -0.372954
H19   H     H_    0.646902 0.794028 0.592439 0.228000
H20   H     H_    0.712689 0.905392 0.581243 0.285428
S4    S     S_3+6 0.661200 0.856991 0.335075 0.060298
O18   O     O_2   0.635911 0.885925 0.196381 -0.245473
O19   O     O_2   0.753761 0.891898 0.352304 -0.215262
O20   O     O_3   0.661049 0.710784 0.343824 -0.584090
H21   H     H_    0.711843 0.684882 0.291737 0.399646
S5    S     S_3+6 0.359035 0.133524 0.304308 0.031124
O21   O     O_2   0.334911 0.251108 0.364518 -0.300943
O22   O     O_2   0.405828 0.145302 0.175700 -0.283464
O23   O     O_3   0.266895 0.060699 0.271908 -0.510159
H22   H     H_    0.233643 0.065272 0.355981 0.401884
N6    N     N_3   0.462522 0.900670 0.260138 -0.364849
H23   H     H_    0.413348 0.922159 0.195632 0.232962
H24   H     H_    0.508351 0.961866 0.239448 0.279042
N7    N     N_3   0.373846 0.370431 0.093252 -0.409371
H25   H     H_    0.358780 0.371327 0.193059 0.311723
H26   H     H_    0.350350 0.293565 0.046655 0.292216
N8    N     N_3   0.938711 0.364046 0.700534 -0.387626
H27   H     H_    0.991170 0.327142 0.747417 0.233835
H28   H     H_    0.904765 0.294287 0.655002 0.244600
N9    N     N_3   0.355895 0.593958 0.144287 -0.401833
H29   H     H_    0.310558 0.632157 0.083180 0.154425
H30   H     H_    0.356884 0.648720 0.229184 0.221750
S6    S     S_3+6 0.678830 0.418857 0.097231 0.072958
O24   O     O_2   0.727380 0.432859 0.223829 -0.252614
O25   O     O_2   0.652829 0.292826 0.073571 -0.269560
O26   O     O_3   0.753579 0.449450 0.981082 -0.508961
H31   H     H_    0.793659 0.382211 0.981371 0.402436
S7    S     S_3+6 0.645424 0.665527 0.870837 0.046677
O27   O     O_2   0.591428 0.759908 0.817700 -0.362584
O28   O     O_2   0.692702 0.718048 0.988158 -0.234099
O29   O     O_3   0.721450 0.630093 0.758646 -0.532414
H32   H     H_    0.755948 0.703210 0.748117 0.374182
N10   N     N_3   0.476966 0.713041 0.103689 -0.395257
H33   H     H_    0.431382 0.772132 0.071250 0.155202
H34   H     H_    0.530468 0.731653 0.047086 0.246591
N11   N     N_3   0.408717 0.670819 0.843682 -0.376658
H35   H     H_    0.348148 0.701787 0.871309 0.150872
H36   H     H_    0.451407 0.738774 0.863818 0.239779
N12   N     N_3   0.938687 0.733186 0.540268 -0.392618
H37   H     H_    0.991040 0.790270 0.554033 0.205663
H38   H     H_    0.904170 0.734339 0.629527 0.202416
S8    S     S_3+6 0.363819 0.128880 0.719947 -0.030551
O30   O     O_2   0.363650 0.124750 0.869093 -0.329089
O31   O     O_2   0.350278 0.254252 0.681111 -0.271755
O32   O     O_3   0.275619 0.055180 0.667590 -0.575202
H39   H     H_    0.229332 0.080688 0.729234 0.421130
N13   N     N_3   0.531316 0.098824 0.758266 -0.364767
H40   H     H_    0.538108 0.188275 0.770951 0.252039
H41   H     H_    0.512979 0.064486 0.849797 0.232313

loop_
_geom_bond_atom_site_label_1
_geom_bond_atom_site_label_2
_ccdc_geom_bond_type
C26   N8    S    
O17   H18   S    
C2    C7    S    
C16   N6    S    
C4    C8    S    
N9    H29   S    
C27   S1    S    
C21   H6    S    
C13   S2    S    
O29   H32   S    
C22   H5    S    
S7    O28   D    
C26   C27   S    
C12   C28   S    
S5    O21   D    
C18   N7    S    
C10   C15   S    
C18   N1    S    
N1    Zn2   S    
C5    C6    S    
C11   C14   S    
S4    O19   D    
N2    Zn1   S    
C23   O6    A    
C13   S3    S    
C15   C16   S    
O3    Zn1   S    
C9    N13   S    
N12   H37   S    
C15   C17   S    
C18   C19   S    
N10   H33   S    
S6    O24   D    
N4    H16   S    
C25   O7    A    
C22   N11   S    
C20   N9    S    
C6    C27   S    
O14   H17   S    
S2    O13   D    
O7    Zn1   S    
C6    H8    S    
S3    O15   D    
C9    C10   S    
O4    Zn2   S    
O1    Zn1   S    
C15   C23   S    
C11   H1    S    
N3    H13   S    
C13   C14   S    
C10   H11   S    
C16   N4    S    
C12   O4    A    
N9    H30   S    
C19   N2    S    
O20   H21   S    
S8    O31   D    
C25   C29   S    
S7    O29   S    
S1    O10   D    
N3    H14   S    
C4    C6    S    
C19   H3    S    
N7    H25   S    
C9    C14   S    
S4    O18   D    
C11   S5    S    
S6    O26   S    
C7    C28   T    
O8    Zn2   S    
C3    C30   S    
N5    H19   S    
C25   O8    A    
N4    H15   S    
N7    H26   S    
C11   C16   S    
C1    O1    A    
C4    C26   S    
C22   N2    S    
S2    O14   S    
S3    O17   S    
S6    O25   D    
C24   H7    S    
C30   H10   S    
N8    H28   S    
N5    H20   S    
C2    C27   S    
C20   N10   S    
C12   O3    A    
S5    O22   D    
C20   C22   S    
C26   C30   S    
C5    H9    S    
C9    S8    S    
C2    C5    S    
C18   H2    S    
C8    C29   T    
C3    C4    S    
N13   H41   S    
N11   H35   S    
S8    O32   S    
C21   S6    S    
S1    O9    D    
C23   O5    A    
O23   H22   S    
N6    H24   S    
C3    C5    S    
C19   H4    S    
C20   N1    S    
S8    O30   D    
C1    C14   S    
S7    O27   D    
C13   C17   S    
C2    C30   S    
C10   N3    S    
S4    O20   S    
C1    O2    A    
O11   H12   S    
O6    Zn2   S    
C17   S4    S    
C3    N12   S    
N12   H38   S    
N8    H27   S    
N10   H34   S    
O2    Zn2   S    
C21   N1    S    
O5    Zn1   S    
S5    O23   S    
N6    H23   S    
S2    O12   D    
C21   C24   S    
O26   H31   S    
C17   N5    S    
C24   N2    S    
S3    O16   D    
C24   S7    S    
O32   H39   S    
N13   H40   S    
N11   H36   S    
S1    O11   S    
