data_mof_unit_68486.cif
_audit_creation_date              2013-03-05T15:53:56-0500
_audit_creation_method            fapswitch 2.2
_symmetry_space_group_name_H-M    P1
_symmetry_Int_Tables_number       1
_space_group_crystal_system       triclinic
_cell_length_a                    8.613043
_cell_length_b                    14.53911
_cell_length_c                    16.467563
_cell_angle_alpha                 94.473762
_cell_angle_beta                  93.145954
_cell_angle_gamma                 92.291357
_cell_volume                      2050.75510664

loop_
_atom_site_label
_atom_site_type_symbol
_atom_site_description
_atom_site_fract_x
_atom_site_fract_y
_atom_site_fract_z
_atom_type_partial_charge
P1    P     P_3+3 0.934880 0.713230 0.554140 0.564331
O1    O     O_2   0.106830 0.727750 0.529310 -0.317943
O2    O     O_3   0.863420 0.611560 0.536200 -0.332454
O3    O     O_3   0.352370 0.670610 0.385960 -0.368595
O4    O     O_2   0.223022 0.832118 0.434797 -0.314765
O5    O     O_3   0.908474 0.756577 0.656488 -0.590592
O6    O     O_3   0.353164 0.834633 0.296663 -0.463563
H1    H     H_    0.235148 0.713344 0.249202 0.118858
C1    C     C_3   0.296031 0.801206 0.153648 -0.713846
H2    H     H_    0.207654 0.852348 0.162051 0.289989
P2    P     P_3+3 0.367500 0.426600 0.319160 0.566023
P3    P     P_3+3 0.916260 0.607608 0.238414 0.601479
O7    O     O_2   0.193140 0.454660 0.305430 -0.326179
O8    O     O_3   0.941260 0.623660 0.347470 -0.300146
O9    O     O_2   0.038241 0.538874 0.210803 -0.302711
O10   O     O_3   0.356361 0.307127 0.289437 -0.642282
O11   O     O_3   0.972679 0.706183 0.187229 -0.584079
C2    C     C_3   0.861730 0.774929 0.192520 0.561646
H3    H     H_    0.749754 0.741805 0.199233 0.018582
C3    C     C_3   0.829231 0.823883 0.111639 0.120381
C4    C     C_3   0.737724 0.271393 0.293745 0.733775
H4    H     H_    0.651876 0.308038 0.330566 0.070779
C5    C     C_3   0.668852 0.174395 0.262956 -0.724261
H5    H     H_    0.693627 0.123240 0.307475 0.237836
H6    H     H_    0.542898 0.179701 0.258275 0.151050
Ba1   Ba    Ba6+2 0.152520 0.545410 0.458840 1.811667
C6    C     C_3   0.997692 0.728560 0.723263 0.467747
C7    C     C_3   0.983189 0.799164 0.798371 -0.668664
H7    H     H_    0.057748 0.780035 0.851136 0.229148
H8    H     H_    0.864634 0.798866 0.819496 0.196003
C8    C     C_3   0.259642 0.255039 0.336138 0.456373
H9    H     H_    0.166872 0.297351 0.361713 0.078450
C9    C     C_3   0.176457 0.172635 0.281294 -0.165381
H10   H     H_    0.079906 0.203567 0.247290 0.164944
P4    P     P_3+3 0.875420 0.286760 0.445790 0.533654
O12   O     O_2   0.703470 0.272190 0.470670 -0.325303
O13   O     O_3   0.946880 0.388430 0.463740 -0.322445
O14   O     O_3   0.457930 0.329380 0.613970 -0.357546
O15   O     O_3   0.878817 0.262442 0.339036 -0.611353
P5    P     P_3+3 0.894351 0.389822 0.759257 0.593611
O16   O     O_3   0.367050 0.547540 0.594170 -0.349536
O17   O     O_3   0.869040 0.376330 0.652460 -0.337284
O18   O     O_2   0.761137 0.447940 0.791546 -0.292061
O19   O     O_3   0.853605 0.281795 0.793095 -0.506521
Ba2   Ba    Ba6+2 0.657660 0.454590 0.541090 1.759595
P6    P     P_3+3 0.366739 0.793484 0.394263 0.656015
C10   C     C_3   0.332188 0.761043 0.235696 0.508923
H11   H     H_    0.398934 0.839642 0.134416 0.212442
O20   O     O_3   0.443250 0.452450 0.405760 -0.312591
C11   C     C_3   0.584760 0.735912 0.760852 0.500953
H12   H     H_    0.691233 0.702193 0.745238 0.056611
C12   C     C_3   0.558225 0.725984 0.851719 -0.091807
H13   H     H_    0.583833 0.655916 0.866634 0.120049
H14   H     H_    0.643918 0.770836 0.890848 0.170053
P7    P     P_3+3 0.445575 0.575923 0.696109 0.467116
O21   O     O_2   0.617170 0.545280 0.694550 -0.335762
O22   O     O_3   0.462277 0.697385 0.707964 -0.562159
C13   C     C_3   0.988160 0.231104 0.786690 0.103601
H15   H     H_    0.037320 0.234613 0.725666 0.030299
H16   H     H_    0.078173 0.257599 0.834425 0.099915
C14   C     C_3   0.947301 0.130055 0.797813 0.363845
H17   H     H_    0.051648 0.090982 0.783592 0.048078
P8    P     P_3+3 0.425818 0.210639 0.619426 0.626904
C15   C     C_3   0.454687 0.248276 0.777188 0.113412
H18   H     H_    0.329013 0.262598 0.776924 -0.014251
O23   O     O_2   0.547295 0.165292 0.565125 -0.260770
O24   O     O_3   0.482241 0.178272 0.716567 -0.445100
H19   H     H_    0.522218 0.312602 0.766724 0.134173
C16   C     C_3   0.510712 0.215930 0.860441 0.376225
H20   H     H_    0.630960 0.193277 0.855204 0.144506
C17   C     C_R   0.003238 0.939234 0.536361 0.034458
C18   C     C_R   0.811723 0.802633 0.503023 0.187653
C19   C     C_R   0.648569 0.781711 0.489557 -0.388686
C20   C     C_R   0.553722 0.840267 0.446577 0.362746
C21   C     C_R   0.606974 0.930433 0.436391 -0.111819
C22   C     C_R   0.755517 0.963273 0.467808 0.107637
C23   C     C_R   0.860082 0.900204 0.501106 0.042221
C24   C     C_R   0.941977 0.097704 0.500468 0.049858
C25   C     C_R   0.044649 0.035819 0.537557 -0.015703
C26   C     C_R   0.984737 0.196111 0.502990 0.184597
C27   C     C_R   0.124816 0.227203 0.545738 -0.454887
C28   C     C_R   0.228128 0.166204 0.579490 0.126323
C29   C     C_R   0.187273 0.071400 0.576973 0.204544
C30   C     C_R   0.798344 0.058727 0.465917 -0.008741
H21   H     H_    0.530715 0.975469 0.405214 0.193089
H22   H     H_    0.158328 0.299970 0.548978 0.172850
H23   H     H_    0.081168 0.894872 0.566351 0.197187
H24   H     H_    0.715335 0.103155 0.440174 0.159729
C31   C     C_R   0.625520 0.521975 0.263029 0.089731
C32   C     C_R   0.475162 0.484966 0.241538 0.095056
C33   C     C_R   0.421370 0.477092 0.158702 -0.212453
C34   C     C_R   0.519540 0.505155 0.097654 0.285424
C35   C     C_R   0.672378 0.539138 0.121392 -0.221328
C36   C     C_R   0.723828 0.550779 0.203997 0.124351
C37   C     C_R   0.391459 0.501832 0.849686 -0.223048
C38   C     C_R   0.336073 0.510883 0.768974 0.163464
C39   C     C_R   0.289817 0.471541 0.908102 0.278531
N1    N     N_2   0.470776 0.503088 0.012835 0.006397
N2    N     N_2   0.334942 0.472079 0.993517 -0.001678
C40   C     C_R   0.189717 0.472208 0.742544 -0.407490
H25   H     H_    0.511910 0.518444 0.867097 0.179750
H26   H     H_    0.749369 0.559392 0.075623 0.224260
C41   C     C_R   0.088512 0.438974 0.797982 0.257722
C42   C     C_R   0.136940 0.441468 0.881127 -0.237837
H27   H     H_    0.305982 0.446924 0.142165 0.201251
H28   H     H_    0.057390 0.417269 0.924341 0.190755
H29   H     H_    0.152416 0.470789 0.678659 0.172351
C43   C     C_2   0.714605 0.137403 0.179958 0.921228
H30   H     H_    0.624675 0.113638 0.133441 0.022121
O25   O     O_2   0.850750 0.132366 0.164245 -0.495551
C44   C     C_2   0.162210 0.728869 0.709296 0.629716
H31   H     H_    0.222508 0.680836 0.743428 -0.000104
O26   O     O_2   0.227027 0.790128 0.675127 -0.478255
N3    N     N_R   0.944504 0.636402 0.742162 0.171198
O27   O     O_R   0.926155 0.570810 0.684072 -0.389040
O28   O     O_R   0.919492 0.618270 0.816695 -0.405519
C45   C     C_2   0.028616 0.896118 0.781683 0.834375
H32   H     H_    0.114279 0.936158 0.822022 0.098698
O29   O     O_2   0.969244 0.930357 0.723001 -0.544014
N4    N     N_R   0.355109 0.225729 0.403733 0.206056
O30   O     O_R   0.397411 0.289344 0.460751 -0.357736
O31   O     O_R   0.442306 0.155356 0.393608 -0.424042
C46   C     C_2   0.241224 0.731218 0.084785 0.708798
H33   H     H_    0.213560 0.755130 0.025476 0.166213
O32   O     O_2   0.226460 0.648900 0.094040 -0.563306
N5    N     N_R   0.109857 0.100200 0.328268 0.269102
O33   O     O_R   0.965322 0.072699 0.312869 -0.336389
O34   O     O_R   0.198854 0.048554 0.369978 -0.300969
C47   C     C_2   0.272523 0.131081 0.215065 0.732043
H34   H     H_    0.309347 0.173369 0.167497 0.020149
O35   O     O_2   0.308078 0.050455 0.212869 -0.477859
C48   C     C_2   0.476475 0.709347 0.228625 0.366570
H35   H     H_    0.498240 0.672605 0.171455 0.024692
O36   O     O_2   0.571489 0.709384 0.286082 -0.583821
N6    N     N_R   0.605709 0.833678 0.745907 0.269856
O37   O     O_R   0.609054 0.898189 0.805347 -0.257461
O38   O     O_R   0.626223 0.857024 0.672525 -0.300312
N7    N     N_R   0.401314 0.749004 0.873101 0.249858
O39   O     O_R   0.307236 0.685758 0.896833 -0.443826
O40   O     O_R   0.362296 0.834616 0.879845 -0.334123
C49   C     C_2   0.694673 0.888162 0.119289 0.478578
H36   H     H_    0.636986 0.910272 0.064281 0.106677
O41   O     O_2   0.653257 0.918634 0.185480 -0.553236
N8    N     N_R   0.818735 0.097109 0.739562 0.266436
O42   O     O_R   0.828654 0.107410 0.662425 -0.390579
O43   O     O_R   0.693430 0.057699 0.763426 -0.211938
N9    N     N_R   0.908754 0.115739 0.882092 0.255876
O44   O     O_R   0.906760 0.184571 0.937562 -0.309337
O45   O     O_R   0.884245 0.032308 0.903312 -0.306080
N10   N     N_R   0.413573 0.137512 0.882100 0.265488
O46   O     O_R   0.475933 0.059478 0.894618 -0.240624
O47   O     O_R   0.268150 0.147421 0.896555 -0.389295
N11   N     N_R   0.517166 0.291355 0.924911 0.199059
O48   O     O_R   0.441463 0.283953 0.990552 -0.340986
O49   O     O_R   0.624427 0.356861 0.924712 -0.380923
N12   N     N_R   0.901713 0.839419 0.263637 0.258501
O50   O     O_R   0.806322 0.846325 0.321614 -0.393080
O51   O     O_R   0.040488 0.877678 0.276400 -0.277977
C50   C     C_2   0.567469 0.712351 0.536063 0.766847
H37   H     H_    0.625899 0.658926 0.564774 0.056838
O52   O     O_2   0.430283 0.718926 0.549027 -0.482680
N13   N     N_R   0.290655 0.011484 0.616025 0.260491
O53   O     O_R   0.300111 0.011440 0.695095 -0.306585
O54   O     O_R   0.374416 0.956347 0.572642 -0.333055
N14   N     N_R   0.682902 0.525800 0.345486 0.244769
O55   O     O_R   0.787756 0.469585 0.365942 -0.348171
O56   O     O_R   0.646387 0.591928 0.397534 -0.382214
N15   N     N_R   0.962117 0.881555 0.089233 0.218917
O57   O     O_R   0.007784 0.874171 0.015024 -0.350470
O58   O     O_R   0.003432 0.957026 0.134364 -0.289327
N16   N     N_R   0.785264 0.751087 0.046083 0.205033
O59   O     O_R   0.891732 0.701983 0.012944 -0.333004
O60   O     O_R   0.640911 0.720312 0.035293 -0.505971
N17   N     N_R   0.767360 0.325001 0.223992 0.195645
O61   O     O_R   0.657809 0.331316 0.167387 -0.441042
O62   O     O_R   0.907679 0.355488 0.212063 -0.338282

loop_
_geom_bond_atom_site_label_1
_geom_bond_atom_site_label_2
_geom_bond_distance
_ccdc_geom_bond_type
N16   O59   1.301886 A    
C35   C36   1.402626 A    
C17   C23   1.411900 A    
C19   C20   1.406864 A    
C33   H27   1.082155 S    
C37   C38   1.405057 A    
N9    O44   1.302579 A    
P7    O21   1.561585 D    
C22   C30   1.424825 A    
C42   H28   1.083039 S    
C27   C28   1.404627 A    
C34   N1    1.433994 S    
C46   H33   1.079628 S    
O3    P6    1.779847 S    
C12   H13   1.094468 S    
O10   C8    1.403439 S    
N16   O60   1.302486 A    
N14   O55   1.290596 A    
C16   N10   1.465278 S    
C15   H19   1.111450 S    
C34   C35   1.411102 A    
C7    H7    1.111534 S    
P4    O13   1.578090 S    
C2    H3    1.075727 S    
C7    C45   1.497923 S    
C45   O29   1.218314 D    
C24   C26   1.459907 A    
C46   O32   1.220744 D    
C13   H16   1.108764 S    
P4    C26   1.925181 S    
C43   H30   1.085505 S    
P1    O1    1.568467 D    
C31   C36   1.401020 A    
N17   O61   1.300534 A    
O16   P7    1.786261 S    
O14   Ba2   2.833865 S    
Ba1   Ba2   4.712486 S    
O14   P8    1.747498 S    
N12   O51   1.297412 A    
C21   H21   1.083321 S    
P5    O18   1.545172 D    
N11   O48   1.301946 A    
C50   H37   1.068914 S    
Ba2   O21   2.803601 S    
O19   C13   1.402490 S    
C48   H35   1.075061 S    
P3    O11   1.782807 S    
C11   C12   1.542967 S    
C5    H5    1.103048 S    
C8    C9    1.567136 S    
N11   O49   1.300398 A    
C1    H2    1.091876 S    
C27   H22   1.081917 S    
C18   C19   1.427422 A    
C12   H14   1.108583 S    
C13   C14   1.524320 S    
P5    O17   1.754898 S    
P8    O23   1.547542 D    
C6    C44   1.447839 S    
N14   O56   1.297357 A    
C4    H4    1.108416 S    
P3    C36   1.861532 S    
C16   H20   1.105100 S    
C4    N17   1.465610 S    
C17   C25   1.433329 A    
C39   N2    1.437920 S    
N4    O31   1.298956 A    
C11   H12   1.090693 S    
N13   O54   1.298835 A    
O2    Ba1   3.016068 S    
C4    C5    1.544780 S    
C3    N15   1.472107 S    
P8    O24   1.751269 S    
P1    C18   1.925182 S    
C20   C21   1.397035 A    
P8    C28   1.863321 S    
P1    O5    1.782519 S    
C15   O24   1.405568 S    
N6    O37   1.300066 A    
C22   C23   1.429300 A    
C44   O26   1.222477 D    
Ba1   O20   3.031118 S    
C33   C34   1.421882 A    
C24   C25   1.433413 A    
P7    C38   1.858342 S    
P2    Ba1   3.436082 S    
C13   H15   1.115674 S    
O2    Ba2   2.841940 S    
C40   C41   1.396143 A    
C16   N11   1.462809 S    
N3    O28   1.302819 A    
P1    O2    1.578076 S    
P4    O12   1.568818 D    
O6    C10   1.407978 S    
P4    O15   1.768007 S    
C21   C22   1.404453 A    
O6    P6    1.757787 S    
C18   C23   1.465627 A    
P2    O20   1.547681 S    
P2    O10   1.764918 S    
C14   N8    1.464634 S    
C12   N7    1.460308 S    
O5    C6    1.402766 S    
C4    O15   1.406525 S    
P3    O9    1.541029 D    
Ba2   O20   2.812594 S    
C50   O52   1.218362 D    
O11   C2    1.411285 S    
O12   Ba2   2.861352 S    
O1    Ba1   2.860644 S    
N8    O42   1.297624 A    
C15   C16   1.542623 S    
O8    Ba1   2.844914 S    
C31   N14   1.415456 S    
N7    O40   1.300230 A    
C17   H23   1.076277 S    
N8    O43   1.296062 A    
N15   O57   1.302024 A    
C29   N13   1.432437 S    
P3    O8    1.792810 S    
C28   C29   1.405750 A    
P7    O22   1.760741 S    
P1    Ba1   3.467194 S    
N10   O47   1.299257 A    
O7    Ba1   2.803449 S    
O13   Ba2   3.016931 S    
P4    Ba2   3.467906 S    
P6    C20   1.862039 S    
C2    N12   1.458725 S    
N4    O30   1.292228 A    
C47   H34   1.085837 S    
C9    C47   1.508417 S    
N6    O38   1.299741 A    
N12   O50   1.293985 A    
C40   H29   1.081397 S    
N5    O34   1.300715 A    
C44   H31   1.063738 S    
N9    O45   1.300691 A    
C11   O22   1.400350 S    
C3    C49   1.522080 S    
C8    H9    1.109105 S    
C30   H24   1.074474 S    
C26   C27   1.403239 A    
C35   H26   1.080917 S    
O3    Ba1   2.834395 S    
C37   C39   1.418954 A    
Ba1   O13   2.841462 S    
C1    C10   1.534574 S    
N13   O53   1.300210 A    
O4    P6    1.543081 D    
C19   C50   1.488035 S    
C10   C48   1.483186 S    
C11   N6    1.467158 S    
C15   H18   1.110266 S    
C49   O41   1.221315 D    
C14   N9    1.473030 S    
H1    C10   1.107748 S    
C7    H8    1.096628 S    
C45   H32   1.084469 S    
P5    C41   1.852104 S    
C25   C29   1.416773 A    
P2    O7    1.580817 D    
P2    C32   1.857494 S    
C32   C33   1.410888 A    
C43   O25   1.218430 D    
N5    O33   1.297557 A    
C5    C43   1.507983 S    
C38   C40   1.392683 A    
N15   O58   1.302127 A    
C9    N5    1.471067 S    
C1    C46   1.505681 S    
C9    H10   1.106997 S    
C2    C3    1.575375 S    
N3    O27   1.295575 A    
C5    H6    1.089604 S    
C14   H17   1.108370 S    
N17   O62   1.300971 A    
C8    N4    1.448557 S    
C39   C42   1.407748 A    
N7    O39   1.298495 A    
C6    N3    1.460712 S    
C24   C30   1.411286 A    
P5    O19   1.736218 S    
C3    N16   1.474398 S    
C1    H11   1.103147 S    
C48   O36   1.216493 D    
N1    N2    1.252129 D    
C41   C42   1.406543 A    
O16   Ba2   3.030165 S    
N10   O46   1.300482 A    
C47   O35   1.221685 D    
C31   C32   1.398632 A    
C49   H36   1.086067 S    
O17   Ba2   2.845623 S    
C37   H25   1.073949 S    
Ba1   O16   2.813239 S    
C6    C7    1.558289 S    
