data_mof_unit_56613.cif
_audit_creation_date              2012-12-11T14:25:56-0500
_audit_creation_method            fapswitch 2.2
_symmetry_space_group_name_H-M    P1
_symmetry_Int_Tables_number       1
_space_group_crystal_system       triclinic
_cell_length_a                    6.958839
_cell_length_b                    14.759427
_cell_length_c                    16.270907
_cell_angle_alpha                 90.497034
_cell_angle_beta                  90.497839
_cell_angle_gamma                 89.996657
_cell_volume                      1671.03410314

loop_
_atom_site_label
_atom_site_type_symbol
_atom_type_description
_atom_site_fract_x
_atom_site_fract_y
_atom_site_fract_z
_atom_type_partial_charge
O1    O     O_R   0.494490 0.416160 0.413410 -0.544360
O2    O     O_R   0.823830 0.407240 0.585990 -0.512112
O3    O     O_R   0.994160 0.583840 0.586590 -0.534076
C1    C     C_R   0.655093 0.383305 0.612073 0.790640
O4    O     O_R   0.824200 0.405280 0.414020 -0.546906
O5    O     O_R   0.994530 0.581860 0.413390 -0.540613
C2    C     C_R   0.653620 0.379994 0.388800 0.591008
O6    O     O_R   0.494110 0.418140 0.586610 -0.526013
O7    O     O_3   0.660810 0.557940 0.500000 -0.366991
V1    V     V_3+5 0.935650 0.489250 0.500000 1.583171
O8    O     O_R   0.324250 0.592760 0.414010 -0.538307
C3    C     C_R   0.154470 0.614810 0.386155 0.678279
O9    O     O_R   0.323880 0.594720 0.585980 -0.517057
C4    C     C_R   0.155919 0.616905 0.614282 0.743508
V2    V     V_3+5 0.435660 0.510750 0.500000 1.585646
O10   O     O_3   0.160630 0.442060 0.500000 -0.365851
C5    C     C_3   0.989797 0.661045 0.745718 -0.313535
H1    H     H_    0.846566 0.661722 0.715776 0.217792
H2    H     H_    0.005899 0.590135 0.766370 0.216823
C6    C     C_3   0.987130 0.726185 0.820550 -0.386933
H3    H     H_    0.014675 0.687458 0.877384 0.224866
H4    H     H_    0.840658 0.752849 0.826514 0.220668
H5    H     H_    0.909501 0.865522 0.733277 0.127570
C7    C     C_3   0.097270 0.786225 0.648486 -0.157345
C8    C     C_3   0.345691 0.690752 0.732990 -0.245588
C9    C     C_3   0.148921 0.687904 0.683258 -0.153357
H6    H     H_    0.457728 0.711273 0.689168 0.201572
C10   C     C_3   0.129174 0.806710 0.809272 -0.058269
C11   C     C_3   0.065952 0.852174 0.726042 0.146512
C12   C     C_3   0.341753 0.764739 0.804847 -0.145429
C13   C     C_2   0.998027 0.696307 0.268197 -0.024604
C14   C     C_2   0.142506 0.689970 0.325284 0.260987
C15   C     C_2   0.985084 0.776236 0.212840 -0.103549
C16   C     C_2   0.130446 0.799694 0.163173 0.266817
H7    H     H_    0.848798 0.811963 0.209027 0.133799
C17   C     C_2   0.775718 0.210567 0.783726 -0.189698
C18   C     C_2   0.613927 0.184021 0.821220 -0.303207
H8    H     H_    0.911568 0.178821 0.799900 0.147025
H9    H     H_    0.479863 0.219315 0.809071 0.131930
C19   C     C_2   0.781463 0.289249 0.726180 0.350793
C20   C     C_2   0.643734 0.303925 0.667583 -0.205212
C21   C     C_2   0.765735 0.194901 0.226653 -0.002080
C22   C     C_2   0.621965 0.187722 0.169067 0.212683
C23   C     C_2   0.779400 0.276130 0.281749 -0.132302
C24   C     C_2   0.634184 0.301297 0.331240 0.264550
H10   H     H_    0.916039 0.311622 0.285484 0.133022
O11   O     O_R   0.770850 0.076180 0.907410 -0.541510
O12   O     O_R   0.440600 0.088970 0.079950 -0.546204
O13   O     O_R   0.270430 0.912340 0.080550 -0.539683
C25   C     C_R   0.610316 0.111504 0.107961 0.632814
O14   O     O_R   0.441120 0.087010 0.907980 -0.545190
O15   O     O_R   0.270950 0.910370 0.907350 -0.522909
C26   C     C_R   0.609429 0.110280 0.881660 0.776742
O16   O     O_R   0.770320 0.078150 0.080620 -0.540946
O17   O     O_3   0.604200 0.936340 0.994000 -0.342731
V3    V     V_3+5 0.329300 0.004970 0.993950 1.528659
O18   O     O_R   0.941240 0.899420 0.907920 -0.523983
C27   C     C_R   0.110876 0.876553 0.879764 0.777926
O19   O     O_R   0.940720 0.901380 0.079890 -0.540963
C28   C     C_R   0.111272 0.876872 0.105310 0.666356
V4    V     V_3+5 0.829310 0.983370 0.993880 1.544945
O20   O     O_3   0.104280 0.052120 0.993920 -0.386698
C29   C     C_2   0.490079 0.839708 0.786310 0.767942
O21   O     O_2   0.599150 0.867194 0.840049 -0.554960
O22   O     O_R   0.499968 0.879734 0.709235 -0.609781
H11   H     H_    0.595211 0.931660 0.707233 0.318722
C30   C     C_2   0.247540 0.823930 0.588979 0.923624
O23   O     O_2   0.232264 0.901753 0.564253 -0.519415
O24   O     O_R   0.389292 0.768576 0.555044 -0.656390
H12   H     H_    0.470867 0.801586 0.513610 0.301476
O25   O     O_3   0.153440 0.937608 0.717807 -0.624356
H13   H     H_    0.062521 0.976958 0.687071 0.315511
C31   C     C_2   0.850917 0.624558 0.254850 0.728104
O26   O     O_2   0.685485 0.645685 0.237752 -0.528097
O27   O     O_R   0.903090 0.533103 0.257283 -0.659905
H14   H     H_    0.790860 0.491174 0.245051 0.293836
O28   O     O_3   0.274432 0.760202 0.330430 -0.593512
H15   H     H_    0.364036 0.749296 0.376871 0.306746
O29   O     O_3   0.296345 0.747649 0.164287 -0.583721
H16   H     H_    0.383194 0.767718 0.120145 0.327075
O30   O     O_3   0.932361 0.350007 0.733302 -0.617922
H17   H     H_    0.017577 0.330661 0.779062 0.296874
C32   C     C_2   0.490337 0.236040 0.648672 0.698072
O31   O     O_2   0.326944 0.261154 0.632526 -0.534591
O32   O     O_R   0.534362 0.143538 0.646979 -0.646165
H18   H     H_    0.418460 0.104365 0.633416 0.336329
C33   C     C_2   0.914223 0.123945 0.239920 0.729837
O33   O     O_2   0.871437 0.043625 0.236369 -0.556352
O34   O     O_R   0.101963 0.149557 0.260711 -0.634487
H19   H     H_    0.190246 0.095655 0.268841 0.325709
O35   O     O_3   0.490268 0.257947 0.163686 -0.602836
H20   H     H_    0.404430 0.247460 0.115655 0.299688
O36   O     O_3   0.467905 0.249554 0.330331 -0.591799
H21   H     H_    0.382079 0.270305 0.374910 0.314662
C34   C     C_2   0.914363 0.780049 0.595187 0.707037
O37   O     O_2   0.755854 0.784340 0.626067 -0.558358
O38   O     O_R   0.928071 0.765227 0.510175 -0.660090
H22   H     H_    0.798291 0.759617 0.481884 0.299268
C35   C     C_2   0.409857 0.595795 0.759693 0.788412
O39   O     O_2   0.552491 0.561546 0.728934 -0.564155
O40   O     O_R   0.309489 0.548129 0.819604 -0.657791
H23   H     H_    0.367774 0.486535 0.831169 0.301648
C36   C     C_2   0.402481 0.722643 0.888571 0.798510
O41   O     O_2   0.299246 0.727060 0.948938 -0.580121
O42   O     O_R   0.581741 0.680698 0.896529 -0.667700
H24   H     H_    0.606865 0.656881 0.953889 0.310533

loop_
_geom_bond_atom_site_label_1
_geom_bond_atom_site_label_2
_ccdc_geom_bond_type
O17   V3    S    
C29   O22   S    
O36   H21   S    
C31   O26   D    
C34   O37   D    
C1    O6    A    
C24   O36   S    
O38   H22   S    
O28   H15   S    
C25   O16   A    
O13   C28   A    
C32   O31   D    
C5    C9    S    
H5    C11   S    
C10   C11   S    
C7    C9    S    
O5    C3    A    
C13   C31   S    
C1    C20   S    
V2    O10   S    
C20   C32   S    
C5    C6    S    
O14   V3    S    
C7    C11   S    
C7    C30   S    
C5    H2    S    
C14   O28   S    
O8    V2    S    
C8    C35   S    
C13   C14   D    
C10   C12   S    
C12   C36   S    
C13   C15   S    
O1    V2    S    
O7    V1    S    
O11   C26   A    
C18   C26   S    
O12   C25   A    
O19   C28   A    
C12   C29   S    
C3    C14   S    
C16   C28   S    
C31   O27   S    
V4    O20   S    
C21   C23   S    
C23   H10   S    
O30   H17   S    
O19   V4    S    
C30   O23   D    
O40   H23   S    
C17   C19   S    
C7    C34   S    
O35   H20   S    
O4    C2    A    
C6    C10   S    
C8    C9    S    
O32   H18   S    
C22   O35   S    
C29   O21   D    
O14   C26   A    
O2    C1    A    
O27   H14   S    
O5    V1    S    
C16   O29   S    
C35   O39   D    
C5    H1    S    
C36   O42   S    
C4    C9    S    
O3    C4    A    
O15   C27   A    
C19   C20   D    
C32   O32   S    
C6    H4    S    
O6    V2    S    
O9    V2    S    
V3    O20   S    
C21   C22   D    
O2    V1    S    
C2    C24   S    
C23   C24   D    
C8    C12   S    
O12   V3    S    
C17   C18   D    
C35   O40   S    
O1    C2    A    
C19   O30   S    
O11   V4    S    
O8    C3    A    
C34   O38   S    
C22   C25   S    
O18   V4    S    
O16   V4    S    
C10   C27   S    
C8    H6    S    
O13   V3    S    
O42   H24   S    
C33   O34   S    
O7    V2    S    
O4    V1    S    
C18   H9    S    
O3    V1    S    
V1    O10   S    
O18   C27   A    
O17   V4    S    
C17   H8    S    
C15   H7    S    
C15   C16   D    
O24   H12   S    
O29   H16   S    
O25   H13   S    
C6    H3    S    
C33   O33   D    
O22   H11   S    
C36   O41   D    
C21   C33   S    
C30   O24   S    
O34   H19   S    
O9    C4    A    
O15   V3    S    
C11   O25   S    
