data_mof_unit_19255.cif
_audit_creation_date              2012-12-11T14:50:32-0500
_audit_creation_method            fapswitch 2.2
_symmetry_space_group_name_H-M    P1
_symmetry_Int_Tables_number       1
_space_group_crystal_system       triclinic
_cell_length_a                    10.837583
_cell_length_b                    10.917556
_cell_length_c                    18.720851
_cell_angle_alpha                 90.410182
_cell_angle_beta                  90.186916
_cell_angle_gamma                 60.333933
_cell_volume                      1924.66207653

loop_
_atom_site_label
_atom_site_type_symbol
_atom_type_description
_atom_site_fract_x
_atom_site_fract_y
_atom_site_fract_z
_atom_type_partial_charge
C1    C     C_R   0.231038 0.648756 0.607769 0.531639
C2    C     C_3   0.725547 0.500523 0.806028 -0.251401
C3    C     C_3   0.683230 0.656613 0.818805 0.031149
C4    C     C_3   0.641077 0.619506 0.684750 0.054132
C5    C     C_3   0.742583 0.680457 0.689994 -0.211525
C6    C     C_3   0.706006 0.478412 0.726413 -0.274082
C7    C     C_R   0.793759 0.146546 0.706790 -0.151343
C8    C     C_R   0.808423 0.117103 0.779814 -0.150223
C9    C     C_R   0.718748 0.076572 0.812990 0.015109
C10   C     C_R   0.614704 0.066857 0.772567 -0.135896
C11   C     C_R   0.597220 0.100440 0.701302 -0.127660
C12   C     C_R   0.626247 0.587908 0.608970 0.561356
C13   C     C_R   0.681519 0.147477 0.668611 0.017923
C14   C     C_R   0.171970 0.563880 0.717486 -0.154699
C15   C     C_R   0.141261 0.582414 0.789970 -0.149681
C16   C     C_R   0.104875 0.711953 0.822870 0.015253
C17   C     C_R   0.099901 0.821457 0.782994 -0.140487
C18   C     C_R   0.123303 0.805802 0.710482 -0.121311
C19   C     C_R   0.165457 0.675151 0.677730 0.014447
C20   C     C_R   0.734303 0.527584 0.272256 -0.126404
C21   C     C_R   0.731288 0.538871 0.199190 -0.131249
C22   C     C_R   0.650003 0.670408 0.167279 0.034098
C23   C     C_R   0.631145 0.223582 0.601515 0.535624
C24   C     C_R   0.558061 0.787746 0.209238 -0.127879
C25   C     C_R   0.556026 0.774631 0.283239 -0.133854
C26   C     C_R   0.648305 0.645112 0.315162 0.033708
C27   C     C_R   0.547163 0.152036 0.288034 -0.134854
C28   C     C_R   0.544897 0.149223 0.214909 -0.131956
C29   C     C_R   0.649184 0.160082 0.176007 0.039048
C30   C     C_R   0.751207 0.181583 0.210923 -0.150238
C31   C     C_R   0.752910 0.185348 0.284600 -0.144077
C32   C     C_R   0.648279 0.174684 0.323234 0.037949
C33   C     C_R   0.074776 0.817833 0.308269 -0.128252
C34   C     C_R   0.217533 0.650925 0.402130 0.546107
C35   C     C_R   0.033905 0.839137 0.237492 -0.128539
C36   C     C_R   0.045447 0.727340 0.195654 0.027779
C37   C     C_R   0.083534 0.597297 0.227522 -0.127200
C38   C     C_R   0.127998 0.574650 0.298405 -0.131881
C39   C     C_R   0.131856 0.682826 0.337562 0.028248
C40   C     C_R   0.727794 0.041947 0.888775 0.540443
C41   C     C_R   0.715889 0.681846 0.892096 0.530926
C42   C     C_R   0.059748 0.739859 0.896846 0.545894
C43   C     C_R   0.673776 0.109298 0.103602 0.554744
C44   C     C_R   0.693453 0.689529 0.096761 0.541953
C45   C     C_R   0.640720 0.620611 0.390887 0.554632
C46   C     C_R   0.024497 0.747725 0.118785 0.569340
C47   C     C_R   0.618632 0.226691 0.395444 0.551531
C48   C     C_3   0.523282 0.747222 0.801027 -0.202063
C49   C     C_3   0.496270 0.725147 0.722036 0.035411
C50   C     C_3   0.773883 0.692957 0.768447 -0.230949
Cr1   Cr    Cr6+3 0.392930 0.397900 0.502230 1.023675
Cr2   Cr    Cr6+3 0.398240 0.708600 0.501260 1.060337
Cr3   Cr    Cr6+3 0.708800 0.393470 0.496460 1.010436
Cr4   Cr    Cr6+3 0.937620 0.938540 0.007640 1.007415
Cr5   Cr    Cr6+3 0.625150 0.937450 0.994520 1.005504
Cr6   Cr    Cr6+3 0.937990 0.625080 0.001190 1.009494
H1    H     H_    0.486753 0.859935 0.812214 0.169971
H2    H     H_    0.811546 0.403187 0.703523 0.143267
H3    H     H_    0.887546 0.617759 0.778388 0.135436
H4    H     H_    0.844588 0.611298 0.661960 0.138368
H5    H     H_    0.862886 0.178484 0.681604 0.128597
H6    H     H_    0.885761 0.130551 0.810387 0.122066
H7    H     H_    0.543991 0.035554 0.796531 0.153159
H8    H     H_    0.511087 0.098396 0.673013 0.189255
H9    H     H_    0.206046 0.461520 0.693435 0.146150
H10   H     H_    0.146120 0.495691 0.819978 0.144381
H11   H     H_    0.079038 0.919059 0.808136 0.137934
H12   H     H_    0.460020 0.717461 0.836353 0.114509
H13   H     H_    0.117678 0.893481 0.681085 0.179390
H14   H     H_    0.804103 0.425334 0.294944 0.130443
H15   H     H_    0.802029 0.446333 0.168109 0.127225
H16   H     H_    0.494355 0.890511 0.185504 0.126462
H17   H     H_    0.485386 0.865380 0.315372 0.120091
H18   H     H_    0.464863 0.143852 0.316724 0.128002
H19   H     H_    0.465417 0.131363 0.189243 0.128340
H20   H     H_    0.833537 0.188325 0.181488 0.113468
H21   H     H_    0.832674 0.201422 0.311144 0.117506
H22   H     H_    0.073123 0.904143 0.338008 0.130434
H23   H     H_    0.425842 0.678136 0.720356 0.138104
H24   H     H_    0.002718 0.940538 0.214136 0.130405
H25   H     H_    0.088722 0.510550 0.196697 0.134559
H26   H     H_    0.169388 0.470132 0.320506 0.130284
H27   H     H_    0.758081 0.799106 0.779680 0.118834
H28   H     H_    0.694860 0.785547 0.664205 0.172915
H29   H     H_    0.838261 0.428720 0.821063 0.147342
H30   H     H_    0.658914 0.471805 0.839363 0.132522
H31   H     H_    0.635339 0.431930 0.721291 0.117606
O1    O     O_R   0.507430 0.255570 0.581420 -0.513740
O2    O     O_R   0.524460 0.695920 0.424060 -0.492910
O3    O     O_R   0.736530 0.504260 0.414810 -0.524075
O4    O     O_R   0.691460 0.277160 0.422180 -0.509239
O5    O     O_3   0.499990 0.499990 0.499980 -0.271315
O6    O     O_R   0.089490 0.825610 0.930610 -0.513169
O7    O     O_R   0.818370 0.054540 0.929880 -0.511990
O8    O     O_R   0.605870 0.077310 0.915530 -0.507019
O9    O     O_R   0.646440 0.806700 0.917570 -0.525943
O10   O     O_R   0.837200 0.593290 0.915250 -0.529381
O11   O     O_R   0.065330 0.635370 0.931590 -0.492061
O12   O     O_R   0.280190 0.527390 0.578910 -0.509966
O13   O     O_R   0.068300 0.828790 0.091860 -0.507389
O14   O     O_R   0.798730 0.057480 0.079370 -0.521323
O15   O     O_R   0.584680 0.080480 0.076790 -0.517792
O16   O     O_R   0.626790 0.809640 0.067050 -0.503535
O17   O     O_R   0.816010 0.596460 0.076500 -0.530845
O18   O     O_R   0.045680 0.638310 0.081070 -0.492446
O19   O     O_3   0.833590 0.833690 0.001120 -0.301111
O20   O     O_R   0.260310 0.739740 0.584580 -0.497614
O21   O     O_R   0.532250 0.695150 0.573830 -0.442607
O22   O     O_R   0.744930 0.503430 0.576380 -0.528929
O23   O     O_R   0.699250 0.276390 0.571950 -0.522025
O24   O     O_R   0.499020 0.256400 0.419850 -0.520891
O25   O     O_R   0.272400 0.528160 0.429140 -0.503101
O26   O     O_R   0.251910 0.740570 0.423020 -0.520410
Br1   Br    Br    0.389394 0.912066 0.678175 -0.603804

loop_
_geom_bond_atom_site_label_1
_geom_bond_atom_site_label_2
_ccdc_geom_bond_type
Cr3   O23   S    
Cr1   O25   S    
C42   O6    A    
C34   O25   A    
C3    C48   S    
Cr4   O14   S    
C35   C36   A    
Cr6   O11   S    
C37   H25   S    
C1    O12   A    
C44   O17   A    
C7    C8    A    
Cr2   O26   S    
C34   O26   A    
Cr5   O15   S    
C33   C39   A    
C21   H15   S    
C50   H3    S    
C36   C37   A    
C42   O11   A    
C38   C39   A    
C33   H22   S    
C41   O9    A    
C15   C16   A    
C46   O18   A    
Cr5   O16   S    
C35   H24   S    
C13   C23   S    
C2    H29   S    
C18   C19   A    
C6    H2    S    
C7    H5    S    
Cr4   O6    S    
C26   C45   S    
C33   C35   A    
C44   O16   A    
C22   C44   S    
C10   H7    S    
Cr2   O20   S    
C8    C9    A    
Cr3   O4    S    
C36   C46   S    
C4    C12   S    
C29   C30   A    
C45   O2    A    
C9    C10   A    
C25   H17   S    
C18   H13   S    
C49   Br1   S    
C21   C22   A    
C29   C43   S    
C20   H14   S    
Cr2   O2    S    
C2    C6    S    
Cr6   O10   S    
C12   O22   A    
C3    C50   S    
C50   H27   S    
C31   H21   S    
Cr1   O12   S    
C17   H11   S    
C1    C19   S    
Cr4   O19   S    
Cr5   O19   S    
C34   C39   S    
C48   H1    S    
C24   C25   A    
Cr6   O17   S    
Cr5   O8    S    
C11   H8    S    
C12   O21   A    
C5    H28   S    
C16   C17   A    
C25   C26   A    
C15   H10   S    
C9    C40   S    
C6    H31   S    
C49   H23   S    
C43   O14   A    
C37   C38   A    
Cr1   O5    S    
C30   H20   S    
C31   C32   A    
C7    C13   A    
Cr3   O5    S    
C17   C18   A    
C48   H12   S    
C45   O3    A    
Cr6   O19   S    
C1    O20   A    
C4    C6    S    
C48   C49   S    
C23   O1    A    
C32   C47   S    
C41   O10   A    
C5    C50   S    
Cr2   O5    S    
C40   O8    A    
C27   H18   S    
C16   C42   S    
Cr3   O3    S    
C24   H16   S    
Cr3   O22   S    
C23   O23   A    
C46   O13   A    
C28   C29   A    
Cr1   O24   S    
C5    H4    S    
C27   C32   A    
C47   O4    A    
C14   C19   A    
C40   O7    A    
Cr5   O9    S    
Cr1   O1    S    
C4    C49   S    
C2    C3    S    
C43   O15   A    
C11   C13   A    
C30   C31   A    
C20   C26   A    
C47   O24   A    
Cr4   O13   S    
C14   H9    S    
C2    H30   S    
C22   C24   A    
Cr6   O18   S    
Cr4   O7    S    
C3    C41   S    
C10   C11   A    
C4    C5    S    
C20   C21   A    
Cr2   O21   S    
C27   C28   A    
C14   C15   A    
C28   H19   S    
C38   H26   S    
C8    H6    S    
