data_mof_unit_5781.cif
_audit_creation_date              2012-12-10T20:53:11-0500
_audit_creation_method            fapswitch 2.2
_symmetry_space_group_name_H-M    P1
_symmetry_Int_Tables_number       1
_space_group_crystal_system       triclinic
_cell_length_a                    18.358382
_cell_length_b                    18.360851
_cell_length_c                    18.354196
_cell_angle_alpha                 59.786806
_cell_angle_beta                  59.783379
_cell_angle_gamma                 59.769778
_cell_volume                      4352.84075259

loop_
_atom_site_label
_atom_site_type_symbol
_atom_type_description
_atom_site_fract_x
_atom_site_fract_y
_atom_site_fract_z
_atom_type_partial_charge
C1    C     C_R   0.389973 0.110200 0.110140 0.479868
C2    C     C_R   0.347528 0.825649 0.824295 -0.088194
C3    C     C_R   0.036898 0.547419 0.908457 0.009820
C4    C     C_R   0.450508 0.090859 0.963762 0.009777
C5    C     C_R   0.549522 0.909137 0.036197 0.009586
C6    C     C_R   0.945811 0.946093 0.553621 0.006617
C7    C     C_R   0.054129 0.053952 0.446311 0.007044
C8    C     C_R   0.946041 0.553726 0.945841 0.007625
C9    C     C_R   0.053955 0.446267 0.054143 0.007841
C10   C     C_R   0.553681 0.945838 0.946044 0.006816
C11   C     C_R   0.446320 0.054152 0.053935 0.006862
C12   C     C_3   0.229919 0.537876 0.340819 -0.283387
C13   C     C_R   0.190324 0.217797 0.624133 -0.087502
C14   C     C_3   0.308264 0.457129 0.316785 -0.427393
C15   C     C_3   0.782735 0.431853 0.678570 -0.283983
C16   C     C_3   0.696936 0.505746 0.707292 -0.429485
C17   C     C_3   0.555673 0.332855 0.220390 -0.280989
C18   C     C_3   0.629058 0.345711 0.224838 -0.449756
C19   C     C_3   0.424756 0.683042 0.789571 -0.283869
C20   C     C_3   0.499279 0.709890 0.703466 -0.428094
C21   C     C_3   0.341197 0.235521 0.526633 -0.274900
C22   C     C_3   0.393423 0.218112 0.580510 -0.452529
C23   C     C_3   0.677221 0.785245 0.430640 -0.284280
C24   C     C_R   0.822281 0.815794 0.350561 -0.088250
C25   C     C_3   0.703037 0.700024 0.506274 -0.429190
C26   C     C_R   0.173730 0.585893 0.281058 0.069016
C27   C     C_R   0.843415 0.396960 0.730351 0.066059
C28   C     C_R   0.595131 0.275608 0.163672 0.068749
C29   C     C_R   0.393733 0.733017 0.850659 0.066547
C30   C     C_R   0.281286 0.179010 0.579697 0.073248
C31   C     C_R   0.729860 0.844689 0.396911 0.065780
C32   C     C_R   0.085021 0.586848 0.313410 0.069921
C33   C     C_R   0.610029 0.889798 0.889850 0.479974
C34   C     C_R   0.927114 0.410081 0.689408 0.067543
C35   C     C_R   0.588790 0.311412 0.077432 0.069621
C36   C     C_R   0.409347 0.689964 0.933313 0.067362
C37   C     C_R   0.313836 0.088360 0.586064 0.074399
C38   C     C_R   0.689450 0.928390 0.409860 0.067870
C39   C     C_R   0.036511 0.633019 0.254374 -0.089751
C40   C     C_R   0.979799 0.376454 0.741703 -0.087797
C41   C     C_R   0.627516 0.254712 0.027902 -0.089199
C42   C     C_R   0.379143 0.740469 0.986624 -0.089043
C43   C     C_R   0.254899 0.039351 0.636328 -0.093934
C44   C     C_R   0.110176 0.110152 0.389979 0.480010
C45   C     C_R   0.742246 0.980421 0.376570 -0.087639
C46   C     C_R   0.074711 0.678194 0.164424 -0.112020
C47   C     C_R   0.950488 0.330377 0.833286 -0.109204
C48   C     C_R   0.671253 0.163460 0.063317 -0.109034
C49   C     C_R   0.334044 0.832440 0.958872 -0.107933
C50   C     C_R   0.164875 0.079023 0.680087 -0.112562
C51   C     C_R   0.833956 0.950206 0.331342 -0.108116
C52   C     C_R   0.161582 0.678078 0.132482 -0.119085
C53   C     C_R   0.868571 0.316772 0.873645 -0.117572
C54   C     C_R   0.676909 0.127866 0.148428 -0.116240
C55   C     C_R   0.889802 0.889864 0.610012 0.479903
C56   C     C_R   0.318230 0.874963 0.877834 -0.115744
C57   C     C_R   0.132660 0.168044 0.674069 -0.116889
C58   C     C_R   0.873921 0.867997 0.318375 -0.116476
C59   C     C_R   0.985009 0.591707 0.463957 -0.174034
C60   C     C_R   0.015452 0.407992 0.536281 -0.174373
C61   C     C_R   0.592434 0.463311 0.982597 -0.167604
C62   C     C_R   0.407572 0.536678 0.018939 -0.174914
C63   C     C_R   0.463998 0.986109 0.591576 -0.172536
C64   C     C_R   0.536548 0.017409 0.407611 -0.171552
C65   C     C_R   0.945501 0.552041 0.555511 0.014917
C66   C     C_R   0.110130 0.389957 0.110218 0.480189
C67   C     C_R   0.055368 0.447573 0.444849 0.017469
C68   C     C_R   0.552105 0.555425 0.946193 0.015575
C69   C     C_R   0.447851 0.444618 0.055192 0.007707
C70   C     C_R   0.555521 0.946326 0.551934 0.014506
C71   C     C_R   0.445045 0.056919 0.447319 0.012574
C72   C     C_R   0.961834 0.458595 0.592475 -0.040636
C73   C     C_R   0.041088 0.540496 0.408375 -0.039237
C74   C     C_R   0.458161 0.592788 0.965504 -0.039454
C75   C     C_R   0.541510 0.407488 0.037707 -0.038600
C76   C     C_R   0.592608 0.963459 0.458309 -0.038145
C77   C     C_R   0.889870 0.610042 0.889774 0.480414
C78   C     C_R   0.408673 0.043407 0.540104 -0.030073
C79   C     C_R   0.110625 0.390449 0.389757 0.496281
C80   C     C_R   0.889561 0.609467 0.610317 0.494507
C81   C     C_R   0.390521 0.389700 0.110615 0.494456
C82   C     C_R   0.609469 0.610299 0.889863 0.493490
C83   C     C_R   0.389771 0.111088 0.390400 0.491985
C84   C     C_R   0.610304 0.889704 0.609442 0.492805
C85   C     C_R   0.180613 0.927215 0.399356 -0.092166
C86   C     C_R   0.819237 0.072907 0.600339 -0.092657
C87   C     C_R   0.924652 0.406940 0.183083 -0.092252
C88   C     C_R   0.210684 0.632451 0.190313 -0.087547
C89   C     C_R   0.075291 0.593147 0.816929 -0.092617
C90   C     C_R   0.402866 0.181807 0.925934 -0.092442
C91   C     C_R   0.597226 0.818205 0.073987 -0.092770
C92   C     C_R   0.215448 0.838720 0.402961 -0.124183
C93   C     C_R   0.784351 0.161449 0.596611 -0.124543
C94   C     C_R   0.834646 0.414941 0.219284 -0.123494
C95   C     C_R   0.165118 0.585722 0.780873 -0.124042
C96   C     C_R   0.408567 0.217314 0.836658 -0.124473
C97   C     C_R   0.591936 0.782809 0.163118 -0.124562
C98   C     C_R   0.161724 0.785272 0.456108 -0.128128
C99   C     C_R   0.815620 0.349408 0.822587 -0.089268
C100  C     C_R   0.838084 0.214890 0.543498 -0.128741
C101  C     C_R   0.781020 0.468691 0.165674 -0.130704
C102  C     C_R   0.218634 0.532444 0.834600 -0.128761
C103  C     C_R   0.462020 0.163645 0.783101 -0.130282
C104  C     C_R   0.538787 0.836559 0.216594 -0.129059
C105  C     C_R   0.072903 0.820033 0.505957 -0.097179
C106  C     C_R   0.926959 0.180081 0.493786 -0.097148
C107  C     C_R   0.817183 0.514388 0.075502 -0.097998
C108  C     C_R   0.182602 0.486310 0.924659 -0.097231
C109  C     C_R   0.509884 0.074152 0.818578 -0.097471
C110  C     C_R   0.639171 0.183472 0.198260 -0.086637
C111  C     C_R   0.490608 0.925963 0.181229 -0.098011
C112  C     C_R   0.035607 0.910095 0.502775 0.009529
C113  C     C_R   0.964295 0.089984 0.497066 0.009843
C114  C     C_R   0.908638 0.506911 0.036959 0.010249
C115  C     C_R   0.091298 0.493270 0.963073 0.009965
C116  C     C_R   0.504687 0.036260 0.909350 0.009597
C117  C     C_R   0.495445 0.963763 0.090578 0.009227
C118  C     C_R   0.090220 0.964458 0.448705 0.010058
C119  C     C_R   0.909679 0.035624 0.551124 0.009901
C120  C     C_R   0.963081 0.452607 0.091536 0.010118
H1    H     H_    0.810678 0.283804 0.540356 0.101522
H2    H     H_    0.335965 0.565647 0.032074 0.145319
H3    H     H_    0.435443 0.975088 0.662838 0.141618
H4    H     H_    0.565083 0.028282 0.336403 0.141962
H5    H     H_    0.225555 0.965595 0.358013 0.118946
H6    H     H_    0.774296 0.034525 0.641653 0.118493
H7    H     H_    0.963330 0.365208 0.227799 0.115977
H8    H     H_    0.036676 0.634647 0.772155 0.116011
H9    H     H_    0.361331 0.226638 0.964476 0.117258
H10   H     H_    0.638607 0.773331 0.035491 0.117290
H11   H     H_    0.284603 0.811388 0.364728 0.109019
H12   H     H_    0.189096 0.716388 0.459170 0.101614
H13   H     H_    0.715154 0.188820 0.634729 0.109134
H14   H     H_    0.806288 0.379708 0.289385 0.108242
H15   H     H_    0.193380 0.621175 0.710828 0.108571
H16   H     H_    0.371765 0.286939 0.808805 0.108772
H17   H     H_    0.628912 0.713232 0.190889 0.109101
H18   H     H_    0.034302 0.775305 0.547246 0.117177
H19   H     H_    0.965571 0.224800 0.452508 0.116829
H20   H     H_    0.772505 0.555999 0.036787 0.113549
H21   H     H_    0.227214 0.444954 0.963440 0.114077
H22   H     H_    0.551329 0.035487 0.773863 0.115178
H23   H     H_    0.288493 0.526493 0.806321 0.101927
H24   H     H_    0.449330 0.964673 0.225897 0.115996
H25   H     H_    0.191024 0.713378 0.062742 0.113149
H26   H     H_    0.845969 0.280831 0.944655 0.112791
H27   H     H_    0.710496 0.057018 0.175981 0.111441
H28   H     H_    0.283198 0.946302 0.856364 0.112408
H29   H     H_    0.062783 0.198646 0.708018 0.113259
H30   H     H_    0.945055 0.844622 0.283230 0.112022
H31   H     H_    0.277861 0.633446 0.164347 0.098378
H32   H     H_    0.752505 0.337706 0.855118 0.098055
H33   H     H_    0.643914 0.154646 0.264302 0.099349
H34   H     H_    0.710947 0.475473 0.194152 0.101648
H35   H     H_    0.334309 0.859782 0.761861 0.095854
H36   H     H_    0.164013 0.286797 0.620294 0.095532
H37   H     H_    0.854428 0.752459 0.339392 0.096815
H38   H     H_    0.969182 0.633239 0.278060 0.095561
H39   H     H_    0.043511 0.386638 0.711415 0.096326
H40   H     H_    0.622793 0.281213 0.962127 0.095098
H41   H     H_    0.391506 0.708518 0.049433 0.094810
H42   H     H_    0.278627 0.970576 0.640522 0.094634
H43   H     H_    0.712271 0.044218 0.386534 0.095293
H44   H     H_    0.036845 0.713394 0.119425 0.113313
H45   H     H_    0.534471 0.808780 0.285938 0.102073
H46   H     H_    0.991441 0.305090 0.872993 0.115420
H47   H     H_    0.700457 0.120205 0.024845 0.114089
H48   H     H_    0.311437 0.870805 0.000234 0.115508
H49   H     H_    0.119940 0.040741 0.718477 0.113075
H50   H     H_    0.874099 0.990596 0.306375 0.114619
H51   H     H_    0.350059 0.425467 0.359292 0.116004
H52   H     H_    0.283543 0.406917 0.328171 0.162968
H53   H     H_    0.350782 0.477908 0.245698 0.145486
H54   H     H_    0.190177 0.514627 0.412614 0.141530
H55   H     H_    0.256205 0.585142 0.333113 0.127196
H56   H     H_    0.466913 0.191577 0.713591 0.103157
H57   H     H_    0.658956 0.480734 0.779481 0.153059
H58   H     H_    0.712967 0.562889 0.694323 0.162682
H59   H     H_    0.653738 0.529361 0.668659 0.119823
H60   H     H_    0.815816 0.458753 0.605362 0.143379
H61   H     H_    0.765442 0.375899 0.690553 0.129516
H62   H     H_    0.673877 0.280413 0.256120 0.148817
H63   H     H_    0.669148 0.378534 0.156491 0.158449
H64   H     H_    0.598261 0.388878 0.265770 0.129493
H65   H     H_    0.515567 0.300546 0.289088 0.132751
H66   H     H_    0.509734 0.399830 0.193844 0.142929
H67   H     H_    0.974276 0.662885 0.435446 0.143416
H68   H     H_    0.475813 0.782414 0.665727 0.154335
H69   H     H_    0.557762 0.694278 0.719024 0.163791
H70   H     H_    0.520462 0.672089 0.660344 0.119711
H71   H     H_    0.449662 0.609501 0.822178 0.143937
H72   H     H_    0.367228 0.698128 0.772734 0.130800
H73   H     H_    0.346622 0.232677 0.643754 0.150487
H74   H     H_    0.438503 0.147621 0.596535 0.158139
H75   H     H_    0.434759 0.262273 0.540874 0.129648
H76   H     H_    0.300402 0.307717 0.508428 0.128671
H77   H     H_    0.388176 0.222743 0.462678 0.139577
H78   H     H_    0.026044 0.336896 0.564681 0.142548
H79   H     H_    0.775105 0.660651 0.483258 0.153796
H80   H     H_    0.688775 0.716836 0.563444 0.161811
H81   H     H_    0.663480 0.658012 0.529137 0.120072
H82   H     H_    0.604020 0.819649 0.455409 0.143587
H83   H     H_    0.690629 0.767201 0.374571 0.130010
H84   H     H_    0.664044 0.434344 0.969659 0.143888
O1    O     O_3   0.250000 0.250000 0.250000 -0.439497
O2    O     O_R   0.865800 0.694910 0.573470 -0.551581
O3    O     O_R   0.305090 0.426530 0.134200 -0.548674
O4    O     O_R   0.694910 0.573470 0.865800 -0.552013
O5    O     O_R   0.426530 0.134200 0.305090 -0.550711
O6    O     O_R   0.573470 0.865800 0.694910 -0.552654
O7    O     O_R   0.134190 0.426530 0.134200 -0.542972
O8    O     O_R   0.865810 0.573470 0.865800 -0.542840
O9    O     O_R   0.426530 0.134200 0.134190 -0.543596
O10   O     O_R   0.573470 0.865800 0.865810 -0.542728
O11   O     O_R   0.134200 0.134190 0.426530 -0.543306
O12   O     O_3   0.750000 0.750000 0.750000 -0.439514
O13   O     O_R   0.865800 0.865810 0.573470 -0.543658
O14   O     O_R   0.426530 0.305080 0.134210 -0.532461
O15   O     O_R   0.573470 0.694920 0.865790 -0.531423
O16   O     O_R   0.305080 0.134210 0.426530 -0.532976
O17   O     O_R   0.694920 0.865790 0.573470 -0.530964
O18   O     O_R   0.134210 0.426530 0.305080 -0.531331
O19   O     O_R   0.865790 0.573470 0.694920 -0.531566
O20   O     O_R   0.305080 0.134200 0.134200 -0.543134
O21   O     O_R   0.694920 0.865800 0.865800 -0.542597
O22   O     O_R   0.134200 0.134200 0.305080 -0.543226
O23   O     O_R   0.865800 0.865800 0.694920 -0.542128
O24   O     O_R   0.134200 0.305080 0.134200 -0.542742
O25   O     O_R   0.865800 0.694920 0.865800 -0.541806
O26   O     O_R   0.134200 0.305090 0.426530 -0.551778
Zn1   Zn    Zn3+2 0.206620 0.206630 0.380140 0.920675
Zn2   Zn    Zn3+2 0.793380 0.793370 0.619860 0.917497
Zn3   Zn    Zn3+2 0.206630 0.380140 0.206620 0.921834
Zn4   Zn    Zn3+2 0.793370 0.619860 0.793380 0.917578
Zn5   Zn    Zn3+2 0.380140 0.206620 0.206630 0.920325
Zn6   Zn    Zn3+2 0.619860 0.793380 0.793370 0.916953
Zn7   Zn    Zn3+2 0.206620 0.206620 0.206620 0.919358
Zn8   Zn    Zn3+2 0.793380 0.793380 0.793380 0.920433

loop_
_geom_bond_atom_site_label_1
_geom_bond_atom_site_label_2
_ccdc_geom_bond_type
C101  C107  A    
C40   C47   A    
C80   O2    A    
O18   Zn3   S    
C56   H28   S    
C2    H35   S    
C34   C72   S    
C89   C95   A    
C86   H6    S    
C44   O11   A    
O12   Zn4   S    
C40   H39   S    
C36   C42   A    
C19   C20   S    
C1    C11   S    
C6    C55   S    
C82   O4    A    
C42   H41   S    
C92   C98   A    
O9    Zn5   S    
C55   O13   A    
C91   H10   S    
C38   C76   S    
C53   C99   A    
C48   C54   A    
C48   H47   S    
C29   C36   A    
C35   C75   S    
C52   H25   S    
C98   C105  A    
C1    O20   A    
O11   Zn1   S    
C101  H34   S    
C108  C115  A    
C86   C93   A    
O14   Zn5   S    
C14   H53   S    
C33   O21   A    
C84   O17   A    
C97   H17   S    
C61   H84   S    
C20   H70   S    
C84   O6    A    
C64   C71   A    
C13   C57   A    
C45   C51   A    
C68   C74   A    
C15   C16   S    
C87   C94   A    
C46   C52   A    
C54   C110  A    
C100  H1    S    
C32   C39   A    
C55   O23   A    
C107  H20   S    
C9    C66   S    
C103  H56   S    
C38   C45   A    
C77   O8    A    
C94   H14   S    
C104  H45   S    
C113  C119  A    
C90   H9    S    
C85   H5    S    
C82   O15   A    
C112  C118  A    
C28   C35   A    
C17   H65   S    
C57   H29   S    
C94   C101  A    
C22   H73   S    
C102  C108  A    
C109  H22   S    
C67   C73   A    
O6    Zn6   S    
C50   H49   S    
C70   C84   S    
O20   Zn7   S    
C59   C73   A    
C13   H36   S    
C4    C90   A    
C109  C116  A    
C95   C102  A    
C60   H78   S    
C19   H72   S    
C47   C53   A    
C103  C109  A    
C105  H18   S    
C21   H76   S    
C65   C80   S    
C46   H44   S    
C21   C22   S    
O21   Zn8   S    
C50   C57   A    
C7    C118  A    
C85   C118  A    
C87   H7    S    
C108  H21   S    
C85   C92   A    
C16   H58   S    
C71   C83   S    
C27   C34   A    
O22   Zn7   S    
C23   H82   S    
O2    Zn2   S    
C9    C115  A    
C13   C30   A    
O1    Zn5   S    
C92   H11   S    
C67   C79   S    
C26   C88   A    
C60   C67   A    
C49   H48   S    
C14   H52   S    
C3    C8    A    
C99   H32   S    
C20   H69   S    
C47   H46   S    
C5    C117  A    
C24   H37   S    
C106  C113  A    
C28   C110  A    
C64   H4    S    
O23   Zn8   S    
C61   C75   A    
O7    Zn3   S    
C30   C37   A    
C12   C26   S    
C23   C31   S    
C37   C43   A    
O1    Zn7   S    
C89   H8    S    
O5    Zn5   S    
C79   O26   A    
C25   H79   S    
O19   Zn4   S    
C20   H68   S    
C41   H40   S    
C15   C27   S    
C63   C70   A    
C18   H64   S    
C17   H66   S    
C22   H74   S    
C27   C99   A    
C95   H15   S    
C17   C18   S    
C64   C76   A    
C51   C58   A    
C83   O5    A    
C7    C44   S    
C91   C97   A    
C4    C11   A    
C59   H67   S    
C93   C100  A    
C86   C119  A    
C36   C74   S    
C111  H24   S    
C39   C46   A    
C62   C69   A    
C87   C120  A    
C105  C112  A    
C12   C14   S    
C12   H55   S    
C39   H38   S    
C1    O9    A    
C8    C77   S    
O12   Zn6   S    
C88   H31   S    
C34   C40   A    
C22   H75   S    
O1    Zn1   S    
C102  H23   S    
C66   O24   A    
C19   C29   S    
O4    Zn4   S    
C6    C119  A    
C62   H2    S    
C10   C116  A    
C16   H57   S    
O3    Zn3   S    
C79   O18   A    
C12   H54   S    
C37   C78   S    
C107  C114  A    
O16   Zn1   S    
C17   C28   S    
C6    C112  A    
O15   Zn6   S    
C4    C116  A    
C51   H50   S    
O10   Zn6   S    
C81   O3    A    
C21   H77   S    
C14   H51   S    
C96   H16   S    
C104  C111  A    
C63   H3    S    
C33   O10   A    
C16   H59   S    
C43   C50   A    
C90   C96   A    
C26   C32   A    
C8    C114  A    
C100  C106  A    
C65   C72   A    
C21   C30   S    
C77   O25   A    
C66   O7    A    
C31   C38   A    
C3    C89   A    
C111  C117  A    
C68   C82   S    
C7    C113  A    
O1    Zn3   S    
C45   H43   S    
C24   C31   A    
O12   Zn8   S    
C5    C10   A    
O13   Zn2   S    
C110  H33   S    
C3    C115  A    
C59   C65   A    
C80   O19   A    
C70   C76   A    
C83   O16   A    
C61   C68   A    
C49   C56   A    
C106  H19   S    
C25   H81   S    
C18   H63   S    
C18   H62   S    
O8    Zn4   S    
C81   O14   A    
C15   H61   S    
O17   Zn2   S    
C53   H26   S    
O12   Zn2   S    
C41   C48   A    
C93   H13   S    
C69   C75   A    
C10   C33   S    
C23   C25   S    
C60   C72   A    
O26   Zn1   S    
C35   C41   A    
C52   C88   A    
C97   C104  A    
C69   C81   S    
C42   C49   A    
C43   H42   S    
O24   Zn7   S    
C2    C29   A    
C5    C91   A    
C24   C58   A    
C96   C103  A    
C98   H12   S    
C25   H80   S    
C9    C120  A    
C23   H83   S    
C62   C74   A    
C2    C56   A    
O25   Zn8   S    
C15   H60   S    
C44   O22   A    
C32   C73   S    
C71   C78   A    
C114  C120  A    
C58   H30   S    
C19   H71   S    
C54   H27   S    
C63   C78   A    
C11   C117  A    
