data_mof_unit_61845.cif
_audit_creation_date              2012-10-26T19:30:44-0400
_audit_creation_method            fapswitch 2.2
_symmetry_space_group_name_H-M    P1
_symmetry_Int_Tables_number       1
_space_group_crystal_system       triclinic
_cell_length_a                    19.364585
_cell_length_b                    10.604223
_cell_length_c                    9.523895
_cell_angle_alpha                 89.826303
_cell_angle_beta                  90.094693
_cell_angle_gamma                 89.49922
_cell_volume                      1955.61089587

loop_
_atom_site_label
_atom_site_type_symbol
_atom_type_description
_atom_site_fract_x
_atom_site_fract_y
_atom_site_fract_z
_atom_type_partial_charge
C1    C     C_R   0.500016 0.259761 0.499971 0.550330
C2    C     C_3   0.510758 0.041102 0.368325 -0.082136
C3    C     C_3   0.519567 0.607294 0.049607 0.053317
C4    C     C_3   0.480433 0.392705 0.950393 0.053317
C5    C     C_3   0.458599 0.585945 0.950692 0.059287
C6    C     C_3   0.541401 0.414055 0.049308 0.059286
C7    C     C_3   0.560414 0.521765 0.950048 0.434531
C8    C     C_3   0.439586 0.478235 0.049952 0.434531
C9    C     C_R   0.367814 0.501309 0.499986 0.571774
C10   C     C_R   0.632186 0.498691 0.500014 0.571774
C11   C     C_R   0.256296 0.460666 0.619584 -0.127522
C12   C     C_R   0.499984 0.740239 0.500029 0.550331
C13   C     C_R   0.743704 0.539333 0.380415 -0.127522
C14   C     C_R   0.184353 0.459764 0.621747 0.392993
C15   C     C_R   0.815646 0.540235 0.378253 0.392993
C16   C     C_R   0.146440 0.502403 0.504086 -0.027255
C17   C     C_R   0.853560 0.497597 0.495914 -0.027255
C18   C     C_R   0.182360 0.546860 0.385981 -0.113865
C19   C     C_R   0.817640 0.453140 0.614018 -0.113865
C20   C     C_R   0.254267 0.547668 0.384038 0.397911
C21   C     C_R   0.745733 0.452332 0.615962 0.397911
C22   C     C_R   0.291899 0.503164 0.500604 -0.045435
C23   C     C_3   0.550608 0.040977 0.584549 -0.094836
C24   C     C_R   0.708101 0.496836 0.499396 -0.045435
C25   C     C_R   0.929886 0.498733 0.497542 0.361148
C26   C     C_R   0.070114 0.501267 0.502458 0.361148
C27   C     C_2   0.406013 0.684920 0.909183 0.648074
C28   C     C_2   0.593986 0.315080 0.090817 0.648074
C29   C     C_2   0.548675 0.728284 0.103493 0.644603
C30   C     C_2   0.451325 0.271716 0.896507 0.644603
C31   C     C_3   0.449391 0.959023 0.415451 -0.094836
C32   C     C_3   0.561328 0.957202 0.453655 -0.131576
C33   C     C_3   0.438672 0.042798 0.546345 -0.131576
C34   C     C_3   0.499976 0.877381 0.500556 0.031707
C35   C     C_3   0.500024 0.122619 0.499444 0.031707
C36   C     C_3   0.489242 0.958898 0.631675 -0.082136
Cu1   Cu    Cu3+1 0.500020 0.499990 0.643150 1.137952
Cu2   Cu    Cu3+1 0.499980 0.500010 0.356850 1.137952
F1    F     F_    0.624953 0.547437 0.895972 -0.515349
F2    F     F_    0.375047 0.452562 0.104028 -0.515349
F3    F     F_    0.152488 0.416610 0.739037 -0.551288
F4    F     F_    0.847512 0.583390 0.260963 -0.551288
F5    F     F_    0.286621 0.595240 0.269496 -0.519603
F6    F     F_    0.713379 0.404760 0.730504 -0.519603
H1    H     H_    0.284162 0.426646 0.711016 0.221781
H2    H     H_    0.519513 0.076985 0.260223 0.194607
H3    H     H_    0.351934 0.775198 0.757828 0.330599
H4    H     H_    0.648066 0.224802 0.242172 0.330599
H5    H     H_    0.628445 0.814260 0.198219 0.331911
H6    H     H_    0.371555 0.185740 0.801781 0.331911
H7    H     H_    0.715837 0.573354 0.288984 0.221781
H8    H     H_    0.154905 0.581703 0.294432 0.202370
H9    H     H_    0.845095 0.418297 0.705568 0.202370
H10   H     H_    0.611857 0.919652 0.417473 0.131224
H11   H     H_    0.388143 0.080348 0.582527 0.131224
H12   H     H_    0.591937 0.077725 0.653809 0.185195
H13   H     H_    0.408063 0.922275 0.346191 0.185195
H14   H     H_    0.480487 0.923015 0.739777 0.194607
N1    N     N_R   0.034735 0.541885 0.387529 -0.207745
N2    N     N_R   0.965264 0.458115 0.612471 -0.207745
N3    N     N_R   0.966091 0.540679 0.385163 -0.082120
N4    N     N_R   0.033909 0.459320 0.614837 -0.082120
N5    N     N_3   0.500050 0.499970 0.858290 -0.322916
N6    N     N_3   0.499950 0.500030 0.141710 -0.322915
O1    O     O_R   0.500030 0.316850 0.620870 -0.488308
O2    O     O_R   0.387946 0.705961 0.769467 -0.668531
O3    O     O_2   0.622170 0.253618 0.998509 -0.414936
O4    O     O_R   0.612053 0.294039 0.230532 -0.668531
O5    O     O_2   0.517625 0.827694 0.084547 -0.496416
O6    O     O_R   0.612480 0.726711 0.171997 -0.656496
O7    O     O_2   0.482375 0.172306 0.915453 -0.496416
O8    O     O_R   0.387520 0.273289 0.828003 -0.656496
O9    O     O_R   0.499970 0.683150 0.379130 -0.488309
O10   O     O_R   0.500000 0.316860 0.379090 -0.475694
O11   O     O_R   0.500000 0.683140 0.620910 -0.475694
O12   O     O_R   0.400160 0.499980 0.620930 -0.471596
O13   O     O_R   0.599840 0.500020 0.379070 -0.471596
O14   O     O_R   0.400130 0.499990 0.379150 -0.387689
O15   O     O_R   0.599870 0.500010 0.620850 -0.387689
O16   O     O_2   0.377830 0.746382 0.001491 -0.414936

loop_
_geom_bond_atom_site_label_1
_geom_bond_atom_site_label_2
_ccdc_geom_bond_type
C2    C35   S    
C33   H11   S    
C4    C8    S    
C30   O7    D    
C18   H8    S    
C23   H12   S    
C3    N6    S    
C2    H2    S    
Cu1   O15   S    
C4    N5    S    
C1    O10   A    
N2    N4    A    
C28   O4    S    
C3    C7    S    
C11   C14   A    
C9    C22   S    
C33   C36   S    
C5    N5    S    
C18   C20   A    
C2    C32   S    
C6    N6    S    
C3    C29   S    
H6    O8    S    
C17   C19   A    
C5    C27   S    
C6    C28   S    
Cu1   O1    S    
C1    O1    A    
C31   C33   S    
C25   N2    A    
C26   N1    A    
H3    O2    S    
Cu2   N6    S    
C19   H9    S    
Cu1   O11   S    
C13   H7    S    
C12   O9    A    
C32   H10   S    
Cu1   N5    S    
C10   O13   A    
C29   O5    D    
C16   C26   S    
N1    N3    A    
C28   O3    D    
C4    C6    S    
C27   O16   D    
Cu2   O14   S    
C10   C24   S    
C13   C24   A    
C2    C31   S    
C32   C34   S    
Cu1   Cu2   S    
C21   F6    S    
C31   C34   S    
C25   N3    A    
H4    O4    S    
C7    N5    S    
C8    N6    S    
C14   F3    S    
C9    O12   A    
Cu1   O12   S    
C20   C22   A    
C23   C35   S    
H5    O6    S    
C13   C15   A    
C14   C16   A    
C11   H1    S    
C21   C24   A    
C12   C34   S    
C20   F5    S    
C1    C35   S    
C29   O6    S    
Cu2   O10   S    
C15   C17   A    
C19   C21   A    
C15   F4    S    
C3    C5    S    
C5    C8    S    
C30   O8    S    
C10   O15   A    
C6    C7    S    
Cu2   O13   S    
C11   C22   A    
C36   H14   S    
C17   C25   S    
C23   C32   S    
C31   H13   S    
C26   N4    A    
C27   O2    S    
C33   C35   S    
C34   C36   S    
C9    O14   A    
C16   C18   A    
C23   C36   S    
C12   O11   A    
C7    F1    S    
C8    F2    S    
C4    C30   S    
Cu2   O9    S    
