data_mof_unit_63559.cif
_audit_creation_date              2013-03-05T16:20:33-0500
_audit_creation_method            fapswitch 2.2
_symmetry_space_group_name_H-M    P1
_symmetry_Int_Tables_number       1
_space_group_crystal_system       triclinic
_cell_length_a                    38.928171
_cell_length_b                    38.932642
_cell_length_c                    18.247081
_cell_angle_alpha                 90.000024
_cell_angle_beta                  90.017484
_cell_angle_gamma                 90.0
_cell_volume                      27654.8466954

loop_
_atom_site_label
_atom_site_type_symbol
_atom_site_description
_atom_site_fract_x
_atom_site_fract_y
_atom_site_fract_z
_atom_type_partial_charge
O1    O     O_R   0.550910 0.028770 0.500030 -0.587452
O2    O     O_R   0.971230 0.550910 0.500030 -0.587151
O3    O     O_R   0.449090 0.971230 0.500030 -0.586738
O4    O     O_R   0.028770 0.449090 0.500030 -0.587511
O5    O     O_R   0.449090 0.028770 0.499970 -0.587452
O6    O     O_R   0.028770 0.550910 0.499970 -0.587152
O7    O     O_R   0.550910 0.971230 0.499970 -0.586738
O8    O     O_R   0.971230 0.449090 0.499970 -0.587510
O9    O     O_R   0.050910 0.528770 0.000030 -0.587091
O10   O     O_R   0.471230 0.050910 0.000030 -0.587150
O11   O     O_R   0.949090 0.471230 0.000030 -0.586601
O12   O     O_R   0.528770 0.949090 0.000030 -0.583376
O13   O     O_R   0.949090 0.528770 0.999970 -0.587090
O14   O     O_R   0.528770 0.050910 0.999970 -0.587151
O15   O     O_R   0.050910 0.471230 0.999970 -0.586601
O16   O     O_R   0.471230 0.949090 0.999970 -0.583375
C1    C     C_R   0.567124 1.000000 0.500006 0.966553
C2    C     C_R   0.000000 0.567126 0.500000 0.966525
C3    C     C_R   0.432876 0.000000 0.499994 0.966554
C4    C     C_R   1.000000 0.432873 0.500000 0.967343
C5    C     C_R   0.067126 0.500000 0.000011 0.965897
C6    C     C_R   0.500000 0.067125 0.000000 0.966773
C7    C     C_R   0.932874 0.500000 0.999989 0.965898
C8    C     C_R   0.500000 0.932845 1.000000 0.959514
O17   O     O_R   0.499990 0.028770 0.607330 -0.613275
O18   O     O_R   0.971230 0.499990 0.607330 -0.613319
O19   O     O_R   0.500010 0.971230 0.607330 -0.613374
O20   O     O_R   0.028770 0.500010 0.607330 -0.613345
O21   O     O_R   0.500010 0.028770 0.392670 -0.613275
O22   O     O_R   0.028770 0.499990 0.392670 -0.613319
O23   O     O_R   0.499990 0.971230 0.392670 -0.613374
O24   O     O_R   0.971230 0.500010 0.392670 -0.613345
O25   O     O_R   0.999990 0.528770 0.107330 -0.613465
O26   O     O_R   0.471230 0.999990 0.107330 -0.595688
O27   O     O_R   0.000010 0.471230 0.107330 -0.612695
O28   O     O_R   0.528770 0.000010 0.107330 -0.630936
O29   O     O_R   0.000010 0.528770 0.892670 -0.613465
O30   O     O_R   0.528770 0.999990 0.892670 -0.595688
O31   O     O_R   0.999990 0.471230 0.892670 -0.612695
O32   O     O_R   0.471230 0.000010 0.892670 -0.630935
C9    C     C_R   0.500000 0.000000 0.641019 0.929570
C10   C     C_R   0.000004 0.500000 0.641022 0.929887
C11   C     C_R   0.500000 0.000000 0.358981 0.929570
C12   C     C_R   0.999996 0.500000 0.358978 0.929888
C13   C     C_R   0.999997 0.500000 0.141019 0.929041
C14   C     C_R   0.500003 0.000002 0.141022 0.927384
C15   C     C_R   0.000003 0.500000 0.858981 0.929041
C16   C     C_R   0.499997 0.000002 0.858978 0.927385
Zn1   Zn    Zn3+2 0.500000 0.038410 0.500000 1.053643
Zn2   Zn    Zn3+2 0.961590 0.500000 0.500000 1.053591
Zn3   Zn    Zn3+2 0.500000 0.961590 0.500000 1.054466
Zn4   Zn    Zn3+2 0.038410 0.500000 0.500000 1.053590
Zn5   Zn    Zn3+2 1.000000 0.538410 0.000000 1.054026
Zn6   Zn    Zn3+2 0.461590 0.000000 0.000000 1.055094
Zn7   Zn    Zn3+2 0.000000 0.461590 0.000000 1.056897
Zn8   Zn    Zn3+2 0.538410 0.000000 0.000000 1.055094
C17   C     C_1   0.499995 0.000001 0.717572 -0.145666
C18   C     C_1   0.000012 0.500000 0.717575 -0.145356
C19   C     C_1   0.500005 0.000001 0.282428 -0.145666
C20   C     C_1   0.999988 0.500000 0.282425 -0.145356
C21   C     C_1   0.999990 0.500000 0.217572 -0.145221
C22   C     C_1   0.500008 0.000001 0.217575 -0.146301
C23   C     C_1   0.000010 0.500000 0.782428 -0.145221
C24   C     C_1   0.499992 0.000002 0.782425 -0.146301
C25   C     C_R   0.876929 0.978963 0.449855 0.294492
C26   C     C_R   0.021046 0.876937 0.449886 0.294593
C27   C     C_R   0.123053 0.021074 0.449931 0.294473
C28   C     C_R   0.978866 0.123066 0.449979 0.293602
C29   C     C_R   0.123071 0.978963 0.550145 0.294493
C30   C     C_R   0.978954 0.876936 0.550113 0.294591
C31   C     C_R   0.876947 0.021074 0.550068 0.294473
C32   C     C_R   0.021135 0.123066 0.550020 0.293601
C33   C     C_R   0.376928 0.478835 0.950138 0.294537
C34   C     C_R   0.520956 0.376929 0.949716 0.294789
C35   C     C_R   0.623023 0.521298 0.950327 0.293998
C36   C     C_R   0.479504 0.623056 0.948813 0.294929
C37   C     C_R   0.623072 0.478835 0.049862 0.294538
C38   C     C_R   0.479044 0.376929 0.050284 0.294790
C39   C     C_R   0.376977 0.521298 0.049673 0.293998
C40   C     C_R   0.520496 0.623056 0.051187 0.294929
C41   C     C_R   0.841122 0.979581 0.450013 -0.206565
C42   C     C_R   0.020435 0.841133 0.450051 -0.206592
C43   C     C_R   0.158860 0.020468 0.450098 -0.207236
C44   C     C_R   0.979477 0.158873 0.450165 -0.204963
C45   C     C_R   0.158878 0.979581 0.549987 -0.206566
C46   C     C_R   0.979565 0.841132 0.549949 -0.206592
C47   C     C_R   0.841140 0.020468 0.549902 -0.207236
C48   C     C_R   0.020523 0.158873 0.549834 -0.204963
C49   C     C_R   0.341121 0.479465 0.950317 -0.206737
C50   C     C_R   0.520347 0.341125 0.949888 -0.206691
C51   C     C_R   0.658830 0.520699 0.950437 -0.206693
C52   C     C_R   0.480225 0.658848 0.948811 -0.206542
C53   C     C_R   0.658879 0.479465 0.049683 -0.206737
C54   C     C_R   0.479653 0.341125 0.050112 -0.206691
C55   C     C_R   0.341170 0.520699 0.049563 -0.206692
C56   C     C_R   0.519776 0.658848 0.051189 -0.206542
H1    H     H_    0.827174 0.963046 0.412639 0.182486
H2    H     H_    0.036968 0.827195 0.412673 0.182438
H3    H     H_    0.172794 0.037007 0.412727 0.182299
H4    H     H_    0.963509 0.172938 0.411854 0.184653
H5    H     H_    0.172826 0.963046 0.587362 0.182485
H6    H     H_    0.963033 0.827194 0.587327 0.182440
H7    H     H_    0.827206 0.037008 0.587273 0.182299
H8    H     H_    0.036491 0.172938 0.588144 0.184655
H9    H     H_    0.327159 0.462817 0.913197 0.182472
H10   H     H_    0.536814 0.327188 0.912378 0.182366
H11   H     H_    0.672755 0.537378 0.913334 0.182506
H12   H     H_    0.464257 0.672849 0.910398 0.183894
H13   H     H_    0.672841 0.462817 0.086803 0.182472
H14   H     H_    0.463186 0.327188 0.087622 0.182366
H15   H     H_    0.327245 0.537378 0.086666 0.182506
H16   H     H_    0.535743 0.672849 0.089601 0.183894
C57   C     C_R   0.823183 0.000025 0.499959 -0.011999
C58   C     C_R   0.000001 0.823184 0.500000 -0.012049
C59   C     C_R   0.176816 0.000026 0.500041 -0.011998
C60   C     C_R   0.000000 0.176721 0.499999 -0.016853
C61   C     C_R   0.323198 0.500084 0.999966 -0.012146
C62   C     C_R   0.500000 0.323176 1.000000 -0.012026
C63   C     C_R   0.676801 0.500084 0.000034 -0.012146
C64   C     C_R   0.500000 0.676739 1.000000 -0.014374
C65   C     C_R   0.895124 0.000013 0.499969 -0.255389
C66   C     C_R   0.000000 0.895124 0.500000 -0.255521
C67   C     C_R   0.104875 0.000013 0.500031 -0.255389
C68   C     C_R   0.000000 0.104875 0.500000 -0.254832
C69   C     C_R   0.395134 0.500038 0.999936 -0.255967
C70   C     C_R   0.500000 0.395119 1.000000 -0.255442
C71   C     C_R   0.604866 0.500038 0.000064 -0.255967
C72   C     C_R   0.500000 0.604868 0.000000 -0.254790
C73   C     C_R   0.767482 0.999059 0.566486 -0.162215
C74   C     C_R   0.000950 0.767467 0.566510 -0.162056
C75   C     C_R   0.232546 0.000987 0.566534 -0.162295
C76   C     C_R   0.031170 0.232195 0.498364 -0.160708
C77   C     C_R   0.232517 0.999059 0.433514 -0.162216
C78   C     C_R   0.999052 0.767467 0.433490 -0.162056
C79   C     C_R   0.767454 0.000987 0.433466 -0.162296
C80   C     C_R   0.968830 0.232195 0.501634 -0.160708
C81   C     C_R   0.267505 0.499314 0.066528 -0.162195
C82   C     C_R   0.501047 0.267458 0.066503 -0.162181
C83   C     C_R   0.732535 0.500872 0.066513 -0.162186
C84   C     C_R   0.496557 0.732313 0.066134 -0.161383
C85   C     C_R   0.732495 0.499314 0.933472 -0.162195
C86   C     C_R   0.498953 0.267458 0.933496 -0.162181
C87   C     C_R   0.267465 0.500872 0.933488 -0.162187
C88   C     C_R   0.503444 0.732313 0.933866 -0.161382
H17   H     H_    0.780970 0.997787 0.618340 0.157155
H18   H     H_    0.002213 0.780940 0.618371 0.157021
H19   H     H_    0.219081 0.002261 0.618396 0.156945
H20   H     H_    0.055423 0.218582 0.496281 0.155958
H21   H     H_    0.219030 0.997787 0.381660 0.157155
H22   H     H_    0.997789 0.780940 0.381629 0.157021
H23   H     H_    0.780919 0.002261 0.381604 0.156945
H24   H     H_    0.944577 0.218582 0.503718 0.155958
H25   H     H_    0.281000 0.498192 0.118389 0.156943
H26   H     H_    0.502388 0.280930 0.118357 0.156952
H27   H     H_    0.719073 0.502002 0.118394 0.156983
H28   H     H_    0.493582 0.718772 0.117606 0.157832
H29   H     H_    0.719000 0.498193 0.881611 0.156943
H30   H     H_    0.497612 0.280930 0.881643 0.156952
H31   H     H_    0.280927 0.502003 0.881606 0.156983
H32   H     H_    0.506419 0.718772 0.882393 0.157832
C89   C     C_R   0.731801 0.999185 0.566485 -0.171790
C90   C     C_R   0.000820 0.731787 0.566496 -0.171935
C91   C     C_R   0.268228 0.000855 0.566508 -0.172286
C92   C     C_R   0.031177 0.267875 0.498092 -0.172084
C93   C     C_R   0.268199 0.999184 0.433515 -0.171790
C94   C     C_R   0.999181 0.731787 0.433504 -0.171935
C95   C     C_R   0.731772 0.000854 0.433492 -0.172286
C96   C     C_R   0.968824 0.267875 0.501907 -0.172084
C97   C     C_R   0.231823 0.499422 0.066537 -0.172027
C98   C     C_R   0.500916 0.231779 0.066490 -0.172054
C99   C     C_R   0.768216 0.500731 0.066474 -0.172056
C100  C     C_R   0.496543 0.767984 0.066129 -0.172400
C101  C     C_R   0.768177 0.499423 0.933463 -0.172026
C102  C     C_R   0.499084 0.231779 0.933509 -0.172053
C103  C     C_R   0.231784 0.500731 0.933526 -0.172055
C104  C     C_R   0.503458 0.767984 0.933870 -0.172400
H33   H     H_    0.718199 0.998153 0.618227 0.150607
H34   H     H_    0.001838 0.718177 0.618236 0.150236
H35   H     H_    0.281852 0.001883 0.618241 0.149926
H36   H     H_    0.055486 0.281350 0.495488 0.148167
H37   H     H_    0.281801 0.998153 0.381773 0.150607
H38   H     H_    0.998163 0.718176 0.381765 0.150236
H39   H     H_    0.718148 0.001882 0.381759 0.149926
H40   H     H_    0.944514 0.281350 0.504511 0.148167
H41   H     H_    0.218228 0.498524 0.118298 0.150126
H42   H     H_    0.502008 0.218167 0.118222 0.150184
H43   H     H_    0.781842 0.501616 0.118217 0.150132
H44   H     H_    0.494139 0.781533 0.117729 0.149196
H45   H     H_    0.781772 0.498525 0.881702 0.150125
H46   H     H_    0.497992 0.218167 0.881777 0.150184
H47   H     H_    0.218158 0.501617 0.881783 0.150132
H48   H     H_    0.505861 0.781532 0.882270 0.149196
C105  C     C_R   0.713832 0.000017 0.499995 0.150786
C106  C     C_R   0.000001 0.713832 0.500000 0.150747
C107  C     C_R   0.286168 0.000017 0.500006 0.150786
C108  C     C_R   0.000000 0.285934 0.499999 0.153278
C109  C     C_R   0.213846 0.500064 0.000043 0.150946
C110  C     C_R   0.500000 0.213825 1.000000 0.150786
C111  C     C_R   0.786154 0.500064 0.999957 0.150946
C112  C     C_R   0.500000 0.785977 1.000000 0.152409
C113  C     C_R   0.785528 0.000025 0.499970 0.145517
C114  C     C_R   0.000001 0.785527 0.500000 0.145550
C115  C     C_R   0.214472 0.000025 0.500030 0.145517
C116  C     C_R   0.000000 0.214241 0.499999 0.145432
C117  C     C_R   0.285544 0.500095 0.999995 0.145576
C118  C     C_R   0.500000 0.285519 1.000000 0.145649
C119  C     C_R   0.714456 0.500095 0.000005 0.145576
C120  C     C_R   0.500000 0.714313 1.000000 0.144163
C121  C     C_R   0.658441 0.976732 0.455871 -0.278680
C122  C     C_R   0.023280 0.658444 0.455883 -0.278733
C123  C     C_R   0.341551 0.023281 0.455849 -0.278723
C124  C     C_R   0.976681 0.341555 0.455971 -0.278710
C125  C     C_R   0.341559 0.976732 0.544129 -0.278680
C126  C     C_R   0.976721 0.658445 0.544117 -0.278734
C127  C     C_R   0.658449 0.023281 0.544151 -0.278723
C128  C     C_R   0.023319 0.341555 0.544028 -0.278709
C129  C     C_R   0.158459 0.476685 0.956085 -0.278805
C130  C     C_R   0.523239 0.158440 0.955785 -0.278800
C131  C     C_R   0.841552 0.523366 0.955958 -0.278844
C132  C     C_R   0.524849 0.841441 0.959993 -0.279686
C133  C     C_R   0.841541 0.476685 0.043915 -0.278805
C134  C     C_R   0.476761 0.158440 0.044215 -0.278799
C135  C     C_R   0.158447 0.523366 0.044042 -0.278843
C136  C     C_R   0.475151 0.841441 0.040006 -0.279686
H49   H     H_    0.672536 0.958669 0.422142 0.150947
H50   H     H_    0.041349 0.672540 0.422171 0.150970
H51   H     H_    0.327449 0.041347 0.422122 0.150914
H52   H     H_    0.959070 0.327580 0.420960 0.148687
H53   H     H_    0.327464 0.958669 0.577858 0.150947
H54   H     H_    0.958653 0.672541 0.577829 0.150970
H55   H     H_    0.672551 0.041347 0.577878 0.150914
H56   H     H_    0.040930 0.327580 0.579039 0.148687
H57   H     H_    0.172561 0.458574 0.922486 0.150919
H58   H     H_    0.541276 0.172536 0.921997 0.150966
H59   H     H_    0.827461 0.541491 0.922356 0.150896
H60   H     H_    0.544189 0.827389 0.929565 0.149908
H61   H     H_    0.827439 0.458574 0.077514 0.150919
H62   H     H_    0.458724 0.172536 0.078003 0.150966
H63   H     H_    0.172539 0.541491 0.077644 0.150896
H64   H     H_    0.455811 0.827389 0.070434 0.149909
C137  C     C_R   0.622490 0.976421 0.455600 0.382769
C138  C     C_R   0.023586 0.622496 0.455609 0.383179
C139  C     C_R   0.377501 0.023583 0.455571 0.383868
C140  C     C_R   0.976383 0.377503 0.455703 0.383483
C141  C     C_R   0.377510 0.976421 0.544400 0.382770
C142  C     C_R   0.976414 0.622496 0.544390 0.383179
C143  C     C_R   0.622498 0.023583 0.544429 0.383869
C144  C     C_R   0.023617 0.377503 0.544297 0.383482
C145  C     C_R   0.122508 0.476365 0.955795 0.383360
C146  C     C_R   0.523547 0.122492 0.955515 0.383020
C147  C     C_R   0.877503 0.523654 0.955685 0.383345
C148  C     C_R   0.525092 0.877381 0.959512 0.385767
C149  C     C_R   0.877491 0.476365 0.044205 0.383359
C150  C     C_R   0.476452 0.122492 0.044485 0.383021
C151  C     C_R   0.122496 0.523654 0.044315 0.383345
C152  C     C_R   0.474908 0.877381 0.040487 0.385768
C153  C     C_R   0.604604 0.000001 0.500013 -0.129788
C154  C     C_R   0.000000 0.604605 0.500000 -0.130099
C155  C     C_R   0.395396 0.000000 0.499987 -0.129788
C156  C     C_R   0.000000 0.395390 0.500000 -0.130075
C157  C     C_R   0.104609 0.500004 0.000043 -0.130168
C158  C     C_R   0.500000 0.104602 0.000000 -0.130145
C159  C     C_R   0.895391 0.500004 0.999957 -0.130169
C160  C     C_R   0.500000 0.895314 1.000000 -0.132896
C161  C     C_R   0.676311 0.000010 0.500007 0.022044
C162  C     C_R   0.000001 0.676311 0.500000 0.022075
C163  C     C_R   0.323689 0.000010 0.499994 0.022044
C164  C     C_R   0.000000 0.323590 0.499999 0.025742
C165  C     C_R   0.176321 0.500036 0.000062 0.022135
C166  C     C_R   0.500000 0.176305 1.000000 0.022044
C167  C     C_R   0.823679 0.500036 0.999938 0.022135
C168  C     C_R   0.500000 0.823544 1.000000 0.023882
O33   O     O_R   0.000000 0.949040 0.560460 -0.583867
O34   O     O_R   0.050960 0.000000 0.560460 -0.583821
O35   O     O_R   0.000000 0.050960 0.560460 -0.583459
O36   O     O_R   0.949040 0.000000 0.560460 -0.583770
O37   O     O_R   0.000000 0.949040 0.439540 -0.583867
O38   O     O_R   0.949040 0.000000 0.439540 -0.583822
O39   O     O_R   0.000000 0.050960 0.439540 -0.583459
O40   O     O_R   0.050960 0.000000 0.439540 -0.583770
O41   O     O_R   0.500000 0.449040 0.060460 -0.583766
O42   O     O_R   0.550960 0.500000 0.060460 -0.584017
O43   O     O_R   0.500000 0.550960 0.060460 -0.583549
O44   O     O_R   0.449040 0.500000 0.060460 -0.584029
O45   O     O_R   0.500000 0.449040 0.939540 -0.583766
O46   O     O_R   0.449040 0.500000 0.939540 -0.584017
O47   O     O_R   0.500000 0.550960 0.939540 -0.583548
O48   O     O_R   0.550960 0.500000 0.939540 -0.584029
C169  C     C_R   1.000000 0.932655 0.500000 1.016481
C170  C     C_R   0.067345 0.000002 0.500010 1.016577
C171  C     C_R   0.000000 0.067345 0.500000 1.016932
C172  C     C_R   0.932655 0.000002 0.499990 1.016577
C173  C     C_R   0.500000 0.432653 1.000000 1.016960
C174  C     C_R   0.567341 0.500002 0.000017 1.016056
C175  C     C_R   0.500000 0.567343 0.000000 1.016017
C176  C     C_R   0.432659 0.500002 0.999983 1.016056
Zn9   Zn    Zn3+2 0.000000 0.000000 0.580910 1.189599
Zn10  Zn    Zn3+2 0.000000 0.000000 0.419090 1.189600
Zn11  Zn    Zn3+2 0.500000 0.500000 0.080910 1.189082
Zn12  Zn    Zn3+2 0.500000 0.500000 0.919090 1.189081
N1    N     N_R   0.894171 0.955974 0.400287 0.226327
O49   O     O_R   0.918778 0.936199 0.423694 -0.357627
O50   O     O_R   0.881762 0.950791 0.334984 -0.350199
N2    N     N_R   0.044025 0.894185 0.400309 0.226325
O51   O     O_R   0.063807 0.918786 0.423710 -0.357582
O52   O     O_R   0.049194 0.881788 0.335004 -0.350224
N3    N     N_R   0.105792 0.044061 0.400366 0.226169
O53   O     O_R   0.081186 0.063828 0.423776 -0.358419
O54   O     O_R   0.118184 0.049253 0.335068 -0.350105
N4    N     N_R   0.955928 0.105814 0.400293 0.225586
O55   O     O_R   0.936192 0.081157 0.423573 -0.359080
O56   O     O_R   0.950728 0.118260 0.335034 -0.347061
N5    N     N_R   0.105829 0.955975 0.599714 0.226327
O57   O     O_R   0.081223 0.936199 0.576307 -0.357627
O58   O     O_R   0.118237 0.950792 0.665017 -0.350199
N6    N     N_R   0.955975 0.894185 0.599690 0.226327
O59   O     O_R   0.936194 0.918786 0.576290 -0.357581
O60   O     O_R   0.950804 0.881787 0.664994 -0.350225
N7    N     N_R   0.894208 0.044061 0.599633 0.226168
O61   O     O_R   0.918814 0.063828 0.576224 -0.358420
O62   O     O_R   0.881816 0.049254 0.664932 -0.350106
N8    N     N_R   0.044073 0.105814 0.599706 0.225587
O63   O     O_R   0.063808 0.081156 0.576426 -0.359081
O64   O     O_R   0.049275 0.118262 0.664962 -0.347063
N9    N     N_R   0.394159 0.455707 0.900840 0.226275
O65   O     O_R   0.418850 0.436077 0.924398 -0.358103
O66   O     O_R   0.381692 0.450282 0.835677 -0.350581
N10   N     N_R   0.543845 0.394173 0.899942 0.226307
O67   O     O_R   0.563706 0.418741 0.923194 -0.357135
O68   O     O_R   0.548864 0.381791 0.834570 -0.350531
N11   N     N_R   0.605731 0.544505 0.901278 0.226135
O69   O     O_R   0.581081 0.564101 0.925127 -0.359516
O70   O     O_R   0.618125 0.550054 0.836116 -0.350460
N12   N     N_R   0.456924 0.605819 0.898377 0.226568
O71   O     O_R   0.436642 0.581524 0.921268 -0.356283
O72   O     O_R   0.452527 0.618048 0.832665 -0.349540
N13   N     N_R   0.605841 0.455707 0.099160 0.226275
O73   O     O_R   0.581150 0.436077 0.075602 -0.358102
O74   O     O_R   0.618308 0.450282 0.164323 -0.350581
N14   N     N_R   0.456155 0.394173 0.100057 0.226306
O75   O     O_R   0.436294 0.418741 0.076806 -0.357134
O76   O     O_R   0.451137 0.381791 0.165430 -0.350531
N15   N     N_R   0.394268 0.544504 0.098722 0.226135
O77   O     O_R   0.418919 0.564101 0.074873 -0.359516
O78   O     O_R   0.381874 0.550054 0.163884 -0.350460
N16   N     N_R   0.543076 0.605819 0.101622 0.226569
O79   O     O_R   0.563357 0.581523 0.078732 -0.356284
O80   O     O_R   0.547474 0.618048 0.167335 -0.349541
O81   O     O_3   0.604384 0.953953 0.411438 -0.744714
H65   H     H_    0.620807 0.939416 0.383799 0.341261
O82   O     O_3   0.046057 0.604397 0.411466 -0.743103
H66   H     H_    0.060598 0.620821 0.383839 0.341714
O83   O     O_3   0.395599 0.046044 0.411403 -0.742521
H67   H     H_    0.379171 0.060582 0.383758 0.341809
O84   O     O_3   0.953986 0.395612 0.411372 -0.743144
H68   H     H_    0.939341 0.379203 0.383935 0.341743
O85   O     O_3   0.395616 0.953953 0.588561 -0.744714
H69   H     H_    0.379192 0.939416 0.616201 0.341260
O86   O     O_3   0.953943 0.604397 0.588533 -0.743101
H70   H     H_    0.939403 0.620822 0.616161 0.341713
O87   O     O_3   0.604401 0.046044 0.588597 -0.742521
H71   H     H_    0.620829 0.060582 0.616242 0.341809
O88   O     O_3   0.046014 0.395612 0.588628 -0.743144
H72   H     H_    0.060659 0.379203 0.616064 0.341743
O89   O     O_3   0.104415 0.453830 0.911764 -0.742499
H73   H     H_    0.120846 0.439260 0.884226 0.341851
O90   O     O_3   0.545980 0.104390 0.911287 -0.742991
H74   H     H_    0.560496 0.120814 0.883599 0.341807
O91   O     O_3   0.895608 0.546172 0.911662 -0.742959
H75   H     H_    0.879185 0.560754 0.884107 0.341676
O92   O     O_3   0.549024 0.895409 0.918840 -0.741118
H76   H     H_    0.564458 0.878958 0.893576 0.340897
O93   O     O_3   0.895585 0.453830 0.088236 -0.742498
H77   H     H_    0.879154 0.439260 0.115774 0.341851
O94   O     O_3   0.454020 0.104390 0.088713 -0.742992
H78   H     H_    0.439504 0.120814 0.116401 0.341808
O95   O     O_3   0.104392 0.546172 0.088338 -0.742959
H79   H     H_    0.120815 0.560754 0.115893 0.341676
O96   O     O_3   0.450976 0.895409 0.081159 -0.741118
H80   H     H_    0.435542 0.878958 0.106424 0.340898

loop_
_geom_bond_atom_site_label_1
_geom_bond_atom_site_label_2
_geom_bond_distance
_ccdc_geom_bond_type
N8    O64   1.301371 A    
C127  C143  1.399555 A    
O85   H69   0.991782 S    
C74   H18   1.083078 S    
O40   Zn10  2.018454 S    
C37   N13   1.438823 S    
C10   C18   1.396872 S    
N13   O73   1.300942 A    
N1    O49   1.300962 A    
O39   Zn10  2.018790 S    
C14   C22   1.396876 S    
C111  C167  1.460784 S    
C62   C118  1.466075 S    
O18   Zn2   1.993975 S    
C3    C155  1.459008 S    
C29   C67   1.417445 A    
O25   C13   1.277690 A    
C112  C168  1.462563 S    
C105  C161  1.460643 S    
C59   C115  1.465864 S    
C26   C66   1.417469 A    
C83   C99   1.389031 A    
C57   C113  1.465864 S    
C138  O82   1.382361 S    
C88   H32   1.083300 S    
C73   H17   1.083087 S    
C133  C167  1.397703 A    
C82   H26   1.083079 S    
C122  C162  1.397688 A    
C32   C68   1.418131 A    
O25   Zn5   1.994096 S    
C138  C154  1.408816 A    
O5    Zn1   2.017057 S    
O33   C169  1.274378 A    
C86   H30   1.083079 S    
C93   C107  1.400647 A    
C80   H24   1.083363 S    
O36   Zn9   2.018458 S    
C134  C150  1.399615 A    
N4    O56   1.301366 A    
O47   Zn12  2.018790 S    
C64   C120  1.462863 S    
C51   H11   1.083554 S    
N14   O75   1.300961 A    
C122  C138  1.399622 A    
C129  H57   1.083786 S    
O27   Zn7   1.994095 S    
C133  H61   1.083787 S    
N6    O59   1.300958 A    
C43   C59   1.397201 A    
C136  C168  1.398077 A    
O84   H68   0.991757 S    
C7    C159  1.459148 S    
O48   Zn12  2.018454 S    
O46   C176  1.274156 A    
C137  O81   1.382367 S    
C84   H28   1.083299 S    
C47   H7    1.083555 S    
C85   H29   1.083092 S    
O26   Zn6   1.993975 S    
C152  C160  1.409890 A    
C144  O88   1.382435 S    
C130  C146  1.399615 A    
C89   H33   1.083361 S    
O27   C13   1.277693 A    
O8    Zn2   2.017272 S    
C125  H53   1.083791 S    
C136  C152  1.399267 A    
O31   C15   1.277694 A    
O32   C16   1.277655 A    
C27   C67   1.417444 A    
O94   H78   0.991778 S    
C128  C144  1.399619 A    
O44   Zn11  2.018458 S    
C34   C50   1.394146 A    
C13   C21   1.396873 S    
C135  H63   1.083787 S    
O89   H73   0.991781 S    
O9    C5    1.285721 A    
O38   Zn10  2.018681 S    
C6    C158  1.459094 S    
O11   C7    1.285745 A    
O47   C175  1.274336 A    
C131  C167  1.397674 A    
C86   C118  1.403086 A    
C132  C168  1.398073 A    
C109  C165  1.460784 S    
O16   Zn6   2.017272 S    
C47   C57   1.397201 A    
C33   C49   1.394118 A    
O4    C4    1.285674 A    
O43   Zn11  2.018790 S    
C124  C164  1.399367 A    
O86   H70   0.991779 S    
O6    Zn4   2.017269 S    
O35   Zn9   2.018790 S    
C147  C159  1.408855 A    
C33   N9    1.438824 S    
C77   C115  1.403042 A    
N7    O62   1.301377 A    
C27   C43   1.394083 A    
O81   H65   0.991778 S    
O82   H66   0.991776 S    
C106  C162  1.460815 S    
C42   C58   1.397242 A    
C79   C113  1.403033 A    
C27   N3    1.438761 S    
C55   C61   1.397232 A    
O23   C11   1.277697 A    
C38   C54   1.394146 A    
C135  C165  1.397676 A    
N5    O58   1.301369 A    
O37   C169  1.274377 A    
C147  O91   1.382375 S    
O13   C7    1.285721 A    
C141  O85   1.382364 S    
N9    O66   1.301382 A    
C67   C170  1.461005 S    
C146  C158  1.408794 A    
O2    Zn2   2.017269 S    
O41   C173  1.274415 A    
C52   H12   1.083737 S    
C151  C157  1.408857 A    
O43   C175  1.274334 A    
O7    C1    1.285696 A    
C75   H19   1.083086 S    
O26   C14   1.277548 A    
O29   C15   1.277690 A    
O30   C16   1.277548 A    
C37   C71   1.417397 A    
C35   C51   1.394128 A    
C73   C113  1.403040 A    
C149  C159  1.408828 A    
N2    O52   1.301373 A    
C39   C69   1.417298 A    
C44   C60   1.395545 A    
C95   C105  1.400655 A    
C8    C160  1.461200 S    
C129  C145  1.399571 A    
C123  C163  1.397671 A    
C48   H8    1.083811 S    
O19   Zn3   1.994095 S    
O42   Zn11  2.018678 S    
C133  C149  1.399571 A    
C9    C17   1.396871 S    
C131  H59   1.083786 S    
C73   C89   1.389032 A    
C38   N14   1.438736 S    
O34   Zn9   2.018678 S    
C121  C137  1.399547 A    
N12   O71   1.301055 A    
C40   C72   1.417699 A    
C25   N1    1.438757 S    
O15   Zn7   2.017053 S    
O34   C170  1.274338 A    
C30   C66   1.417467 A    
N16   O80   1.301380 A    
C83   H27   1.083091 S    
C88   C104  1.388747 A    
C58   C114  1.466055 S    
C89   C105  1.400647 A    
C125  C141  1.399547 A    
C136  H64   1.083801 S    
C83   C119  1.403007 A    
C49   C61   1.397235 A    
O32   Zn6   1.994202 S    
N15   O78   1.301380 A    
O45   Zn12  2.018794 S    
C91   H35   1.083361 S    
C51   C63   1.397231 A    
C108  C164  1.466020 S    
C1    C153  1.459008 S    
C46   H6    1.083547 S    
C29   C45   1.394100 A    
O18   C10   1.277586 A    
C97   C109  1.400708 A    
O22   Zn4   1.993977 S    
C31   C65   1.417447 A    
C94   C106  1.400669 A    
O23   Zn3   1.994098 S    
N10   O67   1.300960 A    
C74   C114  1.403068 A    
C92   C108  1.403039 A    
O38   C172  1.274338 A    
C125  C163  1.397666 A    
O1    C1    1.285693 A    
O14   C6    1.285626 A    
C52   C64   1.396351 A    
C54   C62   1.397227 A    
C33   C69   1.417395 A    
C100  C112  1.401786 A    
C35   C71   1.417297 A    
O33   Zn9   2.018793 S    
C90   H34   1.083354 S    
C148  C160  1.409888 A    
C140  O84   1.382433 S    
O37   Zn10  2.018794 S    
O30   Zn8   1.993977 S    
C150  C158  1.408796 A    
C49   H9    1.083552 S    
C79   C95   1.389037 A    
C131  C147  1.399562 A    
C53   C63   1.397236 A    
C151  O95   1.382375 S    
C143  C153  1.408798 A    
C53   H13   1.083551 S    
C101  C111  1.400706 A    
C42   H2    1.083550 S    
O48   C174  1.274367 A    
C30   N6    1.438755 S    
C28   N4    1.438730 S    
O83   H67   0.991783 S    
C82   C118  1.403086 A    
O96   H80   0.991918 S    
O10   C6    1.285630 A    
C148  O92   1.382662 S    
C121  C161  1.397667 A    
C26   N2    1.438751 S    
C130  C166  1.397690 A    
C50   C62   1.397227 A    
N14   O76   1.301377 A    
C61   C117  1.465821 S    
C15   C23   1.396873 S    
C16   C24   1.396876 S    
C82   C98   1.389095 A    
O44   C176  1.274367 A    
O92   H76   0.991921 S    
N6    O60   1.301377 A    
C103  C109  1.400690 A    
C60   C116  1.460753 S    
C144  C156  1.408211 A    
C36   C52   1.393782 A    
O31   Zn7   1.994098 S    
C34   N10   1.438737 S    
C94   H38   1.083356 S    
O88   H72   0.991757 S    
C78   C94   1.389102 A    
C25   C65   1.417443 A    
C29   N5    1.438756 S    
C75   C115  1.403031 A    
C92   H36   1.083067 S    
N8    O63   1.300956 A    
C43   H3    1.083552 S    
O21   C11   1.277686 A    
O22   C12   1.277586 A    
C121  H49   1.083792 S    
C104  C112  1.401786 A    
C84   C120  1.401942 A    
N13   O74   1.301382 A    
C56   C64   1.396351 A    
O13   Zn5   2.017057 S    
N1    O50   1.301378 A    
C40   N16   1.438560 S    
C76   C116  1.400661 A    
C126  C162  1.397687 A    
N3    O53   1.300958 A    
C28   C44   1.394261 A    
C123  C139  1.399555 A    
C45   C59   1.397213 A    
C50   H10   1.083548 S    
O3    Zn3   2.017057 S    
O42   C174  1.274156 A    
O21   Zn1   1.994097 S    
C54   H14   1.083549 S    
O40   C170  1.274321 A    
C20   C21   1.183380 T    
C44   H4    1.083810 S    
N11   O69   1.300994 A    
C76   C92   1.389137 A    
C39   C55   1.394128 A    
O28   Zn8   1.994200 S    
C77   C93   1.389032 A    
C25   C41   1.394100 A    
C91   C107  1.400655 A    
C142  O86   1.382361 S    
C28   C68   1.418128 A    
C98   H42   1.083362 S    
C39   N15   1.438757 S    
C139  C155  1.408801 A    
C102  H46   1.083361 S    
C31   C47   1.394083 A    
C36   N12   1.438559 S    
C36   C72   1.417697 A    
O9    Zn5   2.017053 S    
O17   C9    1.277687 A    
C38   C70   1.417516 A    
C69   C176  1.460769 S    
O11   Zn7   2.017057 S    
O12   C8    1.286204 A    
N4    O55   1.300955 A    
C150  O94   1.382363 S    
C65   C172  1.461005 S    
C87   H31   1.083090 S    
O5    C3    1.285693 A    
C122  H50   1.083785 S    
O7    Zn3   2.017053 S    
O35   C171  1.274375 A    
N5    O57   1.300958 A    
C87   C117  1.403009 A    
C12   C20   1.396872 S    
C79   H23   1.083085 S    
C87   C103  1.389031 A    
C37   C53   1.394118 A    
N9    O65   1.300942 A    
C141  C155  1.408792 A    
O17   Zn1   1.994096 S    
C140  C156  1.408212 A    
C2    C154  1.459176 S    
C97   H41   1.083355 S    
N7    O61   1.300963 A    
C124  H52   1.083468 S    
C145  O89   1.382370 S    
C41   C57   1.397213 A    
C88   C120  1.401942 A    
C72   C175  1.460963 S    
O14   Zn8   2.017269 S    
N15   O77   1.300997 A    
O2    C2    1.285653 A    
C149  O93   1.382371 S    
O90   H74   0.991781 S    
C68   C171  1.461142 S    
O41   Zn11  2.018793 S    
C85   C119  1.403004 A    
C86   C102  1.389095 A    
C81   C117  1.403004 A    
C56   H16   1.083737 S    
O8    C4    1.285677 A    
C137  C153  1.408794 A    
O4    Zn4   2.017272 S    
C127  H55   1.083792 S    
C103  H47   1.083357 S    
N12   O72   1.301376 A    
C104  H48   1.083316 S    
C26   C42   1.394158 A    
C78   H22   1.083078 S    
C101  H45   1.083356 S    
C99   C111  1.400691 A    
C128  C164  1.399367 A    
C96   H40   1.083067 S    
C75   C91   1.389037 A    
C40   C56   1.393782 A    
C81   C97   1.389065 A    
C70   C173  1.461306 S    
C31   N7    1.438759 S    
O16   C8    1.286207 A    
C123  H51   1.083792 S    
C85   C101  1.389065 A    
O46   Zn12  2.018681 S    
C66   C169  1.461181 S    
C127  C161  1.397669 A    
C32   C48   1.394261 A    
C78   C114  1.403069 A    
C32   N8    1.438732 S    
O6    C2    1.285649 A    
C95   H39   1.083360 S    
C102  C110  1.400654 A    
C110  C166  1.460753 S    
C81   H25   1.083092 S    
C76   H20   1.083363 S    
C77   H21   1.083088 S    
C130  H58   1.083791 S    
N10   O68   1.301379 A    
C80   C96   1.389137 A    
C134  H62   1.083792 S    
N3    O54   1.301377 A    
O36   C172  1.274321 A    
C48   C60   1.395547 A    
C142  C154  1.408815 A    
O19   C9    1.277697 A    
C146  O90   1.382365 S    
O3    C3    1.285696 A    
C90   C106  1.400670 A    
O24   C12   1.277618 A    
C126  C142  1.399622 A    
O28   C14   1.277655 A    
N11   O70   1.301382 A    
C80   C116  1.400659 A    
O24   Zn2   1.994202 S    
O95   H79   0.991784 S    
O12   Zn8   2.017272 S    
C4    C156  1.459316 S    
C71   C174  1.460769 S    
C5    C157  1.459148 S    
N2    O51   1.300961 A    
O39   C171  1.274376 A    
C63   C119  1.465821 S    
C30   C46   1.394158 A    
C98   C110  1.400653 A    
C45   H5    1.083554 S    
C17   C24   1.183378 T    
O91   H75   0.991784 S    
C18   C23   1.183380 T    
C35   N11   1.438760 S    
C19   C22   1.183378 T    
C143  O87   1.382370 S    
C139  O83   1.382370 S    
C11   C19   1.396871 S    
O87   H71   0.991783 S    
C99   H43   1.083355 S    
C46   C58   1.397240 A    
C93   H37   1.083361 S    
C132  C148  1.399271 A    
C132  H60   1.083802 S    
O29   Zn5   1.994097 S    
C124  C140  1.399623 A    
C55   H15   1.083556 S    
O93   H77   0.991783 S    
C107  C163  1.460643 S    
O20   Zn4   1.994200 S    
C74   C90   1.389102 A    
N16   O79   1.301053 A    
C34   C70   1.417516 A    
C41   H1    1.083552 S    
C100  H44   1.083316 S    
C129  C165  1.397701 A    
O20   C10   1.277618 A    
C128  H56   1.083467 S    
O10   Zn6   2.017269 S    
C152  O96   1.382661 S    
C134  C166  1.397693 A    
C135  C151  1.399558 A    
O15   C5    1.285745 A    
C84   C100  1.388747 A    
C96   C108  1.403038 A    
O45   C173  1.274414 A    
C145  C157  1.408830 A    
O1    Zn1   2.017053 S    
C126  H54   1.083784 S    
