data_mof_unit_19205.cif
_audit_creation_date              2012-12-10T19:00:47-0500
_audit_creation_method            fapswitch 2.2
_symmetry_space_group_name_H-M    P1
_symmetry_Int_Tables_number       1
_space_group_crystal_system       triclinic
_cell_length_a                    15.054966
_cell_length_b                    10.82582
_cell_length_c                    9.559819
_cell_angle_alpha                 90.130018
_cell_angle_beta                  90.050193
_cell_angle_gamma                 89.608567
_cell_volume                      1558.04083672

loop_
_atom_site_label
_atom_site_type_symbol
_atom_type_description
_atom_site_fract_x
_atom_site_fract_y
_atom_site_fract_z
_atom_type_partial_charge
C1    C     C_R   0.498187 0.262383 0.499776 0.808455
C2    C     C_R   0.907196 0.594504 0.426871 0.065707
C3    C     C_R   0.957221 0.323713 0.657321 -0.194579
C4    C     C_R   0.049513 0.325747 0.658977 -0.215993
C5    C     C_R   0.095157 0.413804 0.581170 0.115577
C6    C     C_R   0.047748 0.501756 0.501158 0.077792
C7    C     C_R   0.094148 0.589362 0.420630 0.113526
C8    C     C_R   0.047402 0.678617 0.344618 -0.215431
C9    C     C_R   0.955045 0.682207 0.348797 -0.194914
C10   C     C_R   0.187709 0.415361 0.582006 -0.255632
C11   C     C_R   0.233031 0.500676 0.499836 -0.055509
C12   C     C_R   0.329095 0.500322 0.499931 0.804134
C13   C     C_R   0.186781 0.586609 0.418267 -0.254005
C14   C     C_R   0.472722 0.064027 0.621048 0.108828
C15   C     C_R   0.489109 0.129378 0.498041 -0.089184
C16   C     C_R   0.492600 0.064157 0.370736 -0.210433
C17   C     C_R   0.493099 0.935475 0.370818 -0.195894
C18   C     C_R   0.490245 0.870875 0.498224 -0.087959
C19   C     C_R   0.473863 0.936873 0.621144 0.119656
C20   C     C_3   0.518230 0.930887 0.760692 -0.468955
C21   C     C_3   0.515840 0.071141 0.761549 -0.440848
C22   C     C_R   0.577511 0.511443 0.073522 0.254287
C23   C     C_R   0.498704 0.737664 0.499913 0.808779
C24   C     C_R   0.424664 0.476621 0.074026 -0.089694
C25   C     C_R   0.424666 0.476580 0.925636 -0.089021
C26   C     C_R   0.577507 0.511242 0.926292 0.277398
C27   C     C_3   0.640497 0.616452 0.919977 -0.505997
C28   C     C_3   0.640351 0.617133 0.078639 -0.471145
C29   C     C_R   0.671038 0.500954 0.500328 0.833268
C30   C     C_R   0.813809 0.597096 0.432110 -0.087362
C31   C     C_R   0.768160 0.502260 0.502028 -0.163739
C32   C     C_R   0.814937 0.410139 0.576491 -0.089132
C33   C     C_R   0.908309 0.411467 0.579404 0.062340
C34   C     C_R   0.954197 0.502328 0.502074 0.031468
Cu1   Cu    Cu3+1 0.500000 0.499980 0.640670 0.951381
Cu2   Cu    Cu3+1 0.500000 0.500020 0.359330 0.949322
H1    H     H_    0.500563 0.887384 0.271996 0.167091
H2    H     H_    0.475049 0.889024 0.841796 0.198341
H3    H     H_    0.586775 0.892464 0.754438 0.203714
H4    H     H_    0.470449 0.110323 0.842135 0.192398
H5    H     H_    0.582785 0.113110 0.758182 0.234359
H6    H     H_    0.363210 0.458851 0.128271 0.151455
H7    H     H_    0.363210 0.458729 0.871170 0.148891
H8    H     H_    0.705628 0.588792 0.874532 0.207186
H9    H     H_    0.610031 0.700522 0.873559 0.208922
H10   H     H_    0.705587 0.589768 0.123711 0.208788
H11   H     H_    0.609732 0.701817 0.124302 0.223780
H12   H     H_    0.924689 0.253254 0.718510 0.160061
H13   H     H_    0.085256 0.257693 0.720551 0.144612
H14   H     H_    0.224703 0.348826 0.644125 0.134546
H15   H     H_    0.223090 0.652942 0.355955 0.139461
H16   H     H_    0.082341 0.746519 0.282738 0.145889
H17   H     H_    0.921510 0.753285 0.288850 0.160726
H18   H     H_    0.499874 0.111735 0.271906 0.169101
N1    N     N_R   0.500570 0.500930 0.147930 -0.189235
N2    N     N_R   0.500570 0.500890 0.852020 -0.187859
O1    O     O_R   0.500000 0.319640 0.618810 -0.574198
O2    O     O_R   0.500010 0.319680 0.381230 -0.585559
O3    O     O_R   0.370250 0.499950 0.618800 -0.593299
O4    O     O_R   0.370260 0.499990 0.381220 -0.593895
O5    O     O_R   0.499990 0.680320 0.618770 -0.580751
O6    O     O_R   0.500000 0.680360 0.381190 -0.582751
O7    O     O_R   0.629740 0.500010 0.618780 -0.577341
O8    O     O_R   0.629750 0.500050 0.381200 -0.575750
C35   C     C_1   0.764693 0.701627 0.375630 0.210804
N3    N     N_1   0.725747 0.785590 0.331812 -0.301326
C36   C     C_1   0.766738 0.313389 0.648137 0.240131
N4    N     N_1   0.728601 0.236193 0.705476 -0.314780

loop_
_geom_bond_atom_site_label_1
_geom_bond_atom_site_label_2
_ccdc_geom_bond_type
C2    C9    A    
C11   C12   S    
C29   O7    A    
C28   H11   S    
C6    C7    A    
C1    C15   S    
C1    O1    A    
C20   H2    S    
C8    H16   S    
Cu2   O8    S    
C19   C20   S    
C25   N2    A    
C2    C30   A    
C4    H13   S    
Cu1   O1    S    
C9    H17   S    
C32   C33   A    
C27   H9    S    
C16   H18   S    
C17   H1    S    
C17   C18   A    
Cu1   N2    S    
C29   O8    A    
C5    C10   A    
Cu1   O5    S    
Cu2   N1    S    
C22   C28   S    
C1    O2    A    
C24   C25   A    
C24   N1    A    
C4    C5    A    
C11   C13   A    
C28   H10   S    
C26   C27   S    
C22   N1    A    
C21   H4    S    
C10   H14   S    
C32   C36   S    
C21   H5    S    
C5    C6    A    
C14   C19   A    
C14   C21   S    
Cu1   O3    S    
C25   H7    S    
C33   C34   A    
Cu2   O2    S    
C22   C26   A    
C30   C31   A    
C31   C32   A    
Cu2   O6    S    
C30   C35   S    
C7    C8    A    
C15   C16   A    
C3    C33   A    
C36   N4    T    
C12   O4    A    
C6    C34   A    
C3    H12   S    
C7    C13   A    
C24   H6    S    
C20   C21   S    
C29   C31   S    
C35   N3    T    
C10   C11   A    
C23   O5    A    
C27   C28   S    
C20   H3    S    
C14   C15   A    
C18   C19   A    
Cu1   O7    S    
C2    C34   A    
C13   H15   S    
C12   O3    A    
C27   H8    S    
C23   O6    A    
C3    C4    A    
C18   C23   S    
C16   C17   A    
C8    C9    A    
Cu2   O4    S    
Cu1   Cu2   S    
C26   N2    A    
