data_mof_unit_50653.cif
_audit_creation_date              2013-03-05T15:50:21-0500
_audit_creation_method            fapswitch 2.2
_symmetry_space_group_name_H-M    P1
_symmetry_Int_Tables_number       1
_space_group_crystal_system       triclinic
_cell_length_a                    21.61569
_cell_length_b                    7.244234
_cell_length_c                    19.894698
_cell_angle_alpha                 90.031204
_cell_angle_beta                  87.669236
_cell_angle_gamma                 90.022143
_cell_volume                      3112.71524024

loop_
_atom_site_label
_atom_site_type_symbol
_atom_site_description
_atom_site_fract_x
_atom_site_fract_y
_atom_site_fract_z
_atom_type_partial_charge
O1    O     O_R   0.688010 0.379840 0.189360 -0.583644
O2    O     O_R   0.311990 0.620160 0.810640 -0.577906
O3    O     O_R   0.811990 0.879840 0.310640 -0.588080
O4    O     O_R   0.188010 0.120160 0.689360 -0.592177
O5    O     O_R   0.808630 0.708850 0.184280 -0.564326
O6    O     O_R   0.191370 0.291150 0.815720 -0.566733
O7    O     O_R   0.691370 0.208850 0.315720 -0.564279
O8    O     O_R   0.308630 0.791150 0.684280 -0.565762
C1    C     C_R   0.830462 0.540984 0.166699 0.944938
C2    C     C_R   0.169511 0.459010 0.833269 0.938846
C3    C     C_R   0.669490 0.040998 0.333248 0.935534
C4    C     C_R   0.330481 0.959011 0.666718 0.944685
O9    O     O_R   0.688260 0.709510 0.181570 -0.593530
O10   O     O_R   0.311740 0.290490 0.818430 -0.588175
O11   O     O_R   0.811740 0.209510 0.318430 -0.569285
O12   O     O_R   0.188260 0.790490 0.681570 -0.577848
O13   O     O_R   0.690760 0.880550 0.307920 -0.565801
O14   O     O_R   0.309240 0.119450 0.692080 -0.561764
O15   O     O_R   0.809240 0.380550 0.192080 -0.565853
O16   O     O_R   0.190760 0.619450 0.807920 -0.564565
C5    C     C_R   0.668357 0.540714 0.165810 0.923602
C6    C     C_R   0.331607 0.459174 0.834123 0.916878
C7    C     C_R   0.831449 0.040926 0.334311 0.918198
C8    C     C_R   0.168523 0.959024 0.665634 0.920849
O17   O     O_3   0.750960 0.546580 0.291460 -0.267792
O18   O     O_3   0.249040 0.453420 0.708540 -0.272027
O19   O     O_3   0.749040 0.046580 0.208540 -0.274530
O20   O     O_3   0.250960 0.953420 0.791460 -0.270717
V1    V     V_3+5 0.749820 0.821150 0.242310 1.167301
V2    V     V_3+5 0.250180 0.178850 0.757690 1.168161
V3    V     V_3+5 0.750180 0.321150 0.257690 1.182018
V4    V     V_3+5 0.249820 0.678850 0.742310 1.178025
C9    C     C_R   0.074627 0.829737 0.612854 -0.134359
C10   C     C_R   0.929479 0.158524 0.381526 -0.130750
C11   C     C_R   0.426944 0.607059 0.876271 -0.143941
C12   C     C_R   0.577988 0.379144 0.117824 -0.169440
C13   C     C_R   0.119671 0.968126 0.615336 -0.168677
C14   C     C_R   0.880829 0.030926 0.383812 -0.160738
C15   C     C_R   0.381642 0.469460 0.882859 -0.170358
C16   C     C_R   0.619045 0.528803 0.116063 -0.167355
C17   C     C_R   0.118250 0.114488 0.569611 -0.138381
C18   C     C_R   0.880648 0.889137 0.431477 -0.133297
C19   C     C_R   0.385169 0.339971 0.934616 -0.149180
C20   C     C_R   0.613794 0.662834 0.066062 -0.151922
C21   C     C_R   0.072974 0.123031 0.520633 -0.019952
C22   C     C_R   0.928559 0.872516 0.477082 -0.033616
C23   C     C_R   0.433413 0.346248 0.980193 -0.034798
C24   C     C_R   0.568897 0.647034 0.016831 -0.023463
C25   C     C_R   0.025242 0.989005 0.521197 -0.019665
C26   C     C_R   0.977351 0.003397 0.475099 -0.027524
C27   C     C_R   0.478121 0.489260 0.974399 -0.009068
C28   C     C_R   0.525484 0.500360 0.021183 0.001952
C29   C     C_R   0.026204 0.839039 0.567203 0.140361
C30   C     C_R   0.978698 0.146300 0.426083 0.129022
C31   C     C_R   0.475807 0.619302 0.921134 0.153909
C32   C     C_R   0.530195 0.363474 0.071807 0.147112
C33   C     C_R   0.075601 0.261337 0.470543 0.271503
C34   C     C_R   0.929286 0.723765 0.523002 0.263657
C35   C     C_R   0.438280 0.209358 0.030278 0.280359
C36   C     C_R   0.567776 0.773206 0.962724 0.281556
C37   C     C_R   0.029924 0.269806 0.421565 -0.052627
C38   C     C_R   0.979284 0.701380 0.566021 -0.053125
C39   C     C_R   0.487825 0.212922 0.074596 -0.031784
C40   C     C_R   0.522823 0.756094 0.913248 -0.035021
H1    H     H_    0.077091 0.718446 0.648708 0.125112
H2    H     H_    0.928429 0.265400 0.343786 0.124311
H3    H     H_    0.423365 0.703447 0.835249 0.124946
H4    H     H_    0.583194 0.277833 0.156929 0.133428
H5    H     H_    0.153719 0.219628 0.571711 0.176676
H6    H     H_    0.842721 0.791460 0.432379 0.177886
H7    H     H_    0.349855 0.234212 0.938880 0.180351
H8    H     H_    0.646096 0.777068 0.064947 0.178150
C41   C     C_1   0.382727 0.969061 0.614599 -0.294492
C42   C     C_1   0.617158 0.030970 0.385263 -0.288293
C43   C     C_1   0.117201 0.469032 0.885314 -0.292521
C44   C     C_1   0.882706 0.530949 0.114574 -0.294517
C45   C     C_1   0.426288 0.979857 0.571777 0.077823
C46   C     C_1   0.573532 0.020183 0.428005 0.074563
C47   C     C_1   0.073582 0.479798 0.928067 0.072805
C48   C     C_1   0.926276 0.520172 0.071760 0.074128
C49   C     C_1   0.478046 0.993946 0.521177 0.013312
C50   C     C_1   0.521730 0.006096 0.478548 0.008391
C51   C     C_1   0.021767 0.493894 0.978594 0.007688
C52   C     C_1   0.978060 0.506068 0.021192 0.010040
N1    N     N_R   0.126762 0.387877 0.467176 0.225401
O21   O     O_R   0.182064 0.329162 0.450092 -0.383613
O22   O     O_R   0.118171 0.561615 0.481037 -0.421991
N2    N     N_R   0.879137 0.593818 0.525891 0.228261
O23   O     O_R   0.874142 0.470637 0.478850 -0.433948
O24   O     O_R   0.838465 0.598447 0.575855 -0.386169
N3    N     N_R   0.392921 0.064902 0.036014 0.225491
O25   O     O_R   0.353123 0.062107 0.086805 -0.389334
O26   O     O_R   0.392089 0.934233 0.991225 -0.438920
N4    N     N_R   0.614402 0.913936 0.956105 0.224581
O27   O     O_R   0.671666 0.869186 0.941506 -0.384663
O28   O     O_R   0.599519 0.086919 0.963247 -0.426721
C53   C     C_3   0.040263 0.396772 0.361001 -0.357042
C54   C     C_3   0.005937 0.580605 0.370189 -0.230282
C55   C     C_3   0.014362 0.701710 0.307776 -0.897957
H9    H     H_    0.064215 0.731952 0.297386 0.280771
H10   H     H_    0.995195 0.631660 0.263497 0.254433
H11   H     H_    0.989484 0.834198 0.316034 0.250278
H12   H     H_    0.955751 0.556547 0.380120 0.222299
H13   H     H_    0.024189 0.655514 0.413757 0.238483
H14   H     H_    0.090359 0.425448 0.351691 0.234187
H15   H     H_    0.026341 0.326167 0.314400 0.169866
C56   C     C_3   0.984057 0.523783 0.606529 -0.362895
C57   C     C_3   0.959916 0.548857 0.679574 -0.230988
C58   C     C_3   0.972775 0.377434 0.721342 -0.894073
H16   H     H_    0.950167 0.254520 0.699638 0.273359
H17   H     H_    0.023441 0.352640 0.722713 0.249544
H18   H     H_    0.954129 0.397724 0.773655 0.260501
H19   H     H_    0.982047 0.669786 0.703083 0.185775
H20   H     H_    0.909219 0.574024 0.680697 0.251200
H21   H     H_    0.957848 0.410001 0.583302 0.220720
H22   H     H_    0.032685 0.473895 0.604536 0.189581
C59   C     C_3   0.497407 0.048621 0.120924 -0.363682
C60   C     C_3   0.472181 0.086125 0.192903 -0.236049
C61   C     C_3   0.490907 0.932746 0.240572 -0.893778
H23   H     H_    0.472951 0.797565 0.223547 0.271224
H24   H     H_    0.542154 0.925429 0.242530 0.247792
H25   H     H_    0.471402 0.961477 0.292012 0.260073
H26   H     H_    0.489661 0.219683 0.211879 0.186973
H27   H     H_    0.420878 0.094604 0.193439 0.251480
H28   H     H_    0.474744 0.922520 0.101781 0.220785
H29   H     H_    0.547305 0.011720 0.120426 0.187896
C62   C     C_3   0.529646 0.870707 0.849048 -0.371163
C63   C     C_3   0.488398 0.042948 0.851635 -0.211036
C64   C     C_3   0.489770 0.141348 0.783785 -0.907598
H30   H     H_    0.537827 0.183340 0.768939 0.278170
H31   H     H_    0.471531 0.049292 0.744531 0.252162
H32   H     H_    0.460427 0.266862 0.787244 0.246550
H33   H     H_    0.439766 0.006068 0.865690 0.222833
H34   H     H_    0.505214 0.139515 0.890063 0.239653
H35   H     H_    0.578444 0.914647 0.839502 0.233623
H36   H     H_    0.519578 0.783864 0.804761 0.173543

loop_
_geom_bond_atom_site_label_1
_geom_bond_atom_site_label_2
_geom_bond_distance
_ccdc_geom_bond_type
C34   C38   1.415016 A    
O1    C5    1.332409 A    
O19   V1    1.766552 S    
O13   V1    1.839290 S    
O3    C7    1.332508 A    
O1    V3    1.996079 S    
C48   C52   1.477779 S    
O15   V3    1.839394 S    
C63   C64   1.526080 S    
C10   H2    1.079690 S    
C53   C54   1.531958 S    
C9    H1    1.079535 S    
N1    O21   1.300981 A    
O7    C3    1.345528 A    
C21   C33   1.413015 A    
C26   C30   1.422041 A    
O9    V1    2.003463 S    
C49   C50   1.246391 T    
C62   H35   1.110633 S    
C14   C18   1.398232 A    
C58   H17   1.111305 S    
C18   C22   1.409563 A    
C39   C59   1.525113 S    
C25   C29   1.421625 A    
C54   H12   1.108450 S    
C54   C55   1.525549 S    
C18   H6    1.082355 S    
C57   C58   1.526453 S    
O2    V4    1.996079 S    
C29   C38   1.422959 A    
C57   H20   1.110297 S    
C33   C37   1.416475 A    
O3    V1    1.995541 S    
C60   C61   1.526598 S    
C1    O15   1.340729 A    
C55   H9    1.110733 S    
C2    O16   1.340722 A    
O2    C6    1.332374 A    
C56   C57   1.534678 S    
O14   V2    1.839291 S    
C1    C44   1.503565 S    
C45   C49   1.477805 S    
C19   C23   1.410171 A    
C59   H29   1.110952 S    
C16   C20   1.398389 A    
C64   H32   1.109322 S    
C53   H14   1.110678 S    
O11   C7    1.335873 A    
O12   C8    1.336021 A    
C4    C41   1.503539 S    
C22   C34   1.413612 A    
C63   H33   1.109304 S    
O10   V2    2.003462 S    
O16   V4    1.839393 S    
C24   C36   1.413492 A    
O5    V1    1.868442 S    
C61   H24   1.111308 S    
C9    C29   1.415055 A    
O7    V3    1.868560 S    
N1    O22   1.300091 A    
C11   C31   1.413006 A    
C27   C28   1.413605 A    
O8    V4    1.868563 S    
C12   C16   1.400368 A    
C62   H36   1.111005 S    
C58   H18   1.110388 S    
N3    O25   1.300310 A    
O18   V4    1.765864 S    
C15   C19   1.397673 A    
C38   C56   1.524254 S    
C9    C13   1.399505 A    
C57   H19   1.110152 S    
C11   C15   1.399510 A    
O5    C1    1.345516 A    
C12   C32   1.412448 A    
C63   H34   1.108066 S    
N3    O26   1.300277 A    
C2    C43   1.503542 S    
C46   C50   1.477758 S    
C51   C52   1.246371 T    
C21   C25   1.416198 A    
O8    C4    1.345538 A    
C40   C62   1.525844 S    
C31   C40   1.423333 A    
C8    C13   1.485537 S    
C32   C39   1.423553 A    
O9    C5    1.337448 A    
C60   H27   1.110294 S    
N4    O28   1.300158 A    
C56   H21   1.111039 S    
C53   H15   1.110756 S    
O6    V2    1.868443 S    
N2    O24   1.300388 A    
C10   C30   1.415074 A    
C62   C63   1.533490 S    
C17   H5    1.082497 S    
C64   H30   1.110739 S    
C35   N3    1.435153 S    
C61   H25   1.110461 S    
C3    O13   1.340602 A    
C19   H7    1.082218 S    
C55   H10   1.110953 S    
C10   C14   1.399185 A    
O17   V3    1.765862 S    
C37   C53   1.525402 S    
C44   C48   1.246316 T    
C3    C42   1.503524 S    
C34   N2    1.434838 S    
O6    C2    1.345518 A    
C23   C27   1.418035 A    
C61   H23   1.111042 S    
C12   H4    1.079064 S    
O11   V3    2.004409 S    
C30   C37   1.423336 A    
O12   V4    2.004409 S    
C7    C14   1.483267 S    
C22   C26   1.417302 A    
C35   C39   1.414838 A    
C36   C40   1.416334 A    
O10   C6    1.336121 A    
O20   V2    1.766551 S    
C17   C21   1.410231 A    
C59   C60   1.535567 S    
C47   C51   1.477750 S    
C5    C16   1.486201 S    
C59   H28   1.110849 S    
O4    C8    1.333426 A    
C54   H13   1.108395 S    
C6    C15   1.483424 S    
C33   N1    1.435637 S    
C20   H8    1.082201 S    
C27   C31   1.420673 A    
C60   H26   1.110098 S    
C13   C17   1.398573 A    
N4    O27   1.301000 A    
C56   H22   1.110828 S    
C11   H3    1.079530 S    
C23   C35   1.413150 A    
C28   C32   1.420409 A    
C24   C28   1.417671 A    
C55   H11   1.109226 S    
N2    O23   1.300400 A    
C25   C26   1.414571 A    
C42   C46   1.246279 T    
C4    O14   1.340589 A    
C41   C45   1.246309 T    
C58   H16   1.111083 S    
C43   C47   1.246295 T    
O4    V2    1.995545 S    
C20   C24   1.411140 A    
C64   H31   1.110990 S    
C36   N4    1.435622 S    
