data_mof_unit_5202.cif
_audit_creation_date              2012-12-10T20:41:54-0500
_audit_creation_method            fapswitch 2.2
_symmetry_space_group_name_H-M    P1
_symmetry_Int_Tables_number       1
_space_group_crystal_system       triclinic
_cell_length_a                    14.802344
_cell_length_b                    15.381879
_cell_length_c                    9.938515
_cell_angle_alpha                 88.976553
_cell_angle_beta                  89.032623
_cell_angle_gamma                 89.821451
_cell_volume                      2262.18681341

loop_
_atom_site_label
_atom_site_type_symbol
_atom_type_description
_atom_site_fract_x
_atom_site_fract_y
_atom_site_fract_z
_atom_type_partial_charge
C1    C     C_R   0.386227 0.874747 0.501237 0.898271
C2    C     C_R   0.921192 0.490780 0.073499 -0.012594
C3    C     C_R   0.574339 0.973833 0.070602 0.430400
C4    C     C_R   0.078757 0.502563 0.068521 0.420244
C5    C     C_R   0.573590 0.972199 0.927249 -0.063926
C6    C     C_R   0.078061 0.504758 0.925932 -0.078840
C7    C     C_R   0.436626 0.046603 0.930161 0.070712
C8    C     C_R   0.921084 0.490206 0.931255 0.046361
C9    C     C_3   0.335733 0.046811 0.924660 0.707803
C10   C     C_3   0.838466 0.547674 0.927116 0.664720
C11   C     C_3   0.333659 0.028380 0.076952 0.617519
C12   C     C_R   0.386503 0.125014 0.498961 0.873521
C13   C     C_3   0.838925 0.547723 0.081437 0.650651
C14   C     C_R   0.624039 0.116377 0.498805 0.921710
C15   C     C_R   0.620124 0.880852 0.500058 0.975383
C16   C     C_R   0.122427 0.617775 0.498049 0.923927
C17   C     C_R   0.124068 0.383649 0.498960 0.911170
C18   C     C_R   0.306750 0.238357 0.616519 0.036180
C19   C     C_R   0.293174 0.766949 0.622120 0.004517
C20   C     C_R   0.730891 0.670748 0.549559 0.007722
C21   C     C_R   0.801849 0.260741 0.621206 0.081185
C22   C     C_R   0.334724 0.203293 0.495117 -0.183907
C23   C     C_R   0.885702 0.375079 0.500784 0.928359
C24   C     C_R   0.337400 0.793861 0.503854 -0.268677
C25   C     C_R   0.817357 0.688694 0.501072 -0.166981
C26   C     C_R   0.837850 0.293641 0.501015 -0.260267
C27   C     C_R   0.316003 0.247202 0.373231 -0.113762
C28   C     C_R   0.328883 0.742955 0.387475 -0.109346
C29   C     C_R   0.844073 0.774136 0.465738 -0.109054
C30   C     C_R   0.827153 0.244700 0.382176 -0.142535
C31   C     C_R   0.778005 0.840404 0.466265 0.426739
C32   C     C_R   0.757437 0.182141 0.379613 0.434285
C33   C     C_R   0.242759 0.304303 0.370372 0.428015
C34   C     C_R   0.880056 0.619445 0.499996 0.949656
C35   C     C_R   0.257479 0.684056 0.382155 0.397097
C36   C     C_R   0.688872 0.817567 0.501662 -0.179416
C37   C     C_R   0.705165 0.167707 0.498242 -0.203996
C38   C     C_R   0.201902 0.327890 0.494467 -0.088843
C39   C     C_R   0.199595 0.673358 0.495908 -0.256905
C40   C     C_R   0.666667 0.735126 0.549430 0.010632
C41   C     C_R   0.737074 0.198013 0.620077 0.048726
C42   C     C_R   0.241148 0.302773 0.615864 -0.080885
C43   C     C_R   0.223248 0.709596 0.616679 0.087227
C44   C     C_3   0.594010 0.676757 0.500714 0.151420
C45   C     C_3   0.367990 0.289935 0.703632 0.220853
C46   C     C_3   0.689918 0.232848 0.742269 0.187070
C47   C     C_3   0.297379 0.360416 0.701136 0.280448
C48   C     C_3   0.165379 0.758504 0.714052 0.237138
C49   C     C_1   0.377380 0.243318 0.258067 0.334361
C50   C     C_1   0.388045 0.753159 0.270628 0.380505
C51   C     C_1   0.936933 0.792057 0.425904 0.166392
C52   C     C_1   0.885519 0.258200 0.264915 0.257546
C53   C     C_1   0.656645 0.950550 0.857971 0.437367
C54   C     C_1   0.161513 0.522091 0.855556 0.458289
C55   C     C_3   0.245030 0.818958 0.726833 0.241937
C56   C     C_3   0.665173 0.604785 0.499907 0.232117
C57   C     C_3   0.761962 0.303553 0.742186 0.233844
C58   C     C_R   0.433654 0.041360 0.071514 0.030970
H1    H     H_    0.568540 0.696025 0.399587 0.077527
H2    H     H_    0.243636 0.938240 0.103593 0.339921
H3    H     H_    0.914561 0.650354 0.114450 0.310217
H4    H     H_    0.713768 0.543886 0.139834 0.341898
H5    H     H_    0.861214 0.933860 0.410234 0.350253
H6    H     H_    0.772380 0.158742 0.186159 0.352244
H7    H     H_    0.233844 0.303728 0.173713 0.349778
H8    H     H_    0.190006 0.671875 0.223171 0.360970
H9    H     H_    0.480004 0.627380 0.557645 0.366228
H10   H     H_    0.660026 0.200011 0.925622 0.338986
H11   H     H_    0.370437 0.464188 0.687457 0.375756
H12   H     H_    0.620640 0.257312 0.723739 0.076389
H13   H     H_    0.106133 0.747344 0.887350 0.337540
H14   H     H_    0.485025 0.260996 0.628894 0.319302
H15   H     H_    0.350590 0.825732 0.840465 0.391957
H16   H     H_    0.641267 0.560775 0.683855 0.391491
H17   H     H_    0.788292 0.325498 0.927558 0.363185
H18   H     H_    0.657633 0.991166 0.211762 0.414358
H19   H     H_    0.152740 0.500587 0.225696 0.427230
H20   H     H_    0.236214 0.128193 0.904158 0.338877
H21   H     H_    0.235110 0.981524 0.864419 0.311903
H22   H     H_    0.913933 0.650013 0.882714 0.308658
H23   H     H_    0.265890 0.373036 0.801187 0.067209
H24   H     H_    0.711116 0.541817 0.891590 0.343708
H25   H     H_    0.104625 0.788520 0.667181 0.043284
H26   H     H_    0.379246 0.261550 0.805450 0.144755
H27   H     H_    0.229732 0.886456 0.693458 0.101511
H28   H     H_    0.682539 0.581029 0.397647 0.134734
H29   H     H_    0.736340 0.370421 0.721038 0.151974
H30   H     H_    0.272171 0.065658 0.240607 0.357394
N1    N     N_R   0.499140 1.000000 0.142800 -0.156148
N2    N     N_1   0.229359 0.538857 0.802307 -0.134788
N3    N     N_R   0.999140 0.500000 0.142800 -0.187270
N4    N     N_R   0.499160 0.000000 0.857150 -0.156454
N5    N     N_R   0.999160 0.500000 0.857150 -0.174710
N6    N     N_1   0.426574 0.241040 0.166407 -0.181114
N7    N     N_1   0.435277 0.761207 0.177250 -0.142096
N8    N     N_1   0.011065 0.806286 0.394045 -0.234847
N9    N     N_1   0.932100 0.268817 0.171361 -0.142782
N10   N     N_1   0.724451 0.933659 0.804695 -0.153032
O1    O     O_R   0.408400 0.908380 0.614690 -0.581556
O2    O     O_R   0.591610 0.908390 0.614650 -0.632857
O3    O     O_R   0.091610 0.591610 0.614650 -0.610090
O4    O     O_R   0.091610 0.408390 0.614650 -0.637497
O5    O     O_R   0.591590 0.091600 0.385310 -0.580759
O6    O     O_R   0.591590 0.908400 0.385310 -0.607336
O7    O     O_R   0.091590 0.591600 0.385310 -0.639190
O8    O     O_R   0.091590 0.408400 0.385310 -0.589770
O9    O     O_3   0.286508 0.091543 0.150713 -0.805489
O10   O     O_3   0.310114 0.942361 0.112817 -0.753657
O11   O     O_3   0.852371 0.630373 0.137174 -0.736409
O12   O     O_R   0.408400 0.091620 0.614690 -0.577791
O13   O     O_3   0.766095 0.503471 0.143049 -0.734168
O14   O     O_3   0.796088 0.926143 0.430384 -0.746129
O15   O     O_3   0.737014 0.136858 0.264797 -0.739170
O16   O     O_3   0.211888 0.338975 0.250072 -0.721762
O17   O     O_3   0.242641 0.642001 0.263984 -0.695040
O18   O     O_3   0.525760 0.665162 0.598826 -0.713251
O19   O     O_3   0.695910 0.174044 0.851232 -0.685287
O20   O     O_3   0.325926 0.435351 0.629618 -0.689618
O21   O     O_3   0.146430 0.710228 0.831843 -0.689582
O22   O     O_3   0.448526 0.314776 0.636970 -0.713323
O23   O     O_R   0.908400 0.408380 0.614690 -0.573181
O24   O     O_3   0.286035 0.809817 0.853056 -0.637881
O25   O     O_3   0.648480 0.536197 0.592697 -0.702242
O26   O     O_3   0.820282 0.297031 0.851616 -0.664816
O27   O     O_3   0.653217 0.952352 0.134204 -0.719974
O28   O     O_3   0.161684 0.505901 0.128337 -0.699471
O29   O     O_3   0.302529 0.129258 0.887912 -0.800183
O30   O     O_3   0.301248 0.981535 0.846094 -0.755094
O31   O     O_3   0.851448 0.630243 0.865780 -0.723941
O32   O     O_3   0.764492 0.504334 0.873897 -0.750300
O33   O     O_R   0.908400 0.591620 0.614690 -0.566623
O34   O     O_R   0.408370 0.908370 0.385350 -0.595077
O35   O     O_R   0.408370 0.091630 0.385350 -0.622187
O36   O     O_R   0.908370 0.408370 0.385350 -0.592622
O37   O     O_R   0.908370 0.591630 0.385350 -0.577846
O38   O     O_R   0.591610 0.091610 0.614650 -0.628242
Zn1   Zn    Zn3+2 0.500010 1.000000 0.653130 1.015716
Zn2   Zn    Zn3+2 0.000010 0.500000 0.653130 1.021938
Zn3   Zn    Zn3+2 0.499980 0.000000 0.346870 1.022839
Zn4   Zn    Zn3+2 0.999980 0.500000 0.346870 1.019871

loop_
_geom_bond_atom_site_label_1
_geom_bond_atom_site_label_2
_ccdc_geom_bond_type
C48   C55   S    
H21   O30   S    
H7    O16   S    
H11   O20   S    
C15   O2    A    
C20   C56   S    
C1    O34   A    
H3    O11   S    
C1    O1    A    
C12   O12   A    
C23   O23   A    
C27   C33   A    
O34   Zn3   S    
C33   O16   S    
C9    O29   S    
C5    C53   S    
C38   C42   A    
C18   C42   A    
O36   Zn4   S    
C20   C40   A    
C50   N7    T    
C20   C25   A    
H20   O29   S    
C44   H1    S    
H9    O18   S    
C12   C22   S    
C52   N9    T    
O4    Zn2   S    
C23   C26   S    
H5    O14   S    
C2    C13   S    
C13   O11   S    
N5    Zn2   S    
O8    Zn4   S    
C47   O20   S    
H4    O13   S    
C28   C35   A    
N1    Zn3   S    
C41   C46   S    
O6    Zn3   S    
C35   O17   S    
H6    O15   S    
C49   N6    T    
H24   O32   S    
C11   C58   S    
C43   C48   S    
C7    C58   A    
H2    O10   S    
C51   N8    T    
C17   C38   S    
C4    N3    A    
H16   O25   S    
C55   O24   S    
H18   O27   S    
C28   C50   S    
C6    C54   S    
N4    Zn1   S    
C21   C26   A    
C19   C43   A    
C48   O21   S    
C45   C47   S    
C25   C29   A    
O37   Zn4   S    
C9    O30   S    
H8    O17   S    
H17   O26   S    
C56   O25   S    
C36   C40   A    
C4    C6    A    
H30   O9    S    
C39   C43   A    
C57   H29   S    
C46   O19   S    
O23   Zn2   S    
C55   H27   S    
C35   C39   A    
C17   O4    A    
C10   O32   S    
C21   C57   S    
O5    Zn3   S    
H10   O19   S    
C44   C56   S    
C56   H28   S    
C31   O14   S    
C6    N5    A    
H14   O22   S    
C32   C37   A    
C9    C11   S    
C16   O7    A    
C54   N2    T    
C21   C41   A    
C45   O22   S    
C8    C10   S    
C34   O33   A    
O35   Zn3   S    
C12   O35   A    
C46   C57   S    
C11   O9    S    
C22   C27   A    
C15   O6    A    
C45   H26   S    
C18   C45   S    
C15   C36   S    
C29   C51   S    
C19   C55   S    
C7    C9    S    
C30   C52   S    
H22   O31   S    
C23   O36   A    
C18   C22   A    
O12   Zn1   S    
C2    C8    A    
C8    N5    A    
C24   C28   A    
C14   C37   S    
O38   Zn1   S    
C3    C5    A    
C10   C13   S    
O3    Zn2   S    
C3    O27   S    
C26   C30   A    
H13   O21   S    
C53   N10   T    
C25   C34   S    
C32   O15   S    
C33   C38   A    
C48   H25   S    
C4    O28   S    
C3    N1    A    
C19   C24   A    
C10   O31   S    
C29   C31   A    
O33   Zn2   S    
C17   O8    A    
O7    Zn4   S    
C30   C32   A    
C14   O5    A    
C14   O38   A    
C34   O37   A    
C7    N4    A    
C42   C47   S    
C47   H23   S    
C37   C41   A    
C2    N3    A    
C58   N1    A    
C46   H12   S    
C5    N4    A    
O2    Zn1   S    
C16   C39   S    
N3    Zn4   S    
C16   O3    A    
C40   C44   S    
C44   O18   S    
C1    C24   S    
C13   O13   S    
H15   O24   S    
C11   O10   S    
C31   C36   A    
O1    Zn1   S    
H19   O28   S    
C27   C49   S    
C57   O26   S    
