data_mof_unit_7871.cif
_audit_creation_date              2012-12-11T14:44:06-0500
_audit_creation_method            fapswitch 2.2
_symmetry_space_group_name_H-M    P1
_symmetry_Int_Tables_number       1
_space_group_crystal_system       triclinic
_cell_length_a                    18.932739
_cell_length_b                    10.943268
_cell_length_c                    18.882526
_cell_angle_alpha                 89.7814
_cell_angle_beta                  89.994339
_cell_angle_gamma                 90.003791
_cell_volume                      3912.16722614

loop_
_atom_site_label
_atom_site_type_symbol
_atom_type_description
_atom_site_fract_x
_atom_site_fract_y
_atom_site_fract_z
_atom_type_partial_charge
C1    C     C_R   0.730273 0.377252 0.145953 0.545738
C2    C     C_R   0.269871 0.376689 0.854230 0.544621
C3    C     C_R   0.230273 0.877252 0.145953 0.545738
C4    C     C_R   0.769871 0.876689 0.854230 0.544621
C5    C     C_R   0.513729 0.385779 0.926863 -0.122210
C6    C     C_R   0.490342 0.391712 0.072176 -0.120046
C7    C     C_R   0.013729 0.885779 0.926863 -0.122212
C8    C     C_R   0.990343 0.891713 0.072176 -0.120047
C9    C     C_R   0.009333 0.999042 0.960963 0.028881
C10   C     C_R   0.996464 0.002140 0.034695 0.028615
C11   C     C_R   0.509333 0.499042 0.960963 0.028885
C12   C     C_R   0.496463 0.502139 0.034695 0.028619
C13   C     C_R   0.699694 0.863122 0.038622 -0.131504
C14   C     C_R   0.302484 0.866749 0.962499 -0.138256
C15   C     C_R   0.199695 0.363119 0.038623 -0.131503
C16   C     C_R   0.802483 0.366747 0.962498 -0.138256
C17   C     C_R   0.701462 0.850159 0.965323 -0.121069
C18   C     C_R   0.300391 0.853987 0.035840 -0.128945
C19   C     C_R   0.201463 0.350156 0.965324 -0.121066
C20   C     C_R   0.800390 0.353984 0.035840 -0.128943
C21   C     C_R   0.751743 0.915063 0.925428 0.020859
C22   C     C_R   0.248791 0.916681 0.074971 0.022350
C23   C     C_R   0.251743 0.415063 0.925428 0.020859
C24   C     C_R   0.748791 0.416681 0.074971 0.022350
C25   C     C_R   0.797029 0.997750 0.958770 -0.132490
C26   C     C_R   0.202785 0.997621 0.040978 -0.133336
C27   C     C_R   0.297027 0.497753 0.958769 -0.132491
C28   C     C_R   0.702787 0.497624 0.040979 -0.133337
C29   C     C_R   0.796487 0.007886 0.031150 -0.124440
C30   C     C_R   0.203360 0.006894 0.968608 -0.125298
C31   C     C_R   0.296485 0.507890 0.031149 -0.124438
C32   C     C_R   0.703362 0.506899 0.968609 -0.125295
C33   C     C_R   0.748041 0.940714 0.071899 0.021470
C34   C     C_R   0.252742 0.941310 0.928477 0.022585
C35   C     C_R   0.248041 0.440715 0.071899 0.021470
C36   C     C_R   0.752743 0.441312 0.928477 0.022585
C37   C     C_R   0.533942 0.059546 0.472419 -0.123928
C38   C     C_R   0.525297 0.063599 0.544682 -0.132706
C39   C     C_R   0.033945 0.559548 0.472420 -0.123927
C40   C     C_R   0.025299 0.563601 0.544683 -0.132706
C41   C     C_R   0.497934 0.168627 0.576145 0.030142
C42   C     C_R   0.517834 0.161933 0.430285 0.034995
C43   C     C_R   0.997934 0.668628 0.576145 0.030143
C44   C     C_R   0.017834 0.661933 0.430285 0.034996
C45   C     C_R   0.530375 0.155931 0.147309 0.540725
C46   C     C_R   0.467737 0.155060 0.854047 0.536729
C47   C     C_R   0.030375 0.655932 0.147309 0.540725
C48   C     C_R   0.967737 0.655060 0.854048 0.536729
C49   C     C_R   0.485128 0.273828 0.534980 -0.129762
C50   C     C_R   0.495652 0.270694 0.462036 -0.135668
C51   C     C_R   0.985125 0.773827 0.534980 -0.129763
C52   C     C_R   0.995649 0.770693 0.462036 -0.135670
C53   C     C_R   0.797671 0.007932 0.470098 -0.131476
C54   C     C_R   0.201899 0.006998 0.529789 -0.127488
C55   C     C_R   0.297668 0.507939 0.470100 -0.131473
C56   C     C_R   0.701902 0.507006 0.529787 -0.127486
C57   C     C_R   0.798242 0.998819 0.542555 -0.137454
C58   C     C_R   0.201166 0.997592 0.457352 -0.131562
C59   C     C_R   0.298238 0.498825 0.542556 -0.137453
C60   C     C_R   0.701169 0.497598 0.457350 -0.131562
C61   C     C_R   0.751892 0.918552 0.576661 0.033346
C62   C     C_R   0.247874 0.918014 0.423425 0.032475
C63   C     C_R   0.251891 0.418552 0.576662 0.033345
C64   C     C_R   0.747875 0.418015 0.423425 0.032475
C65   C     C_R   0.700333 0.855705 0.537561 -0.139341
C66   C     C_R   0.299887 0.856204 0.462701 -0.131801
C67   C     C_R   0.200335 0.355700 0.537560 -0.139341
C68   C     C_R   0.799886 0.356202 0.462701 -0.131798
C69   C     C_R   0.698200 0.868136 0.464268 -0.145244
C70   C     C_R   0.302336 0.869306 0.535941 -0.134153
C71   C     C_R   0.198202 0.368133 0.464267 -0.145246
C72   C     C_R   0.802336 0.369305 0.535941 -0.134152
C73   C     C_R   0.747871 0.942764 0.430165 0.036509
C74   C     C_R   0.252208 0.942949 0.569898 0.034798
C75   C     C_R   0.247871 0.442766 0.430165 0.036509
C76   C     C_R   0.752208 0.442952 0.569898 0.034798
C77   C     C_R   0.740737 0.972943 0.146072 0.545400
C78   C     C_R   0.259441 0.973025 0.854082 0.545043
C79   C     C_R   0.240737 0.472943 0.146072 0.545400
C80   C     C_R   0.759441 0.473025 0.854082 0.545043
C81   C     C_R   0.730012 0.378832 0.352312 0.544534
C82   C     C_R   0.269922 0.379162 0.647766 0.543632
C83   C     C_R   0.230012 0.878831 0.352312 0.544534
C84   C     C_R   0.769922 0.879162 0.647766 0.543632
C85   C     C_R   0.535690 0.156320 0.355589 0.546704
C86   C     C_R   0.468034 0.157754 0.646657 0.547432
C87   C     C_R   0.035690 0.656320 0.355589 0.546704
C88   C     C_R   0.968034 0.657754 0.646657 0.547432
C89   C     C_R   0.740671 0.974691 0.355909 0.545142
C90   C     C_R   0.259382 0.975022 0.644067 0.547164
C91   C     C_R   0.240671 0.474692 0.355909 0.545142
C92   C     C_R   0.759382 0.475023 0.644066 0.547164
C93   C     C_R   0.492482 0.162288 0.927821 0.005079
C94   C     C_R   0.498519 0.165927 0.076439 0.001305
C95   C     C_R   0.992481 0.662288 0.927821 0.005079
C96   C     C_R   0.998518 0.665927 0.076439 0.001305
C97   C     C_R   0.501524 0.275344 0.963475 -0.002386
C98   C     C_R   0.496947 0.277906 0.038170 -0.000311
C99   C     C_R   0.001524 0.775344 0.963475 -0.002386
C100  C     C_R   0.996947 0.777907 0.038170 -0.000310
C101  C     C_R   0.488870 0.056348 0.040231 -0.134058
C102  C     C_R   0.486791 0.054351 0.967623 -0.128972
C103  C     C_R   0.988867 0.556349 0.040232 -0.134059
C104  C     C_R   0.986788 0.554351 0.967624 -0.128971
Cr1   Cr    Cr6+3 0.772000 0.169640 0.250110 1.056149
Cr2   Cr    Cr6+3 0.228000 0.169640 0.749890 1.060198
Cr3   Cr    Cr6+3 0.272000 0.669640 0.250110 1.056150
Cr4   Cr    Cr6+3 0.728000 0.669640 0.749890 1.060198
Cr5   Cr    Cr6+3 0.614960 0.323350 0.249260 1.032895
Cr6   Cr    Cr6+3 0.385040 0.323350 0.750740 1.032957
Cr7   Cr    Cr6+3 0.114960 0.823350 0.249260 1.032894
Cr8   Cr    Cr6+3 0.885040 0.823350 0.750740 1.032958
Cr9   Cr    Cr6+3 0.616670 0.010620 0.250840 1.026269
Cr10  Cr    Cr6+3 0.383330 0.010620 0.749160 1.025104
Cr11  Cr    Cr6+3 0.116670 0.510620 0.250840 1.026271
Cr12  Cr    Cr6+3 0.883330 0.510620 0.749160 1.025105
H1    H     H_    0.485766 0.970063 0.068054 0.154685
H2    H     H_    0.478246 0.966776 0.942930 0.165143
H3    H     H_    0.985762 0.470064 0.068055 0.154684
H4    H     H_    0.978242 0.466777 0.942931 0.165144
H5    H     H_    0.835675 0.068914 0.445742 0.129426
H6    H     H_    0.163645 0.067387 0.553979 0.130737
H7    H     H_    0.335669 0.568926 0.445744 0.129427
H8    H     H_    0.663649 0.567398 0.553978 0.130737
H9    H     H_    0.838191 0.049219 0.571374 0.127494
H10   H     H_    0.160877 0.047369 0.428433 0.130733
H11   H     H_    0.338185 0.549228 0.571376 0.127494
H12   H     H_    0.660881 0.547378 0.428431 0.130732
H13   H     H_    0.663911 0.793322 0.563113 0.120630
H14   H     H_    0.336557 0.794385 0.437331 0.123584
H15   H     H_    0.163915 0.293313 0.563112 0.120633
H16   H     H_    0.836555 0.294378 0.437332 0.123586
H17   H     H_    0.658136 0.819872 0.434468 0.114490
H18   H     H_    0.342958 0.822199 0.565815 0.122453
H19   H     H_    0.158140 0.319864 0.434467 0.114491
H20   H     H_    0.842956 0.322194 0.565816 0.122453
H21   H     H_    0.526190 0.385169 0.870999 0.164833
H22   H     H_    0.478792 0.395690 0.128207 0.165614
H23   H     H_    0.026190 0.885168 0.870999 0.164835
H24   H     H_    0.978793 0.895692 0.128207 0.165616
H25   H     H_    0.661354 0.812610 0.069330 0.158069
H26   H     H_    0.342284 0.818542 0.932508 0.158927
H27   H     H_    0.161356 0.312605 0.069330 0.158067
H28   H     H_    0.842282 0.318537 0.932507 0.158926
H29   H     H_    0.665823 0.786113 0.940395 0.164939
H30   H     H_    0.336830 0.791662 0.061382 0.161720
H31   H     H_    0.165825 0.286108 0.940396 0.164939
H32   H     H_    0.836827 0.291655 0.061381 0.161720
H33   H     H_    0.836030 0.049817 0.929401 0.160174
H34   H     H_    0.163012 0.048426 0.069803 0.158212
H35   H     H_    0.336027 0.549822 0.929400 0.160173
H36   H     H_    0.663016 0.548432 0.069805 0.158211
H37   H     H_    0.833374 0.071192 0.054785 0.170520
H38   H     H_    0.165701 0.068407 0.944488 0.172156
H39   H     H_    0.333371 0.571198 0.054784 0.170521
H40   H     H_    0.665705 0.568416 0.944490 0.172157
H41   H     H_    0.554048 0.975715 0.449770 0.136875
H42   H     H_    0.536256 0.981902 0.575401 0.130218
H43   H     H_    0.054053 0.475718 0.449771 0.136877
H44   H     H_    0.036260 0.481905 0.575402 0.130218
H45   H     H_    0.463479 0.355922 0.558386 0.135094
H46   H     H_    0.485262 0.351631 0.430517 0.124182
H47   H     H_    0.963474 0.855920 0.558385 0.135093
H48   H     H_    0.985257 0.851629 0.430516 0.124180
O1    O     O_R   0.787540 0.042690 0.170470 -0.497715
O2    O     O_R   0.212460 0.042690 0.829530 -0.491591
O3    O     O_R   0.287540 0.542690 0.170470 -0.497713
O4    O     O_R   0.712460 0.542690 0.829530 -0.491589
O5    O     O_R   0.556540 0.252920 0.323970 -0.502482
O6    O     O_R   0.443460 0.252920 0.676030 -0.505382
O7    O     O_R   0.056540 0.752920 0.323970 -0.502482
O8    O     O_R   0.943460 0.752920 0.676030 -0.505383
O9    O     O_R   0.545870 0.051100 0.330840 -0.525550
O10   O     O_R   0.454130 0.051100 0.669160 -0.520157
O11   O     O_R   0.045870 0.551100 0.330840 -0.525550
O12   O     O_R   0.954130 0.551100 0.669160 -0.520155
O13   O     O_R   0.681340 0.959300 0.325510 -0.508612
O14   O     O_R   0.318660 0.959300 0.674490 -0.503720
O15   O     O_R   0.181340 0.459300 0.325510 -0.508612
O16   O     O_R   0.818660 0.459300 0.674490 -0.503719
O17   O     O_3   0.667880 0.167870 0.250070 -0.253289
O18   O     O_3   0.332120 0.167870 0.749930 -0.253012
O19   O     O_3   0.167880 0.667870 0.250070 -0.253290
O20   O     O_3   0.832120 0.667870 0.749930 -0.253013
O21   O     O_R   0.765660 0.292160 0.175050 -0.496909
O22   O     O_R   0.234340 0.292160 0.824950 -0.496592
O23   O     O_R   0.265660 0.792160 0.175050 -0.496909
O24   O     O_R   0.734340 0.792160 0.824950 -0.496592
O25   O     O_R   0.670190 0.408980 0.168550 -0.518978
O26   O     O_R   0.329810 0.408980 0.831450 -0.517907
O27   O     O_R   0.170190 0.908980 0.168550 -0.518978
O28   O     O_R   0.829810 0.908980 0.831450 -0.517908
O29   O     O_R   0.556580 0.251450 0.175160 -0.506175
O30   O     O_R   0.443420 0.251450 0.824840 -0.505466
O31   O     O_R   0.056580 0.751450 0.175160 -0.506175
O32   O     O_R   0.943420 0.751450 0.824840 -0.505466
O33   O     O_R   0.545920 0.049510 0.170320 -0.519643
O34   O     O_R   0.454080 0.049510 0.829680 -0.525849
O35   O     O_R   0.045920 0.549510 0.170320 -0.519641
O36   O     O_R   0.954080 0.549510 0.829680 -0.525848
O37   O     O_R   0.681390 0.957840 0.176710 -0.504609
O38   O     O_R   0.318610 0.957840 0.823290 -0.508284
O39   O     O_R   0.181390 0.457840 0.176710 -0.504608
O40   O     O_R   0.818610 0.457840 0.823290 -0.508284
O41   O     O_R   0.787500 0.044280 0.330990 -0.523164
O42   O     O_R   0.212500 0.044280 0.669010 -0.521520
O43   O     O_R   0.287500 0.544280 0.330990 -0.523164
O44   O     O_R   0.712500 0.544280 0.669010 -0.521519
O45   O     O_R   0.765610 0.293630 0.323860 -0.506672
O46   O     O_R   0.234390 0.293630 0.676140 -0.506660
O47   O     O_R   0.265610 0.793630 0.323860 -0.506672
O48   O     O_R   0.734390 0.793630 0.676140 -0.506660
O49   O     O_R   0.670140 0.410570 0.329080 -0.523434
O50   O     O_R   0.329860 0.410570 0.670920 -0.526032
O51   O     O_R   0.170140 0.910570 0.329080 -0.523434
O52   O     O_R   0.829860 0.910570 0.670920 -0.526033
C105  C     C_2   0.012021 0.110829 0.916340 0.579222
O53   O     O_2   0.051014 0.114847 0.864713 -0.540959
O54   O     O_R   0.966997 0.208743 0.930498 -0.706297
H49   H     H_    0.970558 0.275213 0.893172 0.329634
C106  C     C_2   0.994443 0.117624 0.075507 0.574127
O55   O     O_2   0.956680 0.125892 0.127855 -0.545372
O56   O     O_R   0.038285 0.214896 0.056547 -0.707245
H50   H     H_    0.035668 0.284397 0.091692 0.329425
C107  C     C_2   0.512022 0.610830 0.916341 0.579221
O57   O     O_2   0.551016 0.614849 0.864715 -0.540959
O58   O     O_R   0.466997 0.708743 0.930499 -0.706299
H51   H     H_    0.470559 0.775213 0.893172 0.329633
C108  C     C_2   0.494441 0.617623 0.075507 0.574129
O59   O     O_2   0.456676 0.625891 0.127854 -0.545372
O60   O     O_R   0.538284 0.714894 0.056549 -0.707247
H52   H     H_    0.535667 0.784394 0.091695 0.329424

loop_
_geom_bond_atom_site_label_1
_geom_bond_atom_site_label_2
_ccdc_geom_bond_type
C58   C62   A    
Cr9   O13   S    
C62   C83   S    
C14   H26   S    
Cr7   O27   S    
C101  C102  A    
C56   C76   A    
C48   C95   S    
C55   C59   A    
C50   H46   S    
C14   C18   A    
C17   H29   S    
O56   H50   S    
Cr1   O1    S    
C72   C76   A    
C33   C77   S    
C90   O14   A    
C97   C98   A    
C12   C108  S    
Cr8   O20   S    
C71   C75   A    
C66   C70   A    
C95   C104  A    
C85   O5    A    
C15   C19   A    
C41   C86   S    
C37   C38   A    
C57   C61   A    
C7    C99   A    
C48   O36   A    
C88   O8    A    
C43   C88   S    
C56   H8    S    
C47   O31   A    
C69   C73   A    
C16   H28   S    
Cr7   O51   S    
C5    C11   A    
Cr5   O49   S    
C64   C68   A    
C71   H19   S    
C84   O48   A    
Cr12  O36   S    
C95   C99   A    
C46   O34   A    
Cr3   O47   S    
C94   C98   A    
C59   H11   S    
Cr2   O46   S    
C29   C33   A    
Cr1   O45   S    
C25   H33   S    
C37   H41   S    
C37   C42   A    
C68   H16   S    
C4    O28   A    
C53   C73   A    
Cr8   O32   S    
Cr11  O11   S    
C92   O16   A    
C10   C106  S    
Cr12  O40   S    
C54   C74   A    
Cr9   O33   S    
C84   O52   A    
C40   C43   A    
C89   O41   A    
C20   C24   A    
C94   C101  A    
Cr5   O25   S    
Cr10  O14   S    
C91   O15   A    
C70   C74   A    
C85   O9    A    
Cr4   O44   S    
Cr10  O38   S    
C51   H47   S    
Cr9   O37   S    
C44   C87   S    
C103  C104  A    
C9    C10   A    
C34   C78   S    
Cr3   O43   S    
C102  H2    S    
C75   C91   S    
C55   C75   A    
C44   C52   A    
C54   H6    S    
C9    C105  S    
C14   C34   A    
C82   O50   A    
C48   O32   A    
C25   C29   A    
C77   O37   A    
C47   O35   A    
C106  O56   S    
C45   C94   S    
C6    C12   A    
C41   C49   A    
Cr4   O48   S    
C108  O59   D    
Cr5   O5    S    
C60   C64   A    
C46   O30   A    
Cr3   O3    S    
C23   C27   A    
C83   O47   A    
C45   O29   A    
C81   O49   A    
C78   O2    A    
C30   C34   A    
C63   C82   S    
C27   C31   A    
C51   C52   A    
C6    C98   A    
C2    O26   A    
Cr6   O30   S    
C28   C32   A    
C62   C66   A    
Cr2   O22   S    
C38   C41   A    
C36   C80   S    
C47   C96   S    
C39   C40   A    
Cr12  O12   S    
C3    C22   S    
C78   O38   A    
C105  O53   D    
Cr10  O18   S    
Cr11  O35   S    
Cr6   O26   S    
C19   H31   S    
C56   C60   A    
Cr11  O39   S    
C68   C72   A    
C86   O10   A    
C6    H22   S    
C32   H40   S    
C19   C23   A    
C2    O22   A    
C63   C67   A    
C13   C33   A    
C106  O55   D    
C92   O44   A    
C3    O27   A    
C65   H13   S    
Cr8   O28   S    
C93   C97   A    
C83   O51   A    
O58   H51   S    
C26   H34   S    
C16   C20   A    
C87   O7    A    
C40   H44   S    
Cr7   O19   S    
C107  O57   D    
C42   C85   S    
Cr5   O29   S    
C38   H42   S    
C45   O33   A    
C67   H15   S    
C76   C92   S    
C15   H27   S    
Cr6   O6    S    
O60   H52   S    
C42   C50   A    
C26   C30   A    
C30   H38   S    
C13   H25   S    
C89   O13   A    
Cr12  O16   S    
C22   C26   A    
C49   C50   A    
C31   C35   A    
C31   H39   S    
Cr9   O17   S    
C55   H7    S    
Cr2   O2    S    
O54   H49   S    
C11   C107  S    
Cr9   O9    S    
C54   C58   A    
Cr5   O17   S    
C59   C63   A    
C52   H48   S    
C21   C25   A    
C69   H17   S    
C39   H43   S    
C86   O6    A    
C49   H45   S    
Cr4   O24   S    
C103  H3    S    
C24   C28   A    
C60   H12   S    
C27   H35   S    
C18   H30   S    
C61   C84   S    
C3    O23   A    
C93   C102  A    
Cr2   O42   S    
Cr11  O19   S    
C11   C12   A    
C32   C36   A    
C58   H10   S    
C39   C44   A    
Cr1   O41   S    
C1    O21   A    
C105  O54   S    
C87   O11   A    
C96   C100  A    
Cr1   O21   S    
C88   O12   A    
C99   C100  A    
C13   C17   A    
C8    H24   S    
C79   O39   A    
Cr1   O17   S    
C4    O24   A    
C28   H36   S    
C18   C22   A    
Cr4   O20   S    
C8    C100  A    
C29   H37   S    
C101  H1    S    
C5    H21   S    
C108  O60   S    
C53   H5    S    
C16   C36   A    
C57   H9    S    
C7    H23   S    
C4    C21   S    
C43   C51   A    
C20   H32   S    
Cr8   O8    S    
C46   C93   S    
C65   C69   A    
C74   C90   S    
Cr12  O20   S    
C35   C79   S    
C91   O43   A    
C107  O58   S    
C53   C57   A    
C5    C97   A    
C67   C71   A    
Cr8   O52   S    
C61   C65   A    
Cr4   O4    S    
Cr6   O50   S    
C17   C21   A    
C64   C81   S    
C15   C35   A    
C72   H20   S    
C73   C89   S    
C66   H14   S    
C7    C9    A    
Cr10  O10   S    
Cr6   O18   S    
C1    C24   S    
C8    C10   A    
C81   O45   A    
Cr10  O34   S    
C96   C103  A    
Cr3   O19   S    
C2    C23   S    
C70   H18   S    
C79   O3    A    
C90   O42   A    
Cr3   O23   S    
C82   O46   A    
C80   O40   A    
C77   O1    A    
C80   O4    A    
Cr11  O15   S    
Cr2   O18   S    
Cr7   O31   S    
C104  H4    S    
Cr7   O7    S    
C1    O25   A    
