data_mof_unit_52734.cif
_audit_creation_date              2013-03-05T15:48:52-0500
_audit_creation_method            fapswitch 2.2
_symmetry_space_group_name_H-M    P1
_symmetry_Int_Tables_number       1
_space_group_crystal_system       triclinic
_cell_length_a                    17.444192
_cell_length_b                    24.29525
_cell_length_c                    14.960687
_cell_angle_alpha                 89.993451
_cell_angle_beta                  125.743123
_cell_angle_gamma                 89.993168
_cell_volume                      5146.23234331

loop_
_atom_site_label
_atom_site_type_symbol
_atom_site_description
_atom_site_fract_x
_atom_site_fract_y
_atom_site_fract_z
_atom_type_partial_charge
C1    C     C_R   0.901481 0.876605 0.092198 -0.132497
C2    C     C_R   0.901466 0.123391 0.092184 -0.133961
C3    C     C_R   0.401481 0.376605 0.092198 -0.132497
C4    C     C_R   0.401465 0.623391 0.092184 -0.133963
H1    H     H_    0.930741 0.868855 0.177422 0.092283
H2    H     H_    0.930721 0.131132 0.177404 0.091387
H3    H     H_    0.430741 0.368855 0.177421 0.092281
H4    H     H_    0.430719 0.631131 0.177404 0.091387
N1    N     N_R   0.950530 0.896220 0.057200 -0.037233
N2    N     N_R   0.950530 0.103780 0.057200 -0.037378
N3    N     N_R   0.450530 0.396220 0.057200 -0.037233
N4    N     N_R   0.450530 0.603780 0.057200 -0.037378
C5    C     C_R   0.809119 0.123370 0.907538 -0.140910
C6    C     C_R   0.809138 0.876630 0.907555 -0.139644
C7    C     C_R   0.309119 0.623370 0.907538 -0.140909
C8    C     C_R   0.309137 0.376630 0.907555 -0.139643
H5    H     H_    0.753031 0.130956 0.822199 0.088905
H6    H     H_    0.753063 0.869031 0.822230 0.088501
H7    H     H_    0.253031 0.630956 0.822199 0.088905
H8    H     H_    0.253063 0.369032 0.822230 0.088503
N5    N     N_R   0.893330 0.103780 0.942800 -0.036918
N6    N     N_R   0.893330 0.896220 0.942800 -0.036778
N7    N     N_R   0.393330 0.603780 0.942800 -0.036918
N8    N     N_R   0.393330 0.396220 0.942800 -0.036778
C9    C     C_R   0.745938 0.954171 0.694261 -0.135112
C10   C     C_R   0.745555 0.045684 0.694183 -0.125870
C11   C     C_R   0.245939 0.454171 0.694261 -0.135127
C12   C     C_R   0.245555 0.545685 0.694183 -0.125860
H9    H     H_    0.733856 0.911635 0.668596 0.109946
H10   H     H_    0.732535 0.088148 0.667670 0.099231
H11   H     H_    0.233856 0.411635 0.668595 0.109949
H12   H     H_    0.232536 0.588148 0.667671 0.099232
N9    N     N_R   0.818150 0.971400 0.792440 -0.045323
N10   N     N_R   0.818150 0.028600 0.792440 -0.045435
N11   N     N_R   0.318150 0.471400 0.792440 -0.045320
N12   N     N_R   0.318150 0.528600 0.792440 -0.045435
C13   C     C_R   0.049951 0.045792 0.304973 -0.145890
C14   C     C_R   0.049887 0.954212 0.304982 -0.146554
C15   C     C_R   0.549958 0.545792 0.304975 -0.145900
C16   C     C_R   0.549888 0.454213 0.304983 -0.146545
H13   H     H_    0.063313 0.088302 0.330854 0.085796
H14   H     H_    0.063064 0.911696 0.330871 0.086967
H15   H     H_    0.563329 0.588302 0.330856 0.085804
H16   H     H_    0.563057 0.411697 0.330871 0.086959
N13   N     N_R   0.025710 0.028600 0.207560 -0.032483
N14   N     N_R   0.025710 0.971400 0.207560 -0.032529
N15   N     N_R   0.525710 0.528600 0.207560 -0.032484
N16   N     N_R   0.525710 0.471400 0.207560 -0.032529
C17   C     C_R   0.811800 0.863671 0.999809 -0.005763
C18   C     C_R   0.811769 0.136320 0.999786 -0.004405
C19   C     C_R   0.311800 0.363671 0.999809 -0.005763
C20   C     C_R   0.311769 0.636321 0.999785 -0.004405
C21   C     C_R   0.700337 0.999874 0.630072 0.138566
C22   C     C_R   0.200338 0.499875 0.630072 0.138554
C23   C     C_R   0.066811 0.000006 0.368367 -0.003179
C24   C     C_R   0.566819 0.500007 0.368370 -0.003184
C25   C     C_R   0.267938 0.953826 0.246219 -0.147064
C26   C     C_R   0.268232 0.046089 0.246994 -0.147768
C27   C     C_R   0.767938 0.453826 0.246220 -0.147063
C28   C     C_R   0.768232 0.546089 0.246994 -0.147769
H17   H     H_    0.288753 0.911167 0.260328 0.097082
H18   H     H_    0.289690 0.088644 0.263359 0.094278
H19   H     H_    0.788753 0.411167 0.260328 0.097081
H20   H     H_    0.789689 0.588644 0.263358 0.094279
N17   N     N_R   0.181850 0.971400 0.207560 -0.039796
N18   N     N_R   0.181850 0.028600 0.207560 -0.039253
N19   N     N_R   0.681850 0.471400 0.207560 -0.039795
N20   N     N_R   0.681850 0.528600 0.207560 -0.039253
C29   C     C_R   0.020706 0.046178 0.752659 -0.095976
C30   C     C_R   0.020757 0.953860 0.752665 -0.097115
C31   C     C_R   0.520698 0.546180 0.752652 -0.095948
C32   C     C_R   0.520756 0.453861 0.752661 -0.097142
H21   H     H_    0.026174 0.088800 0.737140 0.088126
H22   H     H_    0.026247 0.911256 0.737027 0.089587
H23   H     H_    0.526160 0.588802 0.737131 0.088123
H24   H     H_    0.526248 0.411258 0.737020 0.089590
N21   N     N_R   0.974290 0.028600 0.792440 -0.031003
N22   N     N_R   0.974290 0.971400 0.792440 -0.030885
N23   N     N_R   0.474290 0.528600 0.792440 -0.031006
N24   N     N_R   0.474290 0.471400 0.792440 -0.030884
C33   C     C_R   0.056537 0.847471 0.908361 -0.153626
C34   C     C_R   0.056644 0.152512 0.908378 -0.153659
C35   C     C_R   0.556539 0.347471 0.908361 -0.153623
C36   C     C_R   0.556643 0.652512 0.908379 -0.153660
H25   H     H_    0.013598 0.834597 0.823267 0.093550
H26   H     H_    0.013680 0.165432 0.823302 0.092173
H27   H     H_    0.513602 0.334598 0.823266 0.093551
H28   H     H_    0.513678 0.665432 0.823303 0.092173
N25   N     N_R   0.049470 0.896220 0.942800 -0.035899
N26   N     N_R   0.049470 0.103780 0.942800 -0.035899
N27   N     N_R   0.549470 0.396220 0.942800 -0.035898
N28   N     N_R   0.549470 0.603780 0.942800 -0.035900
C37   C     C_R   0.148355 0.152517 0.091585 -0.145496
C38   C     C_R   0.148099 0.847389 0.091527 -0.147285
C39   C     C_R   0.648354 0.652517 0.091585 -0.145495
C40   C     C_R   0.648099 0.347389 0.091528 -0.147286
H29   H     H_    0.190683 0.165442 0.176650 0.087242
H30   H     H_    0.190239 0.834386 0.176557 0.088284
H31   H     H_    0.690682 0.665442 0.176650 0.087241
H32   H     H_    0.690238 0.334387 0.176557 0.088285
N29   N     N_R   0.106670 0.103780 0.057200 -0.033658
N30   N     N_R   0.106670 0.896220 0.057200 -0.034087
N31   N     N_R   0.606670 0.603780 0.057200 -0.033658
N32   N     N_R   0.606670 0.396220 0.057200 -0.034088
Ni1   Ni    Ni4+2 0.065600 0.934400 0.131190 0.207090
Ni2   Ni    Ni4+2 0.065600 0.065600 0.131190 0.206017
Ni3   Ni    Ni4+2 0.565600 0.434400 0.131190 0.207091
Ni4   Ni    Ni4+2 0.565600 0.565600 0.131190 0.206015
Ni5   Ni    Ni4+2 0.934400 0.065600 0.868810 0.228984
Ni6   Ni    Ni4+2 0.934400 0.934400 0.868810 0.231158
Ni7   Ni    Ni4+2 0.434400 0.565600 0.868810 0.228984
Ni8   Ni    Ni4+2 0.434400 0.434400 0.868810 0.231157
C41   C     C_R   0.324484 0.999891 0.272029 0.063249
C42   C     C_R   0.824484 0.499891 0.272030 0.063249
C43   C     C_R   0.051025 0.000036 0.726564 -0.033531
C44   C     C_R   0.551019 0.500040 0.726557 -0.033526
C45   C     C_R   0.116914 0.815660 0.999908 -0.003116
C46   C     C_R   0.117189 0.184253 0.999958 -0.004449
C47   C     C_R   0.616915 0.315660 0.999908 -0.003117
C48   C     C_R   0.617187 0.684254 0.999958 -0.004449
C49   C     C_3   0.121075 0.052061 0.540616 -0.402058
C50   C     C_3   0.966898 0.999442 0.430043 -0.395368
C51   C     C_3   0.621008 0.552088 0.540569 -0.402081
C52   C     C_3   0.466901 0.499399 0.430040 -0.395366
H33   H     H_    0.195742 0.053270 0.568306 0.154581
H34   H     H_    0.929925 0.962164 0.379185 0.169730
H35   H     H_    0.695668 0.553341 0.568239 0.154570
H36   H     H_    0.429985 0.462097 0.379239 0.169708
H37   H     H_    0.085821 0.090233 0.492914 0.148755
H38   H     H_    0.928429 0.036064 0.377600 0.169896
H39   H     H_    0.585682 0.590242 0.492834 0.148776
H40   H     H_    0.428377 0.535996 0.377538 0.169913
C53   C     C_3   0.117565 0.051879 0.640976 -0.398178
C54   C     C_3   0.962632 0.999700 0.528604 -0.321125
C55   C     C_3   0.617522 0.551896 0.640944 -0.398198
C56   C     C_3   0.462633 0.499677 0.528598 -0.321141
H41   H     H_    0.082120 0.090372 0.638577 0.147633
H42   H     H_    0.922421 0.036607 0.523718 0.195809
H43   H     H_    0.582064 0.590380 0.638548 0.147635
H44   H     H_    0.422404 0.536580 0.523682 0.195834
H45   H     H_    0.190502 0.052346 0.718380 0.159403
H46   H     H_    0.922836 0.962765 0.524521 0.193837
H47   H     H_    0.690463 0.552375 0.718335 0.159414
H48   H     H_    0.422856 0.462740 0.524544 0.193810
H49   H     H_    0.197676 0.948419 0.570120 0.154676
H50   H     H_    0.089335 0.909983 0.495063 0.149079
H51   H     H_    0.697755 0.448488 0.570199 0.154685
H52   H     H_    0.589478 0.409992 0.495146 0.149056
H53   H     H_    0.191493 0.948553 0.719529 0.158928
H54   H     H_    0.083825 0.909900 0.639654 0.148323
H55   H     H_    0.691521 0.448586 0.719571 0.158924
H56   H     H_    0.583879 0.409913 0.639680 0.148332
C57   C     C_3   0.122841 0.948589 0.541909 -0.401122
C58   C     C_3   0.622912 0.448616 0.541960 -0.401095
C59   C     C_3   0.070781 0.000024 0.469039 0.380017
C60   C     C_3   0.570785 0.500027 0.469040 0.380033
C61   C     C_3   0.063674 0.000056 0.637645 0.351357
C62   C     C_3   0.563671 0.500060 0.637641 0.351355
C63   C     C_3   0.118708 0.948609 0.641865 -0.397660
C64   C     C_3   0.618746 0.448629 0.641894 -0.397673
C65   C     C_3   0.650327 0.179156 0.896217 -0.401172
C66   C     C_3   0.650424 0.820810 0.896263 -0.400770
C67   C     C_3   0.150330 0.679160 0.896211 -0.401178
C68   C     C_3   0.150424 0.320810 0.896263 -0.400770
H57   H     H_    0.645934 0.180366 0.819176 0.146659
H58   H     H_    0.646009 0.819662 0.819208 0.146096
H59   H     H_    0.145943 0.680373 0.819175 0.146662
H60   H     H_    0.146008 0.319662 0.819208 0.146097
H61   H     H_    0.615768 0.140460 0.895321 0.158071
H62   H     H_    0.615808 0.859477 0.895408 0.158095
H63   H     H_    0.115767 0.640463 0.895305 0.158071
H64   H     H_    0.115808 0.359477 0.895409 0.158094
C69   C     C_3   0.096365 0.729309 0.896040 -0.401098
C70   C     C_3   0.096547 0.270617 0.896059 -0.401339
C71   C     C_3   0.596363 0.229306 0.896045 -0.401095
C72   C     C_3   0.596547 0.770617 0.896058 -0.401340
H65   H     H_    0.534686 0.215430 0.894250 0.156495
H66   H     H_    0.534804 0.784440 0.894185 0.155996
H67   H     H_    0.034685 0.715433 0.894237 0.156495
H68   H     H_    0.034805 0.284440 0.894187 0.155996
H69   H     H_    0.068951 0.753047 0.819442 0.148810
H70   H     H_    0.069236 0.246896 0.819484 0.148319
H71   H     H_    0.568944 0.253042 0.819444 0.148810
H72   H     H_    0.569237 0.746896 0.819484 0.148320
H73   H     H_    0.302252 0.737581 0.926594 0.156424
H74   H     H_    0.302372 0.262431 0.926584 0.156105
H75   H     H_    0.802240 0.237579 0.926577 0.156422
H76   H     H_    0.802371 0.762431 0.926584 0.156104
H77   H     H_    0.223006 0.810535 0.926747 0.156014
H78   H     H_    0.223320 0.189417 0.926872 0.155578
H79   H     H_    0.722997 0.310533 0.926733 0.156012
H80   H     H_    0.723320 0.689417 0.926875 0.155578
C73   C     C_3   0.301285 0.735260 0.000298 -0.390167
C74   C     C_3   0.301450 0.264724 0.000320 -0.388822
C75   C     C_3   0.801281 0.235260 0.000287 -0.390163
C76   C     C_3   0.801449 0.764724 0.000321 -0.388823
C77   C     C_3   0.753335 0.178834 0.102806 -0.386972
C78   C     C_3   0.753447 0.821084 0.102847 -0.387082
C79   C     C_3   0.253327 0.678831 0.102798 -0.386971
C80   C     C_3   0.253448 0.321084 0.102847 -0.387080
C81   C     C_3   0.754537 0.180805 0.999762 0.382760
C82   C     C_3   0.754639 0.819159 0.999799 0.382369
C83   C     C_3   0.254537 0.680805 0.999761 0.382758
C84   C     C_3   0.254639 0.319160 0.999799 0.382368
H81   H     H_    0.825935 0.179806 0.180195 0.147880
H82   H     H_    0.826053 0.820086 0.180227 0.149048
H83   H     H_    0.325924 0.679800 0.180189 0.147882
H84   H     H_    0.326053 0.320087 0.180227 0.149047
H85   H     H_    0.719302 0.140129 0.102937 0.170817
H86   H     H_    0.719405 0.859783 0.103010 0.169698
H87   H     H_    0.219289 0.640126 0.102920 0.170817
H88   H     H_    0.219405 0.359783 0.103010 0.169698
C85   C     C_3   0.163174 0.765225 0.999857 0.384321
C86   C     C_3   0.163394 0.234699 0.999900 0.385983
C87   C     C_3   0.663175 0.265225 0.999857 0.384323
C88   C     C_3   0.663393 0.734699 0.999900 0.385983
C89   C     C_3   0.247829 0.784587 0.000416 -0.390828
C90   C     C_3   0.248087 0.215371 0.000500 -0.389111
C91   C     C_3   0.747825 0.284587 0.000406 -0.390828
C92   C     C_3   0.748087 0.715371 0.000502 -0.389109
C93   C     C_3   0.199536 0.728970 0.103046 -0.390102
C94   C     C_3   0.199680 0.270935 0.103067 -0.394523
C95   C     C_3   0.699545 0.228973 0.103053 -0.390107
C96   C     C_3   0.699678 0.770936 0.103066 -0.394523
H89   H     H_    0.639248 0.215072 0.104011 0.168241
H90   H     H_    0.639338 0.784826 0.103956 0.163673
H91   H     H_    0.139236 0.715069 0.103996 0.168239
H92   H     H_    0.139340 0.284825 0.103958 0.163673
H93   H     H_    0.248626 0.752466 0.180051 0.149303
H94   H     H_    0.248765 0.247434 0.180092 0.150169
H95   H     H_    0.748638 0.252471 0.180055 0.149303
H96   H     H_    0.748762 0.747436 0.180092 0.150169
H97   H     H_    0.375981 0.737343 0.074324 0.157970
H98   H     H_    0.376163 0.262649 0.074314 0.161898
H99   H     H_    0.875980 0.237345 0.074309 0.157970
H100  H     H_    0.876163 0.762649 0.074315 0.161899
H101  H     H_    0.296723 0.810238 0.074594 0.159112
H102  H     H_    0.297024 0.189736 0.074720 0.163073
H103  H     H_    0.796722 0.310240 0.074581 0.159113
H104  H     H_    0.797023 0.689737 0.074723 0.163073
C97   C     C_3   0.474980 0.945863 0.359102 -0.531925
C98   C     C_3   0.478573 0.048934 0.349694 -0.479683
C99   C     C_3   0.974982 0.445865 0.359097 -0.531913
C100  C     C_3   0.978573 0.548937 0.349697 -0.479684
H105  H     H_    0.443834 0.909477 0.371876 0.138492
H106  H     H_    0.442052 0.088602 0.337192 0.139128
H107  H     H_    0.943835 0.409477 0.371865 0.138490
H108  H     H_    0.942051 0.588604 0.337199 0.139127
H109  H     H_    0.461961 0.940169 0.277557 0.201825
H110  H     H_    0.479334 0.042682 0.276522 0.214780
H111  H     H_    0.961965 0.440175 0.277553 0.201824
H112  H     H_    0.979332 0.542687 0.276523 0.214775
C101  C     C_3   0.581588 0.947068 0.454786 0.275251
C102  C     C_3   0.580256 0.053831 0.456161 0.271093
C103  C     C_3   0.081589 0.447069 0.454785 0.275251
C104  C     C_3   0.080255 0.553832 0.456163 0.271101
H113  H     H_    0.594409 0.910143 0.505829 0.038776
H114  H     H_    0.579932 0.088998 0.503726 0.036443
H115  H     H_    0.094407 0.410144 0.505827 0.038789
H116  H     H_    0.079932 0.588998 0.503731 0.036441
H117  H     H_    0.395982 0.970365 0.475121 0.167440
H118  H     H_    0.408083 0.043659 0.473797 0.163040
H119  H     H_    0.895985 0.470360 0.475120 0.167438
H120  H     H_    0.908080 0.543655 0.473799 0.163040
H121  H     H_    0.550293 0.960203 0.612030 0.183555
H122  H     H_    0.556899 0.033632 0.624435 0.182763
H123  H     H_    0.050296 0.460202 0.612031 0.183554
H124  H     H_    0.056898 0.533631 0.624435 0.182762
C105  C     C_3   0.436788 0.003634 0.469210 -0.381715
C106  C     C_3   0.936788 0.503631 0.469210 -0.381711
C107  C     C_3   0.426855 0.999654 0.359483 0.290352
C108  C     C_3   0.926855 0.499654 0.359483 0.290345
C109  C     C_3   0.604544 0.000004 0.526743 0.055371
C110  C     C_3   0.104545 0.500005 0.526743 0.055360
C111  C     C_3   0.539790 0.999066 0.566514 -0.546898
C112  C     C_3   0.039791 0.499065 0.566515 -0.546893
N33   N     N_R   0.641169 0.941917 0.415387 0.261356
O1    O     O_R   0.715545 0.910490 0.468356 -0.422886
O2    O     O_R   0.616524 0.964072 0.322845 -0.373533
N34   N     N_R   0.647203 0.068287 0.430096 0.256727
O3    O     O_R   0.629627 0.111068 0.368483 -0.413688
O4    O     O_R   0.730119 0.045436 0.480627 -0.380522
N35   N     N_R   0.141172 0.441917 0.415389 0.261357
O5    O     O_R   0.215528 0.410475 0.468337 -0.422897
O6    O     O_R   0.116536 0.464079 0.322855 -0.373520
N36   N     N_R   0.147202 0.568290 0.430099 0.256728
O7    O     O_R   0.129625 0.611072 0.368487 -0.413687
O8    O     O_R   0.230119 0.545440 0.480630 -0.380532

loop_
_geom_bond_atom_site_label_1
_geom_bond_atom_site_label_2
_geom_bond_distance
_ccdc_geom_bond_type
C87   C95   1.554664 S    
C26   H18   1.077980 S    
C35   H27   1.079649 S    
C45   C85   1.467364 S    
H56   C64   1.110126 S    
C53   H41   1.110013 S    
C89   H101  1.114386 S    
N25   N30   1.389132 A    
C78   H82   1.109899 S    
C72   H66   1.112771 S    
C50   C59   1.545739 S    
C6    H6    1.077812 S    
C40   C47   1.377737 A    
C77   H81   1.109898 S    
N11   N12   1.389688 A    
N8    Ni8   1.877625 S    
C8    C19   1.389670 A    
N27   N32   1.389132 A    
C4    H4    1.077610 S    
C104  C110  1.575292 S    
C61   C63   1.554598 S    
C70   H70   1.110889 S    
C75   C91   1.519013 S    
N21   Ni5   1.877929 S    
N16   Ni3   1.877930 S    
C11   C22   1.376597 A    
C35   C47   1.377203 A    
C74   C90   1.519031 S    
N13   N14   1.389688 A    
C19   C84   1.470992 S    
C23   C59   1.466755 S    
N4    N7    1.389132 A    
C67   C83   1.554326 S    
C98   H106  1.109159 S    
C4    C20   1.389465 A    
C97   H105  1.111114 S    
C95   H89   1.112786 S    
C65   C81   1.554338 S    
C30   N22   1.325232 A    
H79   C91   1.114379 S    
C9    C21   1.376595 A    
C14   H14   1.079644 S    
C3    H3    1.077593 S    
C96   H96   1.110878 S    
N36   O7    1.301345 A    
C65   C71   1.538700 S    
C38   C45   1.377736 A    
C39   H31   1.079675 S    
N1    N6    1.389132 A    
C66   C82   1.554330 S    
C6    C17   1.389670 A    
C66   C72   1.538605 S    
C102  H114  1.114111 S    
N1    Ni1   1.876102 S    
N14   Ni1   1.877930 S    
C33   C45   1.377201 A    
N3    N8    1.389132 A    
C5    C18   1.389736 A    
C99   C103  1.548655 S    
C52   H40   1.114519 S    
N30   Ni1   1.877664 S    
C72   H72   1.110887 S    
C58   C64   1.538672 S    
C73   C89   1.519013 S    
C91   H103  1.114392 S    
H51   C58   1.112933 S    
C99   C108  1.554994 S    
C50   C54   1.519222 S    
C2    C18   1.389462 A    
N28   N31   1.389132 A    
C27   N19   1.325549 A    
C49   H33   1.112924 S    
C7    H7    1.077859 S    
C85   C93   1.554653 S    
H121  C111  1.114804 S    
H119  C106  1.114221 S    
C100  H112  1.112943 S    
C14   C23   1.377494 A    
N15   N16   1.389688 A    
H77   C89   1.114374 S    
C16   C24   1.377497 A    
C26   N18   1.326969 A    
N9    Ni6   1.875694 S    
C30   H22   1.077722 S    
C26   C41   1.390385 A    
H120  C106  1.114053 S    
C36   N28   1.325819 A    
C72   C88   1.554906 S    
C29   H21   1.077556 S    
C47   C87   1.467360 S    
C79   C93   1.538880 S    
C4    N4    1.325443 A    
C67   H63   1.112726 S    
C28   C42   1.390385 A    
C49   H37   1.111099 S    
C58   C60   1.554845 S    
C104  H116  1.114112 S    
C56   H44   1.114098 S    
C52   H36   1.114510 S    
C65   H61   1.112739 S    
C50   H34   1.114499 S    
C34   H26   1.079642 S    
C21   C109  1.471092 S    
C69   H69   1.110872 S    
C33   N25   1.325798 A    
C80   H84   1.109900 S    
C55   C62   1.554652 S    
C66   H58   1.109916 S    
N33   O1    1.301046 A    
C10   N10   1.327295 A    
C62   C64   1.554573 S    
C75   H99   1.114016 S    
C2    H2    1.077606 S    
H52   C58   1.110980 S    
N18   Ni2   1.875693 S    
C69   H67   1.112771 S    
H78   C90   1.114377 S    
H117  C105  1.114216 S    
C73   H97   1.114005 S    
C76   C92   1.519030 S    
C102  C109  1.575295 S    
C39   N31   1.326187 A    
C33   H25   1.079650 S    
C51   C60   1.554914 S    
N19   Ni3   1.876050 S    
N2    N5    1.389132 A    
C9    H9    1.079531 S    
C73   C83   1.551776 S    
C94   H94   1.110879 S    
C103  H115  1.112750 S    
H123  C112  1.114805 S    
C31   H23   1.077553 S    
C90   H102  1.114390 S    
C51   H39   1.111117 S    
H54   C63   1.110147 S    
C105  C111  1.517883 S    
C103  C110  1.571661 S    
C104  N36   1.473557 S    
N19   N20   1.389688 A    
C98   H110  1.112940 S    
C106  C112  1.517885 S    
C12   H12   1.080667 S    
C1    N1    1.325436 A    
N34   O3    1.301345 A    
C46   C86   1.467235 S    
C86   C90   1.545191 S    
C37   N29   1.326189 A    
N4    Ni4   1.875739 S    
C105  C107  1.549813 S    
C12   C22   1.377456 A    
C52   C56   1.519220 S    
C15   H15   1.079642 S    
C76   H100  1.114008 S    
N6    Ni6   1.877625 S    
N34   O4    1.301542 A    
C11   H11   1.079533 S    
N25   Ni6   1.875740 S    
C31   N23   1.324819 A    
C100  H108  1.109164 S    
C96   H90   1.112777 S    
C70   C86   1.554905 S    
C71   C87   1.554929 S    
N27   Ni8   1.875740 S    
C57   C63   1.538650 S    
C67   H59   1.109937 S    
C88   C96   1.554677 S    
N26   N29   1.389132 A    
C44   C62   1.470116 S    
C87   C91   1.545273 S    
C22   C110  1.471091 S    
C54   H46   1.114231 S    
C86   C94   1.554677 S    
C37   H29   1.079674 S    
C51   H35   1.112933 S    
C15   C24   1.377372 A    
C66   H62   1.112726 S    
C52   C60   1.545741 S    
C94   H92   1.112777 S    
H122  C111  1.115024 S    
C36   C48   1.377379 A    
C3    N3    1.325436 A    
C74   C84   1.551841 S    
C80   C94   1.538841 S    
H124  C112  1.115025 S    
N12   Ni7   1.876051 S    
C79   H83   1.109888 S    
N9    N10   1.389688 A    
C102  N34   1.473557 S    
C32   H24   1.077728 S    
N22   Ni6   1.877883 S    
C8    H8    1.077812 S    
C7    C20   1.389735 A    
C68   C70   1.538606 S    
H53   C63   1.112909 S    
C12   N12   1.327295 A    
N31   Ni4   1.877622 S    
H55   C64   1.112888 S    
C101  N33   1.469366 S    
C103  N35   1.469367 S    
C36   H28   1.079642 S    
C78   C82   1.554613 S    
C68   H60   1.109917 S    
C53   C61   1.554675 S    
C43   C61   1.470121 S    
N35   O6    1.302215 A    
C10   H10   1.080668 S    
C71   H65   1.112775 S    
C99   H107  1.111119 S    
C40   N32   1.326472 A    
N3    Ni3   1.876102 S    
C78   C96   1.538844 S    
C69   C85   1.554917 S    
C106  C108  1.549813 S    
C95   H95   1.110897 S    
C97   C107  1.554993 S    
C57   C59   1.554844 S    
C37   C46   1.377731 A    
H80   C92   1.114377 S    
C13   N13   1.325665 A    
C35   N27   1.325799 A    
C2    N2    1.325440 A    
C10   C21   1.377459 A    
C70   H68   1.112772 S    
C1    H1    1.077595 S    
C79   C83   1.554661 S    
N13   Ni2   1.877884 S    
C15   N15   1.325651 A    
C18   C81   1.471088 S    
N29   Ni2   1.877622 S    
C16   N16   1.325983 A    
C68   H64   1.112728 S    
C93   H91   1.112783 S    
C17   C82   1.470992 S    
C29   C43   1.389259 A    
C85   C89   1.545265 S    
C49   C59   1.554904 S    
C51   C55   1.538000 S    
H75   C75   1.114031 S    
C100  C108  1.556761 S    
C71   H71   1.110876 S    
C53   H45   1.112928 S    
H74   C74   1.114017 S    
C97   H109  1.111474 S    
C41   C107  1.473483 S    
C30   C43   1.389530 A    
C25   N17   1.325546 A    
C77   C95   1.538876 S    
C42   C108  1.473484 S    
C54   H42   1.114128 S    
C25   C41   1.389247 A    
N17   Ni1   1.876050 S    
N28   Ni7   1.876101 S    
C25   H17   1.077433 S    
C75   C81   1.551790 S    
C5    H5    1.077860 S    
C39   C48   1.377729 A    
C48   C88   1.467238 S    
N7    Ni7   1.877664 S    
C32   C44   1.389543 A    
C27   H19   1.077433 S    
C34   C46   1.377380 A    
C34   N26   1.325818 A    
C77   C81   1.554676 S    
N23   Ni7   1.877929 S    
C28   H20   1.077980 S    
C20   C83   1.471087 S    
C11   N11   1.325919 A    
C98   C107  1.556755 S    
C6    N6    1.325528 A    
C99   H111  1.111480 S    
N33   O2    1.302220 A    
C56   C62   1.551991 S    
C56   H48   1.114198 S    
C101  C109  1.571662 S    
C5    N5    1.325572 A    
H118  C105  1.114048 S    
N36   O8    1.301541 A    
C29   N21   1.324832 A    
H50   C57   1.110973 S    
C1    C17   1.389451 A    
C27   C42   1.389247 A    
C98   C102  1.548147 S    
C40   H32   1.079698 S    
C7    N7    1.325571 A    
C55   H47   1.112900 S    
C109  C111  1.554271 S    
H49   C57   1.112928 S    
C3    C19   1.389451 A    
C31   C44   1.389245 A    
C55   H43   1.109968 S    
C79   H87   1.112733 S    
C24   C60   1.466757 S    
N17   N18   1.389688 A    
C13   H13   1.079638 S    
C78   H86   1.112733 S    
C8    N8    1.325530 A    
C14   N14   1.325976 A    
C77   H85   1.112745 S    
C28   N20   1.326968 A    
C80   H88   1.112736 S    
N23   N24   1.389688 A    
C13   C23   1.377377 A    
C67   C69   1.538696 S    
C74   H98   1.114008 S    
N10   Ni5   1.876051 S    
C16   H16   1.079644 S    
C54   C61   1.552011 S    
C97   C101  1.548655 S    
H76   C76   1.114016 S    
C32   N24   1.325251 A    
N15   Ni4   1.877884 S    
C100  C104  1.548147 S    
C93   H93   1.110892 S    
N35   O5    1.301028 A    
N2    Ni2   1.875739 S    
C38   H30   1.079698 S    
N21   N22   1.389688 A    
C92   H104  1.114389 S    
C101  H113  1.112750 S    
H73   C73   1.114021 S    
C80   C84   1.554611 S    
N20   Ni4   1.875693 S    
N26   Ni5   1.876101 S    
C49   C53   1.538027 S    
N24   Ni8   1.877883 S    
C88   C92   1.545191 S    
C76   C82   1.551840 S    
C50   H38   1.114507 S    
N32   Ni3   1.877664 S    
C65   H57   1.109949 S    
N11   Ni8   1.875694 S    
C38   N30   1.326473 A    
C9    N9    1.325917 A    
N5    Ni5   1.877664 S    
C110  C112  1.554272 S    
C68   C84   1.554330 S    
