data_mof_unit_20495.cif
_audit_creation_date              2012-12-11T15:06:55-0500
_audit_creation_method            fapswitch 2.2
_symmetry_space_group_name_H-M    P1
_symmetry_Int_Tables_number       1
_space_group_crystal_system       triclinic
_cell_length_a                    19.627966
_cell_length_b                    11.370484
_cell_length_c                    18.708263
_cell_angle_alpha                 89.920153
_cell_angle_beta                  89.98878
_cell_angle_gamma                 90.002343
_cell_volume                      4175.29614571

loop_
_atom_site_label
_atom_site_type_symbol
_atom_type_description
_atom_site_fract_x
_atom_site_fract_y
_atom_site_fract_z
_atom_type_partial_charge
C1    C     C_R   0.761397 0.524941 0.639493 0.541519
C2    C     C_3   0.254468 0.061306 0.563657 0.086140
C3    C     C_R   0.740451 0.036252 0.152263 0.532449
C4    C     C_R   0.774369 0.133513 0.859196 0.534402
C5    C     C_R   0.226160 0.131788 0.141525 0.533391
C6    C     C_R   0.274369 0.633513 0.859196 0.534402
C7    C     C_R   0.726160 0.631788 0.141525 0.533391
C8    C     C_R   0.967427 0.353307 0.854500 0.535318
C9    C     C_R   0.030740 0.353367 0.146616 0.532628
C10   C     C_R   0.467427 0.853307 0.854500 0.535318
C11   C     C_R   0.530740 0.853367 0.146616 0.532628
C12   C     C_3   0.682276 0.127700 0.467102 -0.012334
C13   C     C_3   0.245533 0.561152 0.436362 0.086279
C14   C     C_3   0.317734 0.127841 0.532844 -0.012684
C15   C     C_3   0.182276 0.627700 0.467102 -0.012335
C16   C     C_3   0.817734 0.627841 0.532844 -0.012684
C17   C     C_3   0.691910 0.150901 0.547492 -0.186424
C18   C     C_3   0.308113 0.150962 0.452416 -0.186095
C19   C     C_3   0.191910 0.650901 0.547492 -0.186423
C20   C     C_3   0.808113 0.650962 0.452416 -0.186095
C21   C     C_3   0.756996 0.944975 0.480481 -0.235474
C22   C     C_3   0.243023 0.945072 0.519779 -0.235462
C23   C     C_3   0.256996 0.444975 0.480481 -0.235474
C24   C     C_3   0.754468 0.561307 0.563657 0.086140
C25   C     C_3   0.743023 0.445072 0.519779 -0.235462
C26   C     C_3   0.759241 0.095111 0.573929 0.036622
C27   C     C_3   0.240782 0.095063 0.426064 0.036909
C28   C     C_3   0.259241 0.595111 0.573929 0.036622
C29   C     C_3   0.740782 0.595063 0.426064 0.036909
C30   C     C_3   0.751372 0.964731 0.561565 -0.268883
C31   C     C_3   0.248679 0.964720 0.438677 -0.269496
C32   C     C_3   0.251372 0.464731 0.561565 -0.268883
C33   C     C_R   0.238582 0.524788 0.360542 0.540721
C34   C     C_3   0.748680 0.464719 0.438677 -0.269496
C35   C     C_3   0.821536 0.138671 0.529112 -0.224990
C36   C     C_3   0.178468 0.138659 0.470743 -0.224905
C37   C     C_3   0.321536 0.638671 0.529112 -0.224989
C38   C     C_3   0.678468 0.638659 0.470743 -0.224905
C39   C     C_3   0.003846 0.202116 0.458943 -0.230629
C40   C     C_3   0.996102 0.202185 0.541313 -0.230357
C41   C     C_3   0.503846 0.702116 0.458943 -0.230629
C42   C     C_3   0.496102 0.702185 0.541313 -0.230356
C43   C     C_3   0.063684 0.401914 0.473426 -0.215233
C44   C     C_R   0.261397 0.024941 0.639493 0.541519
C45   C     C_3   0.936315 0.402038 0.526459 -0.215485
C46   C     C_3   0.563684 0.901914 0.473426 -0.215233
C47   C     C_3   0.436315 0.902038 0.526459 -0.215486
C48   C     C_3   0.940483 0.385821 0.445331 -0.267311
C49   C     C_3   0.059505 0.385870 0.554588 -0.267470
C50   C     C_3   0.440482 0.885821 0.445331 -0.267311
C51   C     C_3   0.559505 0.885871 0.554588 -0.267470
C52   C     C_3   0.009555 0.330144 0.430602 0.067523
C53   C     C_3   0.990425 0.330276 0.569413 0.067294
C54   C     C_3   0.509555 0.830144 0.430602 0.067523
C55   C     C_R   0.738582 0.024788 0.360542 0.540722
C56   C     C_3   0.490425 0.830276 0.569413 0.067294
C57   C     C_3   0.820292 0.031212 0.048003 -0.232142
C58   C     C_3   0.186904 0.010017 0.956314 -0.226651
C59   C     C_3   0.320292 0.531212 0.048003 -0.232142
C60   C     C_3   0.686904 0.510017 0.956314 -0.226651
C61   C     C_R   0.774260 0.122570 0.649219 0.535214
C62   C     C_R   0.225763 0.122462 0.350754 0.534669
C63   C     C_R   0.274260 0.622570 0.649219 0.535214
C64   C     C_R   0.725763 0.622462 0.350754 0.534669
C65   C     C_3   0.822480 0.037059 0.967737 -0.225533
C66   C     C_3   0.807313 0.139581 0.448517 -0.249464
C67   C     C_3   0.184476 0.016843 0.036467 -0.233100
C68   C     C_3   0.322479 0.537059 0.967737 -0.225533
C69   C     C_3   0.684476 0.516843 0.036467 -0.233100
C70   C     C_3   0.693134 0.012610 0.032044 -0.220607
C71   C     C_3   0.317918 0.033766 0.968867 -0.213058
C72   C     C_3   0.193134 0.512610 0.032044 -0.220607
C73   C     C_3   0.817918 0.533766 0.968867 -0.213058
C74   C     C_3   0.744558 0.204197 0.061340 -0.254150
C75   C     C_3   0.244407 0.199385 0.937737 -0.259941
C76   C     C_3   0.244558 0.704196 0.061340 -0.254150
C77   C     C_3   0.192671 0.139683 0.551334 -0.249631
C78   C     C_3   0.744407 0.699385 0.937737 -0.259940
C79   C     C_3   0.749715 0.072989 0.075834 0.059767
C80   C     C_3   0.252741 0.068052 0.925752 0.063144
C81   C     C_3   0.249715 0.572989 0.075834 0.059767
C82   C     C_3   0.752741 0.568052 0.925752 0.063144
C83   C     C_3   0.760603 0.106267 0.936588 0.062521
C84   C     C_3   0.240263 0.102180 0.064558 0.058681
C85   C     C_3   0.260603 0.606267 0.936588 0.062521
C86   C     C_3   0.740263 0.602180 0.064558 0.058681
C87   C     C_3   0.699225 0.027532 0.949823 -0.260473
C88   C     C_3   0.307313 0.639582 0.448517 -0.249464
C89   C     C_3   0.308745 0.044311 0.050864 -0.252908
C90   C     C_3   0.199225 0.527532 0.949823 -0.260474
C91   C     C_3   0.808745 0.544311 0.050864 -0.252908
C92   C     C_3   0.745119 0.221837 0.979116 -0.216116
C93   C     C_3   0.238878 0.216974 0.019698 -0.227755
C94   C     C_3   0.245119 0.721837 0.979116 -0.216116
C95   C     C_3   0.738878 0.716974 0.019698 -0.227755
C96   C     C_3   0.994948 0.478633 0.042297 -0.233731
C97   C     C_3   0.991855 0.478680 0.961405 -0.226729
C98   C     C_3   0.494948 0.978633 0.042297 -0.233731
C99   C     C_3   0.692671 0.639683 0.551334 -0.249631
C100  C     C_3   0.491855 0.978680 0.961405 -0.226729
C101  C     C_3   0.067500 0.296764 0.026584 -0.223339
C102  C     C_3   0.937303 0.270840 0.973669 -0.211487
C103  C     C_3   0.567500 0.796764 0.026584 -0.223339
C104  C     C_3   0.437302 0.770840 0.973669 -0.211487
C105  C     C_3   0.945594 0.279279 0.055557 -0.255300
C106  C     C_3   0.057736 0.297926 0.944585 -0.262640
C107  C     C_3   0.445594 0.779279 0.055557 -0.255300
C108  C     C_3   0.557736 0.797926 0.944585 -0.262640
C109  C     C_R   0.969823 0.341695 0.645445 0.534989
C110  C     C_3   0.745533 0.061152 0.436362 0.086280
C111  C     C_R   0.030163 0.341614 0.354553 0.533996
C112  C     C_R   0.469823 0.841695 0.645445 0.534989
C113  C     C_R   0.530163 0.841614 0.354553 0.533996
C114  C     C_3   0.008778 0.352100 0.070130 0.059918
C115  C     C_3   0.987946 0.351104 0.931252 0.064452
C116  C     C_3   0.508778 0.852100 0.070130 0.059918
C117  C     C_3   0.487946 0.851104 0.931252 0.064452
C118  C     C_R   0.760799 0.532594 0.849246 0.536703
C119  C     C_R   0.240451 0.536252 0.152263 0.532449
C120  C     C_R   0.260799 0.032594 0.849246 0.536703
Cr1   Cr    Cr6+3 0.885690 0.492860 0.745310 0.986623
Cr2   Cr    Cr6+3 0.111880 0.178590 0.246990 0.992331
Cr3   Cr    Cr6+3 0.388120 0.678590 0.753010 0.992996
Cr4   Cr    Cr6+3 0.611880 0.678590 0.246990 0.992331
Cr5   Cr    Cr6+3 0.114310 0.492860 0.254690 0.985906
Cr6   Cr    Cr6+3 0.385690 0.992860 0.745310 0.986623
Cr7   Cr    Cr6+3 0.614310 0.992860 0.254690 0.985906
Cr8   Cr    Cr6+3 0.729880 0.332270 0.748190 0.991617
Cr9   Cr    Cr6+3 0.270120 0.332270 0.251810 0.990903
Cr10  Cr    Cr6+3 0.229880 0.832270 0.748190 0.991617
Cr11  Cr    Cr6+3 0.770120 0.832270 0.251810 0.990903
Cr12  Cr    Cr6+3 0.888120 0.178590 0.753010 0.992996
H1    H     H_    0.639792 0.071168 0.461078 0.138513
H2    H     H_    0.189788 0.917416 0.529996 0.142540
H3    H     H_    0.537886 0.023425 0.939954 0.113749
H4    H     H_    0.608453 0.853746 0.039019 0.110173
H5    H     H_    0.384551 0.782605 0.957082 0.110324
H6    H     H_    0.108453 0.353746 0.039019 0.110173
H7    H     H_    0.884551 0.282605 0.957082 0.110324
H8    H     H_    0.597990 0.850462 0.917806 0.104957
H9    H     H_    0.400098 0.819783 0.080500 0.102342
H10   H     H_    0.097990 0.350462 0.917806 0.104957
H11   H     H_    0.900098 0.319783 0.080500 0.102342
H12   H     H_    0.952860 0.190428 0.079043 0.115821
H13   H     H_    0.310211 0.417255 0.470284 0.142929
H14   H     H_    0.060993 0.207257 0.922727 0.111036
H15   H     H_    0.452860 0.690428 0.079043 0.115821
H16   H     H_    0.560993 0.707257 0.922727 0.111036
H17   H     H_    0.951732 0.180034 0.959311 0.123085
H18   H     H_    0.077369 0.206036 0.044889 0.132448
H19   H     H_    0.451732 0.680034 0.959311 0.123085
H20   H     H_    0.577369 0.706036 0.044889 0.132448
H21   H     H_    0.647976 0.114480 0.577761 0.085364
H22   H     H_    0.352070 0.114558 0.422242 0.085163
H23   H     H_    0.147976 0.614480 0.577761 0.085363
H24   H     H_    0.689789 0.417416 0.529996 0.142539
H25   H     H_    0.852070 0.614557 0.422242 0.085163
H26   H     H_    0.723023 0.874103 0.463672 0.112152
H27   H     H_    0.276960 0.874199 0.536781 0.112192
H28   H     H_    0.223023 0.374103 0.463672 0.112152
H29   H     H_    0.776960 0.374199 0.536781 0.112191
H30   H     H_    0.702103 0.932196 0.582701 0.103703
H31   H     H_    0.297964 0.932214 0.417634 0.103609
H32   H     H_    0.202103 0.432196 0.582701 0.103703
H33   H     H_    0.797964 0.432214 0.417635 0.103609
H34   H     H_    0.852042 0.105387 0.418832 0.108937
H35   H     H_    0.792006 0.920059 0.591293 0.182811
H36   H     H_    0.147942 0.105482 0.581073 0.109151
H37   H     H_    0.352042 0.605387 0.418832 0.108937
H38   H     H_    0.647942 0.605482 0.581073 0.109151
H39   H     H_    0.797207 0.229837 0.429212 0.148285
H40   H     H_    0.202751 0.229963 0.570450 0.148317
H41   H     H_    0.297207 0.729837 0.429212 0.148285
H42   H     H_    0.702751 0.729963 0.570450 0.148317
H43   H     H_    0.840567 0.223081 0.547833 0.114683
H44   H     H_    0.159450 0.223036 0.451798 0.114899
H45   H     H_    0.340567 0.723081 0.547833 0.114683
H46   H     H_    0.208060 0.920005 0.409044 0.182868
H47   H     H_    0.659450 0.723036 0.451798 0.114899
H48   H     H_    0.623264 0.274740 0.455247 0.206382
H49   H     H_    0.648371 0.220413 0.377929 0.260102
H50   H     H_    0.376885 0.274669 0.544606 0.206507
H51   H     H_    0.351197 0.220800 0.621955 0.260206
H52   H     H_    0.123263 0.774739 0.455246 0.206383
H53   H     H_    0.148373 0.720414 0.377928 0.260102
H54   H     H_    0.876885 0.774669 0.544606 0.206507
H55   H     H_    0.851197 0.720800 0.621955 0.260206
H56   H     H_    0.292006 0.420059 0.591293 0.182811
H57   H     H_    0.708060 0.420004 0.409044 0.182869
H58   H     H_    0.046912 0.149231 0.442005 0.131830
H59   H     H_    0.953019 0.149331 0.558361 0.132080
H60   H     H_    0.546912 0.649231 0.442005 0.131830
H61   H     H_    0.360238 0.071355 0.539073 0.138748
H62   H     H_    0.453019 0.649330 0.558361 0.132080
H63   H     H_    0.959610 0.157331 0.434471 0.105862
H64   H     H_    0.040323 0.157394 0.565883 0.106037
H65   H     H_    0.459610 0.657331 0.434471 0.105862
H66   H     H_    0.540323 0.657394 0.565883 0.106037
H67   H     H_    0.615302 0.887616 0.453527 0.103058
H68   H     H_    0.384701 0.887751 0.546400 0.102966
H69   H     H_    0.115302 0.387616 0.453527 0.103059
H70   H     H_    0.884701 0.387751 0.546400 0.102966
H71   H     H_    0.601275 0.829300 0.574460 0.103910
H72   H     H_    0.139792 0.571168 0.461078 0.138513
H73   H     H_    0.398696 0.829236 0.425607 0.103711
H74   H     H_    0.101275 0.329300 0.574460 0.103910
H75   H     H_    0.898696 0.329236 0.425607 0.103711
H76   H     H_    0.935526 0.472301 0.418070 0.119028
H77   H     H_    0.064459 0.472398 0.581645 0.119008
H78   H     H_    0.435526 0.972301 0.418070 0.119027
H79   H     H_    0.564459 0.972398 0.581645 0.119008
H80   H     H_    0.950668 0.495065 0.536142 0.129122
H81   H     H_    0.049346 0.494931 0.463525 0.129499
H82   H     H_    0.450668 0.995065 0.536142 0.129122
H83   H     H_    0.860238 0.571355 0.539073 0.138748
H84   H     H_    0.549346 0.994931 0.463525 0.129499
H85   H     H_    0.833239 0.939619 0.062986 0.138064
H86   H     H_    0.180640 0.918675 0.940400 0.138233
H87   H     H_    0.333239 0.439619 0.062986 0.138064
H88   H     H_    0.680640 0.418675 0.940400 0.138233
H89   H     H_    0.860652 0.086270 0.071684 0.115212
H90   H     H_    0.141310 0.054684 0.933622 0.115016
H91   H     H_    0.360652 0.586270 0.071684 0.115212
H92   H     H_    0.641310 0.554684 0.933622 0.115015
H93   H     H_    0.871458 0.071951 0.951608 0.135174
H94   H     H_    0.862176 0.072662 0.537514 0.125906
H95   H     H_    0.131964 0.042707 0.051058 0.134484
H96   H     H_    0.371459 0.571951 0.951608 0.135174
H97   H     H_    0.631964 0.542707 0.051058 0.134484
H98   H     H_    0.822722 0.946073 0.945783 0.114838
H99   H     H_    0.192030 0.928813 0.060229 0.118012
H100  H     H_    0.322722 0.446073 0.945783 0.114838
H101  H     H_    0.692030 0.428813 0.060229 0.118012
H102  H     H_    0.701054 0.922467 0.045677 0.110045
H103  H     H_    0.337924 0.948194 0.953247 0.110563
H104  H     H_    0.201054 0.422467 0.045677 0.110045
H105  H     H_    0.137848 0.072610 0.462450 0.125877
H106  H     H_    0.837924 0.448194 0.953247 0.110563
H107  H     H_    0.705952 0.941211 0.923204 0.106391
H108  H     H_    0.311223 0.956652 0.076740 0.102935
H109  H     H_    0.205953 0.441211 0.923204 0.106391
H110  H     H_    0.811223 0.456652 0.076740 0.102935
H111  H     H_    0.696330 0.237984 0.084723 0.115373
H112  H     H_    0.288511 0.249183 0.915871 0.112562
H113  H     H_    0.196330 0.737985 0.084723 0.115373
H114  H     H_    0.788511 0.749183 0.915871 0.112561
H115  H     H_    0.787448 0.251856 0.086744 0.102501
H116  H     H_    0.362176 0.572662 0.537514 0.125906
H117  H     H_    0.198261 0.232368 0.909818 0.104462
H118  H     H_    0.287448 0.751856 0.086744 0.102501
H119  H     H_    0.698261 0.732368 0.909818 0.104462
H120  H     H_    0.778036 0.294619 0.963585 0.108209
H121  H     H_    0.189358 0.249741 0.029426 0.110559
H122  H     H_    0.278036 0.794619 0.963585 0.108209
H123  H     H_    0.689358 0.749741 0.029426 0.110559
H124  H     H_    0.692528 0.246604 0.964517 0.117993
H125  H     H_    0.278911 0.277991 0.038189 0.124295
H126  H     H_    0.192528 0.746604 0.964517 0.117993
H127  H     H_    0.637848 0.572610 0.462450 0.125877
H128  H     H_    0.778911 0.777991 0.038189 0.124295
H129  H     H_    0.642748 0.043741 0.050040 0.129455
H130  H     H_    0.356424 0.100113 0.953965 0.120951
H131  H     H_    0.142748 0.543741 0.050040 0.129455
H132  H     H_    0.856424 0.600113 0.953965 0.120951
H133  H     H_    0.691023 0.244284 0.559735 0.157740
H134  H     H_    0.308969 0.244380 0.440006 0.158235
H135  H     H_    0.191023 0.744283 0.559736 0.157740
H136  H     H_    0.808969 0.744380 0.440006 0.158235
H137  H     H_    0.652255 0.067812 0.927520 0.110536
H138  H     H_    0.810211 0.917255 0.470284 0.142929
H139  H     H_    0.349269 0.100647 0.074126 0.115355
H140  H     H_    0.152255 0.567812 0.927520 0.110536
H141  H     H_    0.849269 0.600647 0.074126 0.115355
H142  H     H_    0.033999 0.543289 0.058621 0.133033
H143  H     H_    0.950561 0.534655 0.943590 0.133993
H144  H     H_    0.533999 0.043289 0.058621 0.133033
H145  H     H_    0.450561 0.034655 0.943590 0.133993
H146  H     H_    0.946723 0.511209 0.065078 0.116729
H147  H     H_    0.037886 0.523425 0.939954 0.113749
H148  H     H_    0.446723 0.011209 0.065078 0.116729
N1    N     N_3   0.665274 0.236585 0.429746 -0.684668
N2    N     N_3   0.334670 0.236799 0.569958 -0.685007
N3    N     N_3   0.165274 0.736586 0.429746 -0.684670
N4    N     N_3   0.834670 0.736800 0.569958 -0.685007
O1    O     O_R   0.957210 0.449410 0.665480 -0.533157
O2    O     O_R   0.167480 0.095300 0.164000 -0.533827
O3    O     O_R   0.332520 0.595300 0.836000 -0.533618
O4    O     O_R   0.667480 0.595300 0.164000 -0.533827
O5    O     O_R   0.946380 0.253940 0.826940 -0.513289
O6    O     O_R   0.053620 0.253940 0.173060 -0.513315
O7    O     O_R   0.446380 0.753940 0.826940 -0.513289
O8    O     O_R   0.553620 0.753940 0.173060 -0.513315
O9    O     O_3   0.834560 0.334570 0.748840 -0.274022
O10   O     O_3   0.165440 0.334570 0.251160 -0.271144
O11   O     O_3   0.334560 0.834570 0.748840 -0.274022
O12   O     O_R   0.042790 0.449410 0.334520 -0.533765
O13   O     O_3   0.665440 0.834570 0.251160 -0.271144
O14   O     O_R   0.820730 0.541240 0.668250 -0.519950
O15   O     O_R   0.179270 0.541240 0.331750 -0.520338
O16   O     O_R   0.320730 0.041240 0.668250 -0.519950
O17   O     O_R   0.679270 0.041240 0.331750 -0.520338
O18   O     O_R   0.714240 0.455060 0.663710 -0.536265
O19   O     O_R   0.285760 0.455060 0.336290 -0.536938
O20   O     O_R   0.214240 0.955060 0.663710 -0.536266
O21   O     O_R   0.785760 0.955060 0.336290 -0.536938
O22   O     O_R   0.736780 0.204870 0.675910 -0.517358
O23   O     O_R   0.457210 0.949410 0.665480 -0.533157
O24   O     O_R   0.263220 0.204870 0.324090 -0.517821
O25   O     O_R   0.236780 0.704870 0.675910 -0.517358
O26   O     O_R   0.763220 0.704870 0.324090 -0.517821
O27   O     O_R   0.833070 0.087590 0.673490 -0.528726
O28   O     O_R   0.166930 0.087590 0.326510 -0.528913
O29   O     O_R   0.333070 0.587590 0.673490 -0.528726
O30   O     O_R   0.666930 0.587590 0.326510 -0.528913
O31   O     O_R   0.946890 0.246800 0.676300 -0.512273
O32   O     O_R   0.053110 0.246800 0.323700 -0.512639
O33   O     O_R   0.446890 0.746800 0.676300 -0.512273
O34   O     O_R   0.542790 0.949410 0.334520 -0.533766
O35   O     O_R   0.553110 0.746800 0.323700 -0.512639
O36   O     O_R   0.956650 0.457120 0.827980 -0.532185
O37   O     O_R   0.043350 0.457120 0.172020 -0.531918
O38   O     O_R   0.456650 0.957120 0.827980 -0.532185
O39   O     O_R   0.543350 0.957120 0.172020 -0.531918
O40   O     O_R   0.820220 0.548390 0.818890 -0.510859
O41   O     O_R   0.179780 0.548390 0.181110 -0.510450
O42   O     O_R   0.320220 0.048390 0.818890 -0.510859
O43   O     O_R   0.679780 0.048390 0.181110 -0.510450
O44   O     O_R   0.713680 0.462770 0.826210 -0.532902
O45   O     O_R   0.736260 0.212010 0.826560 -0.510464
O46   O     O_R   0.286320 0.462770 0.173790 -0.532552
O47   O     O_R   0.213680 0.962770 0.826210 -0.532902
O48   O     O_R   0.786320 0.962770 0.173790 -0.532552
O49   O     O_R   0.263740 0.212010 0.173440 -0.510115
O50   O     O_R   0.236260 0.712010 0.826560 -0.510464
O51   O     O_R   0.763740 0.712010 0.173440 -0.510115
O52   O     O_R   0.832520 0.095300 0.836000 -0.533618

loop_
_geom_bond_atom_site_label_1
_geom_bond_atom_site_label_2
_ccdc_geom_bond_type
H51   N2    S    
C3    O43   A    
C70   H129  S    
C19   H23   S    
C76   H118  S    
C21   C110  S    
C57   H89   S    
Cr3   O3    S    
C77   H36   S    
C4    O45   A    
C6    C85   S    
C65   H98   S    
C9    C114  S    
C94   H122  S    
C61   O27   A    
C22   H27   S    
Cr9   O46   S    
C5    O2    A    
C41   C42   S    
C74   C92   S    
C7    O4    A    
C76   C94   S    
Cr10  O47   S    
C43   H69   S    
C63   O25   A    
C97   C115  S    
Cr9   O49   S    
C100  H3    S    
C25   C34   S    
C29   C64   S    
C67   H99   S    
C113  O34   A    
C96   C114  S    
C21   H138  S    
Cr12  O52   S    
C45   H80   S    
Cr8   O22   S    
C27   C31   S    
C1    O14   A    
C42   H66   S    
C18   H134  S    
C32   H56   S    
C35   C66   S    
C39   H63   S    
C72   H104  S    
C16   N4    S    
C16   H83   S    
C13   C33   S    
C118  O40   A    
C78   C82   S    
Cr1   O40   S    
H55   N4    S    
C48   H76   S    
Cr1   O14   S    
C65   H93   S    
C66   C110  S    
C97   H143  S    
C98   H144  S    
C103  H20   S    
C93   H125  S    
C11   O8    A    
C74   C79   S    
C30   H30   S    
C75   C93   S    
C104  C117  S    
C53   C109  S    
C36   H105  S    
C120  O47   A    
C81   C119  S    
C72   H131  S    
C88   H37   S    
C70   C79   S    
C43   C49   S    
Cr4   O8    S    
H50   N2    S    
C85   C90   S    
C68   H96   S    
Cr6   O38   S    
C106  C115  S    
C36   C77   S    
C35   H43   S    
C6    O3    A    
Cr6   O23   S    
C99   H42   S    
C49   C53   S    
C38   H47   S    
C11   O39   A    
C103  C116  S    
C102  H7    S    
C2    C14   S    
C86   C95   S    
C102  H17   S    
C33   O15   A    
C28   C63   S    
C26   C35   S    
C48   C52   S    
C49   H74   S    
Cr12  O5    S    
C100  C117  S    
C104  C107  S    
C108  H16   S    
C100  H145  S    
Cr3   O33   S    
Cr1   O9    S    
Cr2   O6    S    
Cr3   O11   S    
C12   C110  S    
Cr12  O9    S    
H49   N1    S    
C3    O48   A    
C40   H59   S    
C30   H35   S    
C112  O23   A    
C43   C52   S    
C7    C86   S    
C62   O28   A    
C47   H82   S    
C13   C23   S    
C69   H101  S    
C25   H29   S    
C29   C38   S    
C44   O16   A    
C102  C115  S    
C71   H103  S    
C107  H9    S    
C34   H33   S    
C18   H22   S    
C84   C93   S    
C71   H130  S    
C45   C53   S    
C96   C97   S    
C25   H24   S    
C68   C85   S    
C89   H108  S    
C70   C87   S    
C47   C50   S    
C8    O5    A    
C92   H120  S    
C95   H128  S    
C87   H107  S    
C31   H46   S    
C66   H39   S    
C41   H65   S    
C39   C40   S    
C5    C84   S    
C46   C51   S    
C63   O29   A    
C103  H4    S    
C2    C22   S    
C27   C62   S    
C69   H97   S    
C72   C90   S    
C58   C67   S    
C67   H95   S    
Cr5   O41   S    
C19   C28   S    
C55   O21   A    
C26   C30   S    
C1    O18   A    
C19   H135  S    
C101  C106  S    
Cr10  O20   S    
C108  C117  S    
C73   H132  S    
C37   H45   S    
C97   H147  S    
C73   H106  S    
C10   C117  S    
C98   H148  S    
C58   H86   S    
C46   H67   S    
C94   H126  S    
C60   C69   S    
C32   H32   S    
C78   H114  S    
Cr12  O27   S    
C107  C116  S    
C50   H78   S    
C1    C24   S    
C68   H100  S    
C47   C56   S    
C83   C87   S    
C101  C114  S    
C95   H123  S    
C21   H26   S    
C37   C88   S    
C76   H113  S    
C20   H136  S    
C105  H12   S    
Cr5   O10   S    
C99   H38   S    
C15   C19   S    
C50   C54   S    
C119  O46   A    
C26   C61   S    
C86   C91   S    
C60   H88   S    
C9    O6    A    
C33   O19   A    
C93   H121  S    
C35   H94   S    
C101  H18   S    
C96   H142  S    
C104  H5    S    
C102  C105  S    
C14   C18   S    
C75   H112  S    
C42   C56   S    
C45   H70   S    
C12   C17   S    
Cr3   O29   S    
C106  H10   S    
Cr2   O10   S    
Cr3   O7    S    
C72   C81   S    
C58   C80   S    
C12   N1    S    
Cr11  O21   S    
C78   H119  S    
C51   H71   S    
C62   O24   A    
Cr8   O9    S    
C9    O37   A    
C17   H21   S    
Cr10  O11   S    
C44   O20   A    
Cr7   O43   S    
Cr7   O17   S    
Cr7   O13   S    
C107  H15   S    
Cr8   O18   S    
C91   H110  S    
C28   C32   S    
C78   C95   S    
C46   C54   S    
Cr2   O28   S    
Cr1   O1    S    
Cr4   O30   S    
C11   C116  S    
H53   N3    S    
C3    C79   S    
C59   H91   S    
C74   H111  S    
C92   H124  S    
C14   H61   S    
C8    O36   A    
C36   H44   S    
C46   H84   S    
C20   H25   S    
C113  O35   A    
C73   C82   S    
Cr5   O12   S    
Cr12  O31   S    
Cr6   O11   S    
C45   C48   S    
Cr9   O19   S    
Cr2   O32   S    
Cr4   O35   S    
C64   O30   A    
C59   C81   S    
C57   C65   S    
C38   C99   S    
C101  H6    S    
C10   O7    A    
C27   C36   S    
C21   C30   S    
Cr5   O37   S    
C23   C32   S    
C2    C77   S    
Cr11  O48   S    
C4    C83   S    
C57   H85   S    
Cr9   O10   S    
H52   N3    S    
C29   C34   S    
C48   H75   S    
C10   O38   A    
Cr7   O34   S    
C49   H77   S    
Cr11  O13   S    
C75   H117  S    
C120  O42   A    
C80   C120  S    
C24   C99   S    
C57   C79   S    
C15   N3    S    
C64   O26   A    
C38   H127  S    
C15   H72   S    
C58   H90   S    
C61   O22   A    
C14   N2    S    
C83   C92   S    
C23   H13   S    
C37   H116  S    
C22   H2    S    
C17   C26   S    
C28   C37   S    
C104  H19   S    
Cr5   O15   S    
Cr9   O24   S    
C65   C83   S    
Cr6   O16   S    
C5    O49   A    
C54   C113  S    
C7    O51   A    
C51   C56   S    
C70   H102  S    
C42   H62   S    
C17   H133  S    
C8    C115  S    
C60   C82   S    
Cr8   O44   S    
C103  C108  S    
C75   C80   S    
C16   C20   S    
C109  O1    A    
Cr1   O36   S    
C39   C52   S    
C67   C84   S    
C16   C24   S    
C109  O31   A    
C60   H92   S    
C71   C80   S    
C20   C29   S    
Cr11  O26   S    
C31   H31   S    
C22   C31   S    
C66   H34   S    
C105  C114  S    
C91   H141  S    
C24   C25   S    
C73   C91   S    
C2    C44   S    
C108  H8    S    
C39   H58   S    
C55   O17   A    
C52   C111  S    
C112  O33   A    
C119  O41   A    
C88   H41   S    
C77   H40   S    
C59   C68   S    
C85   C94   S    
C98   C116  S    
C71   C89   S    
C23   H28   S    
Cr6   O42   S    
H54   N4    S    
C4    O52   A    
Cr7   O39   S    
C12   H1    S    
C13   C15   S    
C55   C110  S    
C47   H68   S    
C6    O50   A    
C84   C89   S    
C43   H81   S    
Cr4   O4    S    
C40   H64   S    
C111  O12   A    
C41   H60   S    
C89   H139  S    
C34   H57   S    
C90   H140  S    
C18   C27   S    
C76   C81   S    
C105  H11   S    
Cr10  O50   S    
C98   C100  S    
C106  H14   S    
Cr8   O45   S    
C96   H146  S    
Cr2   O2    S    
C118  O44   A    
Cr11  O51   S    
C59   H87   S    
C87   H137  S    
C74   H115  S    
C13   C88   S    
C111  O32   A    
C41   C54   S    
Cr4   O13   S    
C50   H73   S    
C51   H79   S    
C40   C53   S    
C90   H109  S    
C82   C118  S    
H48   N1    S    
C56   C112  S    
C69   C86   S    
Cr10  O25   S    
