data_mof_unit_47350.cif
_audit_creation_date              2012-12-11T16:12:48-0500
_audit_creation_method            fapswitch 2.2
_symmetry_space_group_name_H-M    P1
_symmetry_Int_Tables_number       1
_space_group_crystal_system       triclinic
_cell_length_a                    7.248644
_cell_length_b                    20.794316
_cell_length_c                    23.902657
_cell_angle_alpha                 89.999465
_cell_angle_beta                  90.00161
_cell_angle_gamma                 89.996556
_cell_volume                      3602.86167749

loop_
_atom_site_label
_atom_site_type_symbol
_atom_type_description
_atom_site_fract_x
_atom_site_fract_y
_atom_site_fract_z
_atom_type_partial_charge
O1    O     O_R   0.615270 0.806540 0.192260 -0.532922
O2    O     O_R   0.384730 0.193460 0.807740 -0.532890
O3    O     O_R   0.384730 0.193460 0.692260 -0.532939
O4    O     O_R   0.615270 0.806540 0.307740 -0.532919
O5    O     O_R   0.115270 0.693460 0.307740 -0.532940
O6    O     O_R   0.884730 0.306540 0.692260 -0.532959
O7    O     O_R   0.884730 0.306540 0.807740 -0.532935
O8    O     O_R   0.115270 0.693460 0.192260 -0.532944
O9    O     O_R   0.285500 0.813970 0.307340 -0.536821
O10   O     O_R   0.714500 0.186030 0.692660 -0.536847
O11   O     O_R   0.714500 0.186030 0.807340 -0.536770
O12   O     O_R   0.285500 0.813970 0.192660 -0.536813
O13   O     O_R   0.785500 0.686030 0.192660 -0.536863
O14   O     O_R   0.214500 0.313970 0.807340 -0.536848
O15   O     O_R   0.214500 0.313970 0.692660 -0.536873
O16   O     O_R   0.785500 0.686030 0.307340 -0.536846
C1    C     C_R   0.452481 0.828897 0.325965 0.734814
C2    C     C_R   0.547522 0.171104 0.674033 0.734811
C3    C     C_R   0.547518 0.171102 0.825964 0.734772
C4    C     C_R   0.452477 0.828898 0.174035 0.734800
C5    C     C_R   0.952480 0.671104 0.174034 0.734868
C6    C     C_R   0.047519 0.328896 0.825966 0.734886
C7    C     C_R   0.047518 0.328896 0.674034 0.734860
C8    C     C_R   0.952483 0.671104 0.325965 0.734867
O17   O     O_3   0.448760 0.710460 0.250000 -0.379111
O18   O     O_3   0.551240 0.289540 0.750000 -0.379140
O19   O     O_3   0.948760 0.789540 0.250000 -0.378960
O20   O     O_3   0.051240 0.210460 0.750000 -0.378917
V1    V     V_3+5 0.173900 0.757330 0.250000 1.381825
V2    V     V_3+5 0.826100 0.242670 0.750000 1.381839
V3    V     V_3+5 0.673900 0.742670 0.250000 1.381791
V4    V     V_3+5 0.326100 0.257330 0.750000 1.381797
C9    C     C_3   0.095698 0.530645 0.539942 -0.030066
C10   C     C_3   0.904331 0.469339 0.460041 -0.030100
C11   C     C_3   0.904310 0.469347 0.039948 -0.030086
C12   C     C_3   0.095666 0.530656 0.960048 -0.030104
C13   C     C_3   0.595578 0.969304 0.960041 -0.030436
C14   C     C_3   0.404330 0.030678 0.039937 -0.030324
C15   C     C_3   0.404346 0.030677 0.460043 -0.030249
C16   C     C_3   0.595697 0.969343 0.539940 -0.030189
C17   C     C_3   0.905674 0.552050 0.516804 0.014908
C18   C     C_3   0.094354 0.447934 0.483180 0.014940
C19   C     C_3   0.094333 0.447944 0.016811 0.014928
C20   C     C_3   0.905642 0.552059 0.983185 0.014930
C21   C     C_3   0.405564 0.947941 0.983205 0.015092
C22   C     C_3   0.594341 0.052044 0.016773 0.015051
C23   C     C_3   0.594363 0.052066 0.483190 0.015006
C24   C     C_3   0.405681 0.947953 0.516793 0.014981
C25   C     C_1   0.952976 0.624554 0.371105 -0.203908
C26   C     C_1   0.047038 0.375443 0.628891 -0.203889
C27   C     C_1   0.047032 0.375445 0.871107 -0.203939
C28   C     C_1   0.952962 0.624555 0.128892 -0.203917
C29   C     C_1   0.452963 0.875453 0.128896 -0.203944
C30   C     C_1   0.546996 0.124544 0.871098 -0.203950
C31   C     C_1   0.547036 0.124555 0.628892 -0.203919
C32   C     C_1   0.452985 0.875452 0.371103 -0.203933
C33   C     C_3   0.165241 0.518465 0.479354 0.050478
C34   C     C_3   0.834785 0.481520 0.520629 0.050429
C35   C     C_3   0.834761 0.481527 0.979359 0.050467
C36   C     C_3   0.165216 0.518475 0.020636 0.050445
C37   C     C_3   0.665188 0.981507 0.020622 0.050711
C38   C     C_3   0.334726 0.018479 0.979357 0.050813
C39   C     C_3   0.334789 0.018485 0.520629 0.050597
C40   C     C_3   0.665251 0.981534 0.479354 0.050634
C41   C     C_3   0.974579 0.539641 0.456340 0.035353
C42   C     C_3   0.025449 0.460344 0.543644 0.035360
C43   C     C_3   0.025424 0.460354 0.956346 0.035354
C44   C     C_3   0.974554 0.539649 0.043650 0.035357
C45   C     C_3   0.474544 0.960369 0.043659 0.035288
C46   C     C_3   0.525364 0.039614 0.956320 0.035230
C47   C     C_3   0.525442 0.039646 0.543651 0.035318
C48   C     C_3   0.474601 0.960373 0.456332 0.035287
C49   C     C_1   0.953833 0.585845 0.409326 -0.013818
C50   C     C_1   0.046194 0.414148 0.590665 -0.013798
C51   C     C_1   0.046175 0.414152 0.909330 -0.013816
C52   C     C_1   0.953811 0.585848 0.090668 -0.013806
C53   C     C_1   0.453829 0.914166 0.090677 -0.013800
C54   C     C_1   0.546085 0.085827 0.909312 -0.013866
C55   C     C_1   0.546174 0.085848 0.590669 -0.013805
C56   C     C_1   0.453868 0.914165 0.409320 -0.013840
C57   C     C_3   0.809467 0.615416 0.532459 -0.352454
C58   C     C_3   0.747178 0.618557 0.593789 -0.295659
C59   C     C_3   0.675928 0.685614 0.608285 -0.694420
H1    H     H_    0.788969 0.721453 0.604804 0.233103
H2    H     H_    0.562151 0.699591 0.579649 0.253370
H3    H     H_    0.623186 0.686011 0.651898 0.214138
H4    H     H_    0.635535 0.583393 0.601734 0.210935
H5    H     H_    0.863076 0.607043 0.622269 0.218681
H6    H     H_    0.907797 0.655284 0.524050 0.198155
H7    H     H_    0.689035 0.622588 0.504703 0.172780
C60   C     C_3   0.190561 0.384568 0.467522 -0.352482
C61   C     C_3   0.252894 0.381435 0.406196 -0.295675
C62   C     C_3   0.324022 0.314366 0.391686 -0.694312
H8    H     H_    0.437744 0.300350 0.420328 0.253348
H9    H     H_    0.210905 0.278555 0.395146 0.233085
H10   H     H_    0.376806 0.313975 0.348078 0.214129
H11   H     H_    0.137048 0.392987 0.377710 0.218731
H12   H     H_    0.364615 0.416574 0.398270 0.210986
H13   H     H_    0.310978 0.377389 0.495282 0.172763
H14   H     H_    0.092217 0.344702 0.475922 0.198144
C63   C     C_3   0.190543 0.384578 0.032469 -0.352461
C64   C     C_3   0.252864 0.381443 0.093798 -0.295679
C65   C     C_3   0.324082 0.314383 0.108302 -0.694391
H15   H     H_    0.211019 0.278552 0.104828 0.233105
H16   H     H_    0.437837 0.300394 0.079663 0.253372
H17   H     H_    0.376847 0.313990 0.151913 0.214134
H18   H     H_    0.364533 0.416600 0.101733 0.210961
H19   H     H_    0.136989 0.392970 0.122279 0.218700
H20   H     H_    0.092206 0.344710 0.024066 0.198145
H21   H     H_    0.310963 0.377402 0.004711 0.172783
C66   C     C_3   0.809426 0.615423 0.967524 -0.352451
C67   C     C_3   0.747084 0.618553 0.906197 -0.295683
C68   C     C_3   0.675976 0.685623 0.891679 -0.694355
H22   H     H_    0.562263 0.699646 0.920320 0.253361
H23   H     H_    0.789105 0.721430 0.895136 0.233089
H24   H     H_    0.623184 0.686010 0.848071 0.214118
H25   H     H_    0.862920 0.606992 0.877712 0.218716
H26   H     H_    0.635348 0.583419 0.898274 0.210970
H27   H     H_    0.689012 0.622602 0.995284 0.172763
H28   H     H_    0.907768 0.655291 0.975922 0.198155
C69   C     C_3   0.309293 0.884573 0.967599 -0.352523
C70   C     C_3   0.246563 0.881443 0.906310 -0.295787
C71   C     C_3   0.175663 0.814349 0.891804 -0.693987
H29   H     H_    0.289009 0.778607 0.895146 0.233000
H30   H     H_    0.062279 0.800230 0.920528 0.253272
H31   H     H_    0.122479 0.813967 0.848242 0.214169
H32   H     H_    0.134610 0.916522 0.898471 0.211241
H33   H     H_    0.362152 0.893085 0.877761 0.218870
H34   H     H_    0.407720 0.844711 0.975941 0.198152
H35   H     H_    0.189063 0.877386 0.995431 0.172724
C72   C     C_3   0.690598 0.115422 0.032357 -0.352471
C73   C     C_3   0.753267 0.118592 0.093652 -0.295787
C74   C     C_3   0.824209 0.185693 0.108121 -0.693990
H36   H     H_    0.937708 0.199758 0.079419 0.253272
H37   H     H_    0.710928 0.221453 0.104716 0.233019
H38   H     H_    0.877242 0.186112 0.151701 0.214177
H39   H     H_    0.637629 0.106989 0.122196 0.218805
H40   H     H_    0.865176 0.083504 0.101525 0.211192
H41   H     H_    0.810839 0.122594 0.004523 0.172766
H42   H     H_    0.592166 0.155277 0.023991 0.198138
C75   C     C_3   0.690587 0.115434 0.467558 -0.352481
C76   C     C_3   0.753067 0.118576 0.406246 -0.295725
C77   C     C_3   0.824149 0.185653 0.391751 -0.694200
H43   H     H_    0.710980 0.221452 0.395190 0.233059
H44   H     H_    0.937788 0.199678 0.420418 0.253352
H45   H     H_    0.877026 0.186052 0.348153 0.214156
H46   H     H_    0.864851 0.083449 0.398346 0.211099
H47   H     H_    0.637307 0.107011 0.377734 0.218808
H48   H     H_    0.592208 0.155299 0.475940 0.198137
H49   H     H_    0.810933 0.122609 0.495348 0.172749
C78   C     C_3   0.309470 0.884581 0.532418 -0.352486
C79   C     C_3   0.246997 0.881428 0.593730 -0.295722
C80   C     C_3   0.175975 0.814343 0.608222 -0.694103
H50   H     H_    0.062358 0.800303 0.579552 0.253320
H51   H     H_    0.289178 0.778557 0.604787 0.233032
H52   H     H_    0.123081 0.813938 0.651817 0.214159
H53   H     H_    0.362750 0.893003 0.622241 0.218788
H54   H     H_    0.135185 0.916543 0.601633 0.211115
H55   H     H_    0.189127 0.877406 0.504625 0.172783
H56   H     H_    0.407863 0.844720 0.524032 0.198117
C81   C     C_2   0.191889 0.568375 0.584901 0.692665
O21   O     O_2   0.264127 0.619769 0.573400 -0.580730
O22   O     O_R   0.185684 0.547329 0.640340 -0.678520
H57   H     H_    0.252149 0.577566 0.666812 0.292533
C82   C     C_2   0.808174 0.431606 0.415076 0.692561
O23   O     O_2   0.735802 0.380238 0.426580 -0.580725
O24   O     O_R   0.814599 0.452616 0.359627 -0.678519
H58   H     H_    0.748154 0.422381 0.333152 0.292561
C83   C     C_2   0.808140 0.431612 0.084906 0.692632
O25   O     O_2   0.735860 0.380227 0.073402 -0.580734
O26   O     O_R   0.814423 0.452642 0.140350 -0.678524
H59   H     H_    0.747970 0.422404 0.166822 0.292540
C84   C     C_2   0.191828 0.568395 0.915088 0.692591
O27   O     O_2   0.264135 0.619774 0.926594 -0.580715
O28   O     O_R   0.185477 0.547377 0.859641 -0.678524
H60   H     H_    0.251913 0.577617 0.833170 0.292556
C85   C     C_2   0.691488 0.931500 0.915072 0.692356
O29   O     O_2   0.764267 0.880213 0.926625 -0.580725
O30   O     O_R   0.684285 0.952323 0.859575 -0.678504
H61   H     H_    0.750615 0.922050 0.833104 0.292620
C86   C     C_2   0.308371 0.068458 0.084912 0.692523
O31   O     O_2   0.235692 0.119768 0.073379 -0.580766
O32   O     O_R   0.315420 0.047578 0.140395 -0.678503
H62   H     H_    0.249111 0.077843 0.166877 0.292579
C87   C     C_2   0.308293 0.068445 0.415076 0.692488
O33   O     O_2   0.235732 0.119777 0.426606 -0.580740
O34   O     O_R   0.315101 0.047529 0.359602 -0.678511
H63   H     H_    0.248714 0.077786 0.333126 0.292578
C88   C     C_2   0.691783 0.931594 0.584912 0.692550
O35   O     O_2   0.764411 0.880273 0.573394 -0.580765
O36   O     O_R   0.684939 0.952527 0.640382 -0.678513
H64   H     H_    0.751339 0.922286 0.666864 0.292567
C89   C     C_3   0.644263 0.460000 0.542870 -0.377820
C90   C     C_3   0.652590 0.426076 0.599530 -0.333643
C91   C     C_3   0.465615 0.411527 0.623429 -0.738581
H65   H     H_    0.383933 0.455998 0.626425 0.265439
H66   H     H_    0.397020 0.375474 0.596333 0.225764
H67   H     H_    0.482106 0.391137 0.666036 0.241942
H68   H     H_    0.717038 0.378305 0.593454 0.219917
H69   H     H_    0.728774 0.456277 0.630194 0.219386
H70   H     H_    0.553121 0.502199 0.546523 0.176041
H71   H     H_    0.582378 0.426203 0.512613 0.197616
C92   C     C_3   0.355755 0.539983 0.457110 -0.377854
C93   C     C_3   0.347442 0.573858 0.400424 -0.333633
C94   C     C_3   0.534442 0.588357 0.376515 -0.738398
H72   H     H_    0.602913 0.624523 0.403527 0.225779
H73   H     H_    0.616209 0.543892 0.373668 0.265335
H74   H     H_    0.518021 0.608577 0.333841 0.241848
H75   H     H_    0.271222 0.543637 0.369783 0.219387
H76   H     H_    0.283039 0.621642 0.406463 0.219913
H77   H     H_    0.417624 0.573799 0.487354 0.197584
H78   H     H_    0.446900 0.497783 0.453482 0.175998
C95   C     C_3   0.355735 0.539994 0.042880 -0.377841
C96   C     C_3   0.347421 0.573879 0.099557 -0.333629
C97   C     C_3   0.534404 0.588405 0.123462 -0.738519
H79   H     H_    0.616134 0.543942 0.126399 0.265413
H80   H     H_    0.602957 0.624506 0.096404 0.225770
H81   H     H_    0.517949 0.608728 0.166093 0.241890
H82   H     H_    0.282989 0.621656 0.093506 0.219924
H83   H     H_    0.271223 0.543662 0.130206 0.219384
H84   H     H_    0.446897 0.497799 0.046511 0.176031
H85   H     H_    0.417591 0.573813 0.012636 0.197609
C98   C     C_3   0.644242 0.460010 0.957114 -0.377832
C99   C     C_3   0.652562 0.426127 0.900433 -0.333625
C100  C     C_3   0.465572 0.411613 0.876522 -0.738426
H86   H     H_    0.397078 0.375468 0.903549 0.225776
H87   H     H_    0.383810 0.456076 0.873641 0.265365
H88   H     H_    0.482019 0.391358 0.833863 0.241867
H89   H     H_    0.728770 0.456345 0.869788 0.219381
H90   H     H_    0.716984 0.378347 0.906480 0.219911
H91   H     H_    0.582372 0.426196 0.987359 0.197591
H92   H     H_    0.553092 0.502209 0.953481 0.175999
C101  C     C_3   0.144257 0.039990 0.957076 -0.378210
C102  C     C_3   0.152452 0.073462 0.900194 -0.333758
C103  C     C_3   0.965322 0.087750 0.876244 -0.737827
H93   H     H_    0.883330 0.043299 0.873959 0.265029
H94   H     H_    0.897295 0.124323 0.902947 0.225874
H95   H     H_    0.981384 0.107358 0.833333 0.241443
H96   H     H_    0.216675 0.121313 0.905961 0.219955
H97   H     H_    0.228783 0.043063 0.869709 0.219418
H98   H     H_    0.052944 0.997812 0.953697 0.175905
H99   H     H_    0.082686 0.074045 0.987179 0.197765
C104  C     C_3   0.855676 0.960008 0.042902 -0.378064
C105  C     C_3   0.847438 0.926417 0.099721 -0.333737
C106  C     C_3   0.034501 0.912050 0.123661 -0.738284
H100  H     H_    0.102896 0.875752 0.096764 0.225885
H101  H     H_    0.116266 0.956526 0.126309 0.265164
H102  H     H_    0.018240 0.892036 0.166415 0.241638
H103  H     H_    0.771133 0.956757 0.130256 0.219453
H104  H     H_    0.783159 0.878591 0.093861 0.219957
H105  H     H_    0.917337 0.926014 0.012766 0.197746
H106  H     H_    0.946948 0.002194 0.046351 0.176020
C107  C     C_3   0.855746 0.960025 0.457088 -0.378016
C108  C     C_3   0.847486 0.926347 0.400308 -0.333693
C109  C     C_3   0.034540 0.911944 0.376379 -0.738214
H107  H     H_    0.116381 0.956403 0.373756 0.265217
H108  H     H_    0.102856 0.875616 0.403269 0.225832
H109  H     H_    0.018275 0.891962 0.333613 0.241660
H110  H     H_    0.783177 0.878531 0.406218 0.219937
H111  H     H_    0.771202 0.956654 0.369741 0.219412
H112  H     H_    0.946962 0.002217 0.453582 0.175979
H113  H     H_    0.917487 0.926090 0.487260 0.197707
C110  C     C_3   0.144287 0.039989 0.542896 -0.377945
C111  C     C_3   0.152570 0.073715 0.599650 -0.333674
C112  C     C_3   0.965548 0.088151 0.623578 -0.738431
H114  H     H_    0.897060 0.124356 0.596606 0.225852
H115  H     H_    0.883811 0.043680 0.626363 0.265242
H116  H     H_    0.981913 0.108310 0.666274 0.241728
H117  H     H_    0.228848 0.043433 0.630237 0.219427
H118  H     H_    0.216902 0.121520 0.593701 0.219937
H119  H     H_    0.082511 0.073899 0.512710 0.197660
H120  H     H_    0.053084 0.997796 0.546431 0.176037

loop_
_geom_bond_atom_site_label_1
_geom_bond_atom_site_label_2
_ccdc_geom_bond_type
C107  H113  S    
C37   C104  S    
C77   H45   S    
C92   C93   S    
C109  H108  S    
O17   V3    S    
C62   H8    S    
C91   H66   S    
C16   C47   S    
O12   V1    S    
O19   V1    S    
C103  H94   S    
C83   O25   D    
C22   C72   S    
C45   C53   S    
C66   C67   S    
C10   C18   S    
C69   H35   S    
C97   H79   S    
C99   C100  S    
C87   O34   S    
C47   C55   S    
C81   O21   D    
C12   C43   S    
C41   C49   S    
O15   V4    S    
C95   C96   S    
O16   V3    S    
O18   V4    S    
O11   C3    A    
C82   O23   D    
C14   C86   S    
C105  H104  S    
O12   C4    A    
O8    V1    S    
C11   C44   S    
C66   H27   S    
C27   C51   T    
C17   C34   S    
C40   C107  S    
C96   H82   S    
C97   H80   S    
C20   C44   S    
C107  C108  S    
C71   H30   S    
C46   C54   S    
O6    C7    A    
C20   C35   S    
C73   H40   S    
C77   H43   S    
C42   C50   S    
C21   C38   S    
O1    V3    S    
C100  H88   S    
C89   H70   S    
C105  C106  S    
C38   C46   S    
O3    C2    A    
O2    V4    S    
C18   C60   S    
C70   H32   S    
C88   O36   S    
C16   C24   S    
C26   C50   T    
C72   H42   S    
C35   C43   S    
C95   H84   S    
C34   C42   S    
C104  C105  S    
C90   H69   S    
C16   C88   S    
O22   H57   S    
O11   V2    S    
C111  C112  S    
C85   O30   S    
C93   H75   S    
C9    C42   S    
C74   H38   S    
C9    C33   S    
C15   C48   S    
C64   H19   S    
C20   C66   S    
C108  H111  S    
C60   H14   S    
C80   H51   S    
C10   C82   S    
C11   C19   S    
C101  C102  S    
C106  H102  S    
O9    V1    S    
C91   H67   S    
C57   H6    S    
C19   C43   S    
C110  H119  S    
C90   C91   S    
C14   C45   S    
C12   C84   S    
O16   C8    A    
C38   C101  S    
C84   O27   D    
C13   C46   S    
C97   H81   S    
C83   O26   S    
C92   H77   S    
C82   O24   S    
C24   C48   S    
C10   C41   S    
C67   C68   S    
C81   O22   S    
O24   H58   S    
C98   H91   S    
C75   H49   S    
C57   C58   S    
O5    V1    S    
C70   C71   S    
C84   O28   S    
O17   V1    S    
C11   C35   S    
C79   H54   S    
C104  H105  S    
C105  H103  S    
C22   C37   S    
C21   C45   S    
C64   C65   S    
C63   C64   S    
C76   H47   S    
C71   H29   S    
C18   C42   S    
C98   C99   S    
C86   O32   S    
C33   C41   S    
C60   C61   S    
C106  H100  S    
C96   C97   S    
C73   C74   S    
C24   C39   S    
C17   C41   S    
C21   C69   S    
C73   H39   S    
C86   O31   D    
C15   C23   S    
O19   V3    S    
C88   O35   D    
C18   C33   S    
C89   H71   S    
O36   H64   S    
C39   C110  S    
C66   H28   S    
C78   H55   S    
C65   H17   S    
C9    C81   S    
C36   C95   S    
C19   C63   S    
O32   H62   S    
C108  C109  S    
C99   H90   S    
C31   C55   T    
C95   H85   S    
O10   V2    S    
C13   C37   S    
C59   H1    S    
O20   V4    S    
C78   C79   S    
C17   C57   S    
C33   C92   S    
C100  H86   S    
O13   C5    A    
C64   H18   S    
C65   H16   S    
C102  H97   S    
C79   C80   S    
C80   H52   S    
C10   C34   S    
C112  H115  S    
C1    C32   S    
C23   C47   S    
C69   C70   S    
C35   C98   S    
C19   C36   S    
C85   O29   D    
C57   H7    S    
C2    C31   S    
C3    C30   S    
O9    C1    A    
C110  H120  S    
O6    V2    S    
C39   C47   S    
C89   C90   S    
C62   H10   S    
C106  H101  S    
C28   C52   T    
C29   C53   T    
C11   C83   S    
C103  H95   S    
C25   C49   T    
C92   H78   S    
C12   C20   S    
C43   C51   S    
C102  C103  S    
O4    C1    A    
C13   C21   S    
C109  H107  S    
C23   C40   S    
C22   C46   S    
C13   C85   S    
C98   H92   S    
C74   H37   S    
C68   H22   S    
C112  H114  S    
C94   H74   S    
C101  H98   S    
C8    C25   S    
C77   H44   S    
C94   H72   S    
C79   H53   S    
C69   H34   S    
O1    C4    A    
C111  H118  S    
C104  H106  S    
C59   H2    S    
O2    C3    A    
C68   H23   S    
C76   H46   S    
O13   V3    S    
C111  H117  S    
O14   V4    S    
C4    C29   S    
C7    C26   S    
C72   C73   S    
O8    C5    A    
C71   H31   S    
O18   V2    S    
O30   H61   S    
C44   C52   S    
O7    C6    A    
C15   C39   S    
C75   H48   S    
C34   C89   S    
C32   C56   T    
C67   H25   S    
C37   C45   S    
C78   H56   S    
C68   H24   S    
O20   V2    S    
C63   H21   S    
C9    C17   S    
O34   H63   S    
C48   C56   S    
O28   H60   S    
C96   H83   S    
C75   C76   S    
C14   C22   S    
C67   H26   S    
O14   C6    A    
C87   O33   D    
C74   H36   S    
O5    C8    A    
C108  H110  S    
O10   C2    A    
C58   H5    S    
C16   C40   S    
C110  C111  S    
O15   C7    A    
C61   C62   S    
C100  H87   S    
C30   C54   T    
C23   C75   S    
C102  H96   S    
C40   C48   S    
C70   H33   S    
O3    V4    S    
C112  H116  S    
O26   H59   S    
C109  H109  S    
O4    V3    S    
C72   H41   S    
C103  H93   S    
C61   H12   S    
C91   H65   S    
C15   C87   S    
C90   H68   S    
C101  H99   S    
C59   H3    S    
C61   H11   S    
C93   C94   S    
C36   C44   S    
C62   H9    S    
C58   C59   S    
C24   C78   S    
C93   H76   S    
C65   H15   S    
O7    V2    S    
C12   C36   S    
C76   C77   S    
C107  H112  S    
C60   H13   S    
C80   H50   S    
C99   H89   S    
C94   H73   S    
C63   H20   S    
C5    C28   S    
C58   H4    S    
C6    C27   S    
C14   C38   S    
