data_mof_unit_5578.cif
_audit_creation_date              2012-12-11T16:33:29-0500
_audit_creation_method            fapswitch 2.2
_symmetry_space_group_name_H-M    P1
_symmetry_Int_Tables_number       1
_space_group_crystal_system       triclinic
_cell_length_a                    6.950821
_cell_length_b                    18.337328
_cell_length_c                    20.139814
_cell_angle_alpha                 68.274979
_cell_angle_beta                  90.625139
_cell_angle_gamma                 90.78197
_cell_volume                      2384.40865353

loop_
_atom_site_label
_atom_site_type_symbol
_atom_type_description
_atom_site_fract_x
_atom_site_fract_y
_atom_site_fract_z
_atom_type_partial_charge
O1    O     O_R   0.488960 0.443750 0.941980 -0.531903
O2    O     O_R   0.823890 0.406510 0.087590 -0.533392
O3    O     O_R   0.999680 0.556250 0.058020 -0.527465
C1    C     C_R   0.655168 0.384586 0.115554 0.803925
O4    O     O_R   0.818360 0.434410 0.944340 -0.531209
O5    O     O_R   0.994110 0.584350 0.913750 -0.539252
C2    C     C_R   0.648866 0.420213 0.924162 0.701253
O6    O     O_R   0.494530 0.415650 0.086250 -0.540686
O7    O     O_3   0.662590 0.549160 0.990130 -0.365904
V1    V     V_3+5 0.935320 0.490880 0.001830 1.512257
O8    O     O_R   0.324180 0.593490 0.912410 -0.541154
C3    C     C_R   0.155190 0.615135 0.883954 0.683091
O9    O     O_R   0.329720 0.565590 0.055660 -0.529304
C4    C     C_R   0.162471 0.578494 0.076939 0.729639
V2    V     V_3+5 0.435990 0.509120 0.998170 1.509134
O10   O     O_3   0.158850 0.450840 0.009870 -0.365329
C5    C     C_3   0.034543 0.700638 0.315094 -0.205692
C6    C     C_3   0.224338 0.677510 0.289317 0.406821
C7    C     C_1   0.157680 0.621355 0.124451 -0.131708
C8    C     C_1   0.107694 0.872676 0.379864 -0.131024
C9    C     C_3   0.952584 0.724881 0.238026 -0.174337
C10   C     C_3   0.143358 0.701383 0.212621 -0.056759
C11   C     C_3   0.033256 0.808828 0.220357 0.333225
C12   C     C_3   0.114806 0.785344 0.297371 -0.025573
C13   C     C_3   0.223278 0.785730 0.194615 -0.199779
C14   C     C_3   0.303861 0.761323 0.271523 0.275326
C15   C     C_1   0.153131 0.656819 0.164636 0.097126
C16   C     C_1   0.109503 0.833238 0.342835 0.101015
C17   C     C_R   0.080847 0.768075 0.881539 -0.194479
C18   C     C_R   0.044123 0.840496 0.885578 0.287394
C19   C     C_R   0.042516 0.908354 0.822577 0.248697
C20   C     C_R   0.061321 0.901199 0.755251 0.283551
C21   C     C_R   0.094701 0.825884 0.751055 -0.034276
C22   C     C_R   0.106804 0.758706 0.815659 -0.054420
C23   C     C_R   0.120667 0.816071 0.684575 -0.114630
C24   C     C_R   0.162465 0.740777 0.683418 0.041915
C25   C     C_R   0.167528 0.672879 0.747785 -0.035328
C26   C     C_R   0.143154 0.682865 0.814519 -0.104134
C27   C     C_R   0.199064 0.732713 0.617558 -0.231256
C28   C     C_R   0.240389 0.660670 0.613360 -0.076618
C29   C     C_R   0.237370 0.592260 0.675517 0.360750
C30   C     C_R   0.196148 0.597858 0.741839 -0.111204
H1    H     H_    0.085347 0.718558 0.931815 0.142860
H2    H     H_    0.198204 0.783038 0.567778 0.107336
H3    H     H_    0.830045 0.355928 0.428220 0.139679
C31   C     C_R   0.527927 0.102058 0.245932 -0.105932
C32   C     C_R   0.456950 0.098574 0.181205 -0.059989
C33   C     C_R   0.459144 0.165521 0.118817 -0.043508
C34   C     C_R   0.526289 0.235983 0.121052 -0.191309
C35   C     C_R   0.582157 0.243748 0.185976 0.048638
C36   C     C_R   0.578181 0.176542 0.250746 0.006573
C37   C     C_R   0.643432 0.317975 0.185429 -0.125513
C38   C     C_R   0.690093 0.328614 0.250475 -0.089381
C39   C     C_R   0.682492 0.262161 0.316614 -0.018845
C40   C     C_R   0.624507 0.186291 0.316684 -0.152525
C41   C     C_R   0.739880 0.404784 0.251171 0.318684
C42   C     C_R   0.794315 0.413271 0.315475 0.319880
C43   C     C_R   0.790182 0.348299 0.379009 -0.306466
C44   C     C_R   0.732182 0.274061 0.381138 0.317082
H4    H     H_    0.530694 0.285254 0.070576 0.096176
O11   O     O_R   0.770540 0.084530 0.414050 -0.523790
O12   O     O_R   0.445710 0.065660 0.555720 -0.527394
O13   O     O_R   0.270420 0.915650 0.586190 -0.542212
C45   C     C_R   0.614531 0.078100 0.577598 0.786772
O14   O     O_R   0.441140 0.093540 0.412470 -0.544391
O15   O     O_R   0.265820 0.943740 0.441930 -0.534522
C46   C     C_R   0.610644 0.117514 0.385500 0.816361
O16   O     O_R   0.775150 0.056440 0.558310 -0.520935
O17   O     O_3   0.602370 0.950960 0.510050 -0.372520
V3    V     V_3+5 0.329450 0.009140 0.498150 1.528140
O18   O     O_R   0.935790 0.934280 0.444060 -0.530578
C47   C     C_R   0.103281 0.919906 0.423987 0.694606
O19   O     O_R   0.940370 0.906390 0.587310 -0.537743
C48   C     C_R   0.109338 0.884232 0.615432 0.791781
V4    V     V_3+5 0.828810 0.990710 0.501460 1.538897
O20   O     O_3   0.105780 0.049100 0.489960 -0.362928
C49   C     C_3   0.699952 0.320974 0.715209 -0.211462
C50   C     C_3   0.516880 0.284462 0.695329 0.240423
C51   C     C_1   0.622175 0.123244 0.623208 -0.168248
C52   C     C_1   0.639723 0.374145 0.879431 -0.127809
C53   C     C_3   0.805546 0.242948 0.729094 0.294471
C54   C     C_3   0.623401 0.206763 0.708450 -0.025892
C55   C     C_3   0.743764 0.212041 0.808320 -0.163066
C56   C     C_3   0.635994 0.290021 0.794697 -0.154025
C57   C     C_3   0.560196 0.176884 0.787478 0.302589
C58   C     C_3   0.453291 0.254079 0.774020 0.346489
C59   C     C_1   0.623061 0.160938 0.661555 0.115323
C60   C     C_1   0.637183 0.335977 0.841514 0.070751
O21   O     O_3   0.326153 0.608520 0.324691 -0.603509
H5    H     H_    0.371872 0.612499 0.370000 0.331239
O22   O     O_3   0.028031 0.982462 0.824985 -0.627111
H6    H     H_    0.085393 0.982052 0.870357 0.329354
O23   O     O_3   0.054835 0.967675 0.693345 -0.644595
H7    H     H_    0.013128 0.013866 0.703464 0.343093
C61   C     C_1   0.282869 0.659052 0.543828 0.320664
N1    N     N_1   0.317203 0.658006 0.488099 -0.342166
C62   C     C_1   0.173934 0.523492 0.800918 0.346489
N2    N     N_1   0.155600 0.463244 0.847060 -0.318822
C63   C     C_1   0.564179 0.027048 0.302860 0.254028
N3    N     N_1   0.593677 0.966468 0.347087 -0.310451
C64   C     C_1   0.380207 0.025839 0.178707 0.338853
N4    N     N_1   0.317318 0.968045 0.176784 -0.330185
C65   C     C_1   0.399269 0.162965 0.050641 0.320773
N5    N     N_1   0.352096 0.161078 0.996013 -0.300131
C66   C     C_1   0.931351 0.653417 0.380358 0.434965
N6    N     N_1   0.849820 0.616217 0.431796 -0.307593
O24   O     O_3   0.730230 0.470716 0.188807 -0.643964
H8    H     H_    0.760802 0.519215 0.197625 0.336687
O25   O     O_3   0.849753 0.486259 0.314984 -0.635688
H9    H     H_    0.883833 0.482147 0.364183 0.316443
O26   O     O_3   0.723659 0.213157 0.446693 -0.650740
H10   H     H_    0.766441 0.231333 0.485176 0.281698
O27   O     O_3   0.397014 0.321808 0.636652 -0.614759
H11   H     H_    0.346533 0.368320 0.644368 0.312943
C67   C     C_1   0.777866 0.399553 0.674729 0.405644
N7    N     N_1   0.839201 0.461542 0.642833 -0.311566
O28   O     O_3   0.268243 0.258622 0.798485 -0.587581
H12   H     H_    0.239106 0.315415 0.781191 0.317394
O29   O     O_3   0.484859 0.101893 0.824941 -0.599242
H13   H     H_    0.453017 0.101279 0.872998 0.328986
C68   C     C_1   0.867870 0.170544 0.869711 0.493353
N8    N     N_1   0.965489 0.137628 0.918182 -0.291168
O30   O     O_3   0.990856 0.236550 0.705669 -0.584658
H14   H     H_    0.985985 0.262701 0.652918 0.309154
O31   O     O_3   0.488625 0.778017 0.290589 -0.620951
H15   H     H_    0.500407 0.836011 0.271093 0.323890
C69   C     C_1   0.325983 0.831013 0.128583 0.448499
N9    N     N_1   0.407010 0.866557 0.076504 -0.306251
O32   O     O_3   0.930571 0.877522 0.184707 -0.608579
H16   H     H_    0.896404 0.875620 0.137462 0.308483
C70   C     C_1   0.765631 0.702480 0.216594 0.453466
N10   N     N_1   0.620273 0.683833 0.198972 -0.319562
O33   O     O_3   0.271917 0.518441 0.674155 -0.646720
H17   H     H_    0.298447 0.521865 0.624967 0.302447
O34   O     O_3   0.008891 0.842119 0.952349 -0.635716
H18   H     H_    0.927107 0.887799 0.946908 0.312335

loop_
_geom_bond_atom_site_label_1
_geom_bond_atom_site_label_2
_ccdc_geom_bond_type
C31   C63   S    
C23   C48   S    
C64   N4    T    
C32   C64   S    
O19   C48   A    
C61   N1    T    
C6    C14   S    
C1    O6    A    
C29   O33   S    
C53   C54   S    
O34   H18   S    
C49   C50   S    
O11   V4    S    
O16   V4    S    
O12   V3    S    
O23   H7    S    
C34   H4    S    
C53   O30   S    
C55   C56   S    
C45   O16   A    
C24   C25   A    
C25   C26   A    
C56   C58   S    
O32   H16   S    
O5    C3    A    
C18   C19   A    
C49   C67   S    
O14   V3    S    
C41   C42   A    
C11   O32   S    
C5    C6    S    
C29   C30   A    
C25   C30   A    
C57   O29   S    
O11   C46   A    
C9    C70   S    
O12   C45   A    
C39   C40   A    
O8    V2    S    
O15   C47   A    
C32   C33   A    
O14   C46   A    
C10   C13   S    
C44   O26   S    
O24   H8    S    
O1    V2    S    
C6    C10   S    
C7    C15   T    
O7    V1    S    
C50   C58   S    
C20   O23   S    
O1    C2    A    
O9    C4    A    
C17   H1    S    
O19   V4    S    
O17   V3    S    
O31   H15   S    
C51   C59   T    
C53   C55   S    
C62   N2    T    
C39   C44   A    
C24   C27   A    
C42   O25   S    
H3    C43   S    
C5    C12   S    
C13   C69   S    
O8    C3    A    
C56   C60   S    
O30   H14   S    
C30   C62   S    
O22   H6    S    
O4    C2    A    
C8    C16   T    
C49   C56   S    
C35   C36   A    
C13   C14   S    
C57   C58   S    
C33   C65   S    
C31   C36   A    
C5    C9    S    
C14   O31   S    
O2    C1    A    
V4    O20   S    
C41   O24   S    
C17   C18   A    
C5    C66   S    
C50   C54   S    
C35   C37   A    
C63   N3    T    
O13   V3    S    
C49   C53   S    
C11   C12   S    
C21   C22   A    
C55   C68   S    
C68   N8    T    
O3    C4    A    
C28   C29   A    
C55   C57   S    
C1    C37   S    
C18   O34   S    
O6    V2    S    
C19   O22   S    
C10   C15   S    
O9    V2    S    
V3    O20   S    
O33   H17   S    
C45   C51   S    
C54   C59   S    
C50   O27   S    
C28   C61   S    
C69   N9    T    
O2    V1    S    
C27   C28   A    
C37   C38   A    
O27   H11   S    
C38   C41   A    
C31   C32   A    
C33   C34   A    
O26   H10   S    
C22   C26   A    
C6    O21   S    
C4    C7    S    
C19   C20   A    
C12   C16   S    
C12   C14   S    
O5    V1    S    
C40   C46   S    
O29   H13   S    
C38   C39   A    
C27   H2    S    
O13   C48   A    
C54   C57   S    
C66   N6    T    
C20   C21   A    
C9    C11   S    
C43   C44   A    
O4    V1    S    
C52   C60   T    
O3    V1    S    
V1    O10   S    
O28   H12   S    
O18   V4    S    
C42   C43   A    
O15   V3    S    
C17   C22   A    
C21   C23   A    
O17   V4    S    
C58   O28   S    
C36   C40   A    
C11   C13   S    
C3    C26   S    
C70   N10   T    
O18   C47   A    
C34   C35   A    
O25   H9    S    
C65   N5    T    
C8    C47   S    
C23   C24   A    
C67   N7    T    
O21   H5    S    
C9    C10   S    
V2    O10   S    
O7    V2    S    
C2    C52   S    
