data_mof_unit_9310.cif
_audit_creation_date              2012-12-11T14:14:38-0500
_audit_creation_method            fapswitch 2.2
_symmetry_space_group_name_H-M    P1
_symmetry_Int_Tables_number       1
_space_group_crystal_system       triclinic
_cell_length_a                    24.520098
_cell_length_b                    17.339356
_cell_length_c                    15.570606
_cell_angle_alpha                 90.000193
_cell_angle_beta                  129.18749
_cell_angle_gamma                 89.999836
_cell_volume                      5131.07773012

loop_
_atom_site_label
_atom_site_type_symbol
_atom_type_description
_atom_site_fract_x
_atom_site_fract_y
_atom_site_fract_z
_atom_type_partial_charge
C1    C     C_R   0.333333 0.391746 0.201634 -0.121274
C2    C     C_R   0.666667 0.391747 0.798369 -0.121285
C3    C     C_R   0.833333 0.891747 0.201632 -0.121279
C4    C     C_R   0.166667 0.891747 0.798368 -0.121276
C5    C     C_R   0.387114 0.600630 0.593050 -0.125842
C6    C     C_R   0.612885 0.600633 0.406950 -0.125865
C7    C     C_R   0.887114 0.100631 0.593050 -0.125850
C8    C     C_R   0.112885 0.100632 0.406950 -0.125849
C9    C     C_R   0.318218 0.614166 0.501899 0.138174
C10   C     C_R   0.681781 0.614169 0.498101 0.138189
C11   C     C_R   0.818218 0.114166 0.501899 0.138192
C12   C     C_R   0.181781 0.114169 0.498102 0.138185
C13   C     C_R   0.383067 0.682586 0.212088 0.149910
C14   C     C_R   0.616932 0.682587 0.787910 0.149915
C15   C     C_R   0.883067 0.182586 0.212088 0.149913
C16   C     C_R   0.116932 0.182586 0.787911 0.149913
C17   C     C_2   0.727903 0.657246 0.407604 -0.113060
C18   C     C_2   0.272098 0.657246 0.592397 -0.113021
C19   C     C_2   0.227898 0.157255 0.407603 -0.113036
C20   C     C_2   0.772096 0.157242 0.592397 -0.113055
C21   C     C_2   0.739985 0.631709 0.499216 -0.210520
C22   C     C_2   0.260014 0.631706 0.500785 -0.210557
C23   C     C_2   0.239983 0.131715 0.499215 -0.210541
C24   C     C_2   0.760014 0.131705 0.500785 -0.210527
C25   C     C_2   0.272232 0.217529 0.415100 -0.121529
C26   C     C_2   0.727757 0.217511 0.584899 -0.121472
C27   C     C_2   0.772242 0.717514 0.415103 -0.121495
C28   C     C_2   0.227760 0.717516 0.584899 -0.121507
C29   C     C_2   0.303493 0.269414 0.497629 -0.193392
C30   C     C_2   0.696496 0.269396 0.502371 -0.193503
C31   C     C_2   0.803501 0.769401 0.497628 -0.193452
C32   C     C_2   0.196498 0.769401 0.502369 -0.193432
C33   C     C_2   0.692502 0.341122 0.974002 -0.223587
C34   C     C_2   0.307497 0.341121 0.025998 -0.223581
C35   C     C_2   0.192503 0.841124 0.974004 -0.223585
C36   C     C_2   0.807497 0.841123 0.025996 -0.223587
C37   C     C_2   0.762426 0.343076 0.035754 -0.110714
C38   C     C_2   0.237573 0.343075 0.964248 -0.110715
C39   C     C_2   0.262427 0.843077 0.035754 -0.110715
C40   C     C_2   0.737573 0.843076 0.964247 -0.110713
C41   C     C_2   0.358249 0.754916 0.150275 -0.218334
C42   C     C_2   0.641750 0.754918 0.849722 -0.218334
C43   C     C_2   0.858248 0.254917 0.150276 -0.218333
C44   C     C_2   0.141750 0.254917 0.849723 -0.218335
C45   C     C_R   0.605847 0.376590 0.409229 0.216176
C46   C     C_R   0.394153 0.376596 0.590775 0.216091
C47   C     C_R   0.105846 0.876591 0.409226 0.216121
C48   C     C_R   0.894154 0.876592 0.590773 0.216140
C49   C     C_2   0.304507 0.792979 0.132031 -0.106016
C50   C     C_2   0.695493 0.792978 0.867969 -0.106017
C51   C     C_2   0.804506 0.292978 0.132030 -0.106019
C52   C     C_2   0.195492 0.292978 0.867970 -0.106017
C53   C     C_R   0.673682 0.368838 0.593662 -0.183441
C54   C     C_R   0.326312 0.368847 0.406340 -0.183492
C55   C     C_R   0.173684 0.868841 0.593661 -0.183467
C56   C     C_R   0.826317 0.868840 0.406339 -0.183467
C57   C     C_R   0.577004 0.388653 0.799829 -0.164039
C58   C     C_R   0.422995 0.388653 0.200169 -0.164035
C59   C     C_R   0.077005 0.888655 0.799831 -0.164039
C60   C     C_R   0.922995 0.888655 0.200169 -0.164036
C61   C     C_R   0.353222 0.369012 0.140132 0.154307
C62   C     C_R   0.646777 0.369013 0.859869 0.154316
C63   C     C_R   0.853222 0.869014 0.140130 0.154312
C64   C     C_R   0.146778 0.869014 0.859870 0.154311
C65   C     C_R   0.660546 0.335750 0.501661 0.115227
C66   C     C_R   0.339446 0.335763 0.498341 0.115288
C67   C     C_R   0.160548 0.835753 0.501659 0.115255
C68   C     C_R   0.839452 0.835753 0.498340 0.115251
C69   C     C_R   0.312334 0.600497 0.409436 -0.154314
C70   C     C_R   0.687666 0.600498 0.590564 -0.154296
C71   C     C_R   0.812334 0.100496 0.409436 -0.154306
C72   C     C_R   0.187666 0.100498 0.590564 -0.154313
C73   C     C_R   0.441615 0.641632 0.242954 -0.151066
C74   C     C_R   0.558384 0.641632 0.757045 -0.151071
C75   C     C_R   0.941615 0.141632 0.242954 -0.151069
C76   C     C_R   0.058385 0.141632 0.757045 -0.151069
C77   C     C_R   0.649955 0.639872 0.756553 -0.119564
C78   C     C_R   0.350044 0.639872 0.243446 -0.119563
C79   C     C_R   0.149955 0.139872 0.756554 -0.119563
C80   C     C_R   0.850044 0.139872 0.243446 -0.119563
H1    H     H_    0.280590 0.394612 0.174677 0.079427
H2    H     H_    0.719410 0.394614 0.825327 0.079428
H3    H     H_    0.780590 0.894614 0.174674 0.079427
H4    H     H_    0.219410 0.894614 0.825326 0.079426
H5    H     H_    0.791426 0.638643 0.579880 0.134486
H6    H     H_    0.208573 0.638640 0.420121 0.134487
H7    H     H_    0.291424 0.138652 0.579879 0.134483
H8    H     H_    0.708573 0.138638 0.420121 0.134486
H9    H     H_    0.271591 0.224963 0.345244 0.126466
H10   H     H_    0.728398 0.224943 0.654754 0.126464
H11   H     H_    0.771605 0.724945 0.345251 0.126468
H12   H     H_    0.228403 0.724951 0.654757 0.126461
H13   H     H_    0.303600 0.262848 0.566850 0.143672
H14   H     H_    0.696390 0.262830 0.433152 0.143697
H15   H     H_    0.803605 0.762836 0.566845 0.143684
H16   H     H_    0.196388 0.762833 0.433145 0.143672
H17   H     H_    0.283452 0.776351 0.173194 0.127581
H18   H     H_    0.716549 0.776349 0.826807 0.127582
H19   H     H_    0.783450 0.276349 0.173193 0.127583
H20   H     H_    0.216548 0.276350 0.826808 0.127582
H21   H     H_    0.787525 0.370405 0.006028 0.125284
H22   H     H_    0.212474 0.370403 0.993976 0.125284
H23   H     H_    0.287526 0.870404 0.006026 0.125284
H24   H     H_    0.712474 0.870404 0.993974 0.125284
H25   H     H_    0.378452 0.771660 0.107740 0.128665
H26   H     H_    0.621545 0.771663 0.892255 0.128665
H27   H     H_    0.878452 0.271661 0.107741 0.128665
H28   H     H_    0.121545 0.271662 0.892256 0.128666
H29   H     H_    0.668152 0.312901 0.004621 0.130222
H30   H     H_    0.331845 0.312901 0.995378 0.130226
H31   H     H_    0.168154 0.812904 0.004624 0.130224
H32   H     H_    0.831846 0.812903 0.995376 0.130223
H33   H     H_    0.716273 0.356204 0.679701 0.107669
H34   H     H_    0.283717 0.356217 0.320300 0.107674
H35   H     H_    0.216277 0.856208 0.679700 0.107672
H36   H     H_    0.783724 0.856207 0.320300 0.107674
H37   H     H_    0.549693 0.388310 0.833003 0.090716
H38   H     H_    0.450301 0.388311 0.166990 0.090716
H39   H     H_    0.049697 0.888315 0.833009 0.090717
H40   H     H_    0.950303 0.888314 0.166992 0.090717
H41   H     H_    0.263691 0.595149 0.325438 0.090345
H42   H     H_    0.736309 0.595150 0.674562 0.090342
H43   H     H_    0.763690 0.095148 0.325438 0.090344
H44   H     H_    0.236309 0.095151 0.674563 0.090343
H45   H     H_    0.478530 0.658188 0.230219 0.099472
H46   H     H_    0.521469 0.658190 0.769778 0.099469
H47   H     H_    0.978530 0.158189 0.230220 0.099470
H48   H     H_    0.021469 0.158189 0.769779 0.099470
H49   H     H_    0.697604 0.653711 0.769552 0.089237
H50   H     H_    0.302396 0.653711 0.230447 0.089238
H51   H     H_    0.197604 0.153711 0.769552 0.089236
H52   H     H_    0.802396 0.153711 0.230448 0.089238
H53   H     H_    0.407739 0.594565 0.677908 0.087909
H54   H     H_    0.592259 0.594571 0.322091 0.087877
H55   H     H_    0.907740 0.094568 0.677909 0.087887
H56   H     H_    0.092260 0.094569 0.322091 0.087890
H57   H     H_    0.678357 0.646472 0.325922 0.118985
H58   H     H_    0.321644 0.646473 0.674078 0.118991
H59   H     H_    0.178353 0.146479 0.325922 0.118989
H60   H     H_    0.821642 0.146468 0.674078 0.118988
N1    N     N_R   0.389060 0.424180 0.294540 -0.041250
N2    N     N_R   0.610940 0.424180 0.705460 -0.041251
N3    N     N_R   0.889060 0.924180 0.294540 -0.041250
N4    N     N_R   0.110940 0.924180 0.705460 -0.041250
N5    N     N_R   0.579670 0.423790 0.443360 -0.068194
N6    N     N_R   0.420330 0.423790 0.556640 -0.068196
N7    N     N_R   0.079670 0.923790 0.443360 -0.068196
N8    N     N_R   0.920330 0.923790 0.556640 -0.068198
N9    N     N_R   0.625470 0.423490 0.556600 -0.052642
N10   N     N_R   0.374530 0.423490 0.443400 -0.052638
N11   N     N_R   0.125470 0.923490 0.556600 -0.052639
N12   N     N_R   0.874530 0.923490 0.443400 -0.052640
N13   N     N_R   0.555250 0.423100 0.705420 -0.045839
N14   N     N_R   0.444750 0.423100 0.294580 -0.045841
N15   N     N_R   0.055250 0.923100 0.705420 -0.045839
N16   N     N_R   0.944750 0.923100 0.294580 -0.045839
N17   N     N_R   0.375210 0.577180 0.443400 -0.037663
N18   N     N_R   0.624790 0.577180 0.556600 -0.037665
N19   N     N_R   0.875210 0.077180 0.443400 -0.037665
N20   N     N_R   0.124790 0.077180 0.556600 -0.037663
N21   N     N_R   0.445430 0.577570 0.294580 -0.042479
N22   N     N_R   0.554570 0.577570 0.705420 -0.042480
N23   N     N_R   0.945430 0.077570 0.294580 -0.042480
N24   N     N_R   0.054570 0.077570 0.705420 -0.042480
N25   N     N_R   0.611620 0.576500 0.705460 -0.043416
N26   N     N_R   0.388380 0.576500 0.294540 -0.043416
N27   N     N_R   0.111620 0.076500 0.705460 -0.043415
N28   N     N_R   0.888380 0.076500 0.294540 -0.043416
N29   N     N_R   0.421010 0.576890 0.556640 -0.041027
N30   N     N_R   0.578990 0.576890 0.443360 -0.041021
N31   N     N_R   0.921010 0.076890 0.556640 -0.041026
N32   N     N_R   0.078990 0.076890 0.443360 -0.041025
Ni1   Ni    Ni4+2 0.383200 0.500680 0.370150 0.206470
Ni2   Ni    Ni4+2 0.616800 0.500680 0.629850 0.206475
Ni3   Ni    Ni4+2 0.883200 0.000680 0.370150 0.206473
Ni4   Ni    Ni4+2 0.116800 0.000680 0.629850 0.206473
Ni5   Ni    Ni4+2 0.512440 0.500680 0.370150 0.203226
Ni6   Ni    Ni4+2 0.487560 0.500680 0.629850 0.203218
Ni7   Ni    Ni4+2 0.012440 0.000680 0.370150 0.203220
Ni8   Ni    Ni4+2 0.987560 0.000680 0.629850 0.203221
C81   C     C_3   0.593704 0.386836 0.302320 -0.426955
C82   C     C_3   0.659345 0.416881 0.321623 -0.899519
H61   H     H_    0.678366 0.470653 0.371578 0.267664
H62   H     H_    0.702358 0.373833 0.364697 0.255418
H63   H     H_    0.646183 0.429988 0.240595 0.248203
H64   H     H_    0.576011 0.331668 0.255632 0.186718
H65   H     H_    0.553249 0.431877 0.252336 0.194090
C83   C     C_3   0.406299 0.386858 0.697684 -0.426886
C84   C     C_3   0.340651 0.416892 0.678373 -0.899510
H66   H     H_    0.321511 0.470552 0.628167 0.267700
H67   H     H_    0.297710 0.373754 0.635566 0.255366
H68   H     H_    0.353854 0.430195 0.759380 0.248196
H69   H     H_    0.424010 0.331701 0.744402 0.186702
H70   H     H_    0.446745 0.431913 0.747640 0.194071
C85   C     C_3   0.093700 0.886844 0.302315 -0.426930
C86   C     C_3   0.159348 0.916871 0.321620 -0.899413
H71   H     H_    0.178440 0.970584 0.371713 0.267675
H72   H     H_    0.202315 0.873761 0.364548 0.255368
H73   H     H_    0.146164 0.930078 0.240595 0.248174
H74   H     H_    0.075990 0.831683 0.255607 0.186705
H75   H     H_    0.053255 0.931899 0.252352 0.194078
C87   C     C_3   0.906304 0.886838 0.697688 -0.426929
C88   C     C_3   0.840658 0.916858 0.678396 -0.899518
H76   H     H_    0.821577 0.970583 0.628341 0.267689
H77   H     H_    0.797687 0.873761 0.635438 0.255392
H78   H     H_    0.853838 0.930033 0.759425 0.248187
H79   H     H_    0.924018 0.831677 0.744394 0.186714
H80   H     H_    0.946746 0.931895 0.747651 0.194089

loop_
_geom_bond_atom_site_label_1
_geom_bond_atom_site_label_2
_ccdc_geom_bond_type
N28   Ni3   S    
C15   C75   A    
C88   H76   S    
C80   H52   S    
C7    N31   A    
C8    H56   S    
C35   C39   D    
N3    Ni3   S    
C13   C41   S    
C81   H65   S    
C45   C81   S    
C57   C62   A    
C54   N10   A    
C74   H46   S    
C81   C82   S    
C7    C11   A    
C88   H77   S    
C12   C23   S    
C59   C64   A    
C41   H25   S    
C60   C63   A    
C45   N5    A    
C14   C74   A    
C47   C85   S    
C17   H57   S    
C9    C69   A    
C46   C66   A    
C37   C51   S    
N16   Ni7   S    
C11   C71   A    
C9    C22   S    
C38   C52   S    
C77   N25   A    
N22   N25   A    
C48   C87   S    
C11   C24   S    
C58   H38   S    
N6    Ni6   S    
C18   H58   S    
N9    Ni2   S    
C14   C77   A    
C41   C49   D    
C84   H67   S    
C82   H61   S    
C73   N21   A    
C58   N14   A    
N17   N29   A    
N6    N10   A    
N12   Ni3   S    
C54   H34   S    
N18   Ni2   S    
C20   C24   D    
C33   C62   S    
C36   H32   S    
C69   N17   A    
C27   H11   S    
C35   C64   S    
C69   H41   S    
C56   N12   A    
C36   C63   S    
C53   C65   A    
C16   C44   S    
N21   N26   A    
N24   Ni8   S    
C14   C42   S    
C44   C52   D    
C58   C61   A    
C16   C76   A    
C12   C72   A    
C83   H70   S    
N8    Ni8   S    
C87   H80   S    
C72   H44   S    
C53   N9    A    
N20   Ni4   S    
C86   H73   S    
C47   C67   A    
C29   H13   S    
C53   H33   S    
C47   N7    A    
C44   H28   S    
C10   C21   S    
C25   C29   D    
C31   C68   S    
C88   H78   S    
C21   H5    S    
C78   N26   A    
C50   H18   S    
C87   C88   S    
N30   Ni5   S    
C27   C31   D    
N13   Ni6   S    
C17   C27   S    
C28   C32   D    
C3    N3    A    
C86   H72   S    
C74   N22   A    
C59   N15   A    
N18   N30   A    
C56   H36   S    
C77   H49   S    
C23   H7    S    
C6    C10   A    
N25   Ni2   S    
C56   C68   A    
C57   N13   A    
C52   H20   S    
C34   C61   S    
C33   C37   D    
C29   C66   S    
C83   C84   S    
C70   N18   A    
C82   H63   S    
C84   H68   S    
C19   C23   D    
C60   N16   A    
C76   N24   A    
C5    C9    A    
C40   H24   S    
C51   H19   S    
C24   H8    S    
C70   H42   S    
C15   C80   A    
C4    H4    S    
C36   C40   D    
C8    C12   A    
C79   H51   S    
N4    Ni4   S    
N20   N32   A    
C18   C28   S    
C28   H12   S    
C43   H27   S    
C48   C68   A    
C55   N11   A    
C42   H26   S    
N19   N31   A    
C42   C50   D    
C32   C67   S    
C85   H75   S    
C10   C70   A    
C75   N23   A    
C19   H59   S    
C39   C49   S    
C13   C73   A    
C83   H69   S    
C26   C30   D    
C3    C63   A    
C87   H79   S    
N1    Ni1   S    
C3    H3    S    
C2    N2    A    
N31   Ni8   S    
C2    H2    S    
C33   H29   S    
N21   Ni5   S    
C73   H45   S    
C79   N27   A    
N29   Ni6   S    
C35   H31   S    
N15   Ni8   S    
N32   Ni7   S    
C57   H37   S    
C85   H74   S    
C6    N30   A    
C71   H43   S    
C13   C78   A    
N26   Ni1   S    
C59   H39   S    
N11   Ni4   S    
C32   H16   S    
C34   C38   D    
N24   N27   A    
N8    N12   A    
C86   H71   S    
C1    C61   A    
C4    N4    A    
C55   C67   A    
C81   H64   S    
C39   H23   S    
C54   C66   A    
C5    H53   S    
C26   H10   S    
C71   N19   A    
C4    C64   A    
C25   H9    S    
C72   N20   A    
C16   C79   A    
C45   C65   A    
C20   H60   S    
N4    N15   A    
C18   C22   D    
N23   N28   A    
C78   H50   S    
C15   C43   S    
C30   H14   S    
C37   H21   S    
C55   H35   S    
C43   C51   D    
N3    N16   A    
C46   N6    A    
C20   C26   S    
C31   H15   S    
N7    N11   A    
C48   N8    A    
C60   H40   S    
C75   H47   S    
C22   H6    S    
N2    N13   A    
C38   H22   S    
C84   H66   S    
C19   C25   S    
C82   H62   S    
N2    Ni2   S    
C30   C65   S    
C1    N1    A    
C7    H55   S    
C49   H17   S    
C85   C86   S    
N7    Ni7   S    
C40   C50   S    
N10   Ni1   S    
N22   Ni6   S    
C6    H54   S    
N14   Ni5   S    
N5    Ni5   S    
C2    C62   A    
C5    N29   A    
N19   Ni3   S    
C34   H30   S    
C46   C83   S    
N1    N14   A    
N23   Ni7   S    
C1    H1    S    
C80   N28   A    
N5    N9    A    
C8    N32   A    
N17   Ni1   S    
N27   Ni4   S    
C76   H48   S    
C17   C21   D    
