data_mof_unit_38531.cif
_audit_creation_date              2012-12-10T18:45:10-0500
_audit_creation_method            fapswitch 2.2
_symmetry_space_group_name_H-M    P1
_symmetry_Int_Tables_number       1
_space_group_crystal_system       triclinic
_cell_length_a                    10.70346
_cell_length_b                    9.89426
_cell_length_c                    10.883947
_cell_angle_alpha                 92.791337
_cell_angle_beta                  90.897302
_cell_angle_gamma                 90.740386
_cell_volume                      1151.02379354

loop_
_atom_site_label
_atom_site_type_symbol
_atom_type_description
_atom_site_fract_x
_atom_site_fract_y
_atom_site_fract_z
_atom_type_partial_charge
C1    C     C_R   0.263220 0.500354 0.522300 0.884723
C2    C     C_R   0.494723 0.502643 0.739718 0.870023
C3    C     C_R   0.671272 0.685184 0.127986 0.179602
C4    C     C_R   0.652497 0.686862 0.881626 0.143079
C5    C     C_R   0.700985 0.806230 0.070560 -0.258256
C6    C     C_R   0.671037 0.811689 0.944381 -0.159311
C7    C     C_R   0.572958 0.598363 0.939689 0.064354
C8    C     C_R   0.585009 0.592875 0.067773 0.005168
C9    C     C_R   0.523737 0.487175 0.126544 -0.117086
C10   C     C_R   0.494778 0.506752 0.872923 -0.112148
C11   C     C_R   0.460749 0.383104 0.055098 -0.109118
C12   C     C_R   0.741761 0.501700 0.500099 0.916194
C13   C     C_R   0.429337 0.406826 0.933074 -0.222906
C14   C     C_R   0.063454 0.380373 0.550087 -0.125968
C15   C     C_R   0.943294 0.383183 0.501466 -0.105787
C16   C     C_R   0.878310 0.507083 0.509339 -0.099169
C17   C     C_R   0.132585 0.501746 0.556819 -0.142373
C18   C     C_2   0.448576 0.242712 0.097317 0.999992
C19   C     C_2   0.327995 0.327605 0.868291 1.034033
C20   C     C_2   0.756346 0.923976 0.142603 1.063391
C21   C     C_2   0.589656 0.920815 0.904118 0.914765
C22   C     C_2   0.099568 0.263335 0.623316 1.107930
C23   C     C_R   0.943189 0.631042 0.545344 -0.171990
C24   C     C_2   0.897224 0.261266 0.426357 0.992412
C25   C     C_2   0.883182 0.767236 0.549474 0.954497
C26   C     C_2   0.142006 0.751831 0.614429 0.980735
C27   C     C_R   0.071554 0.626770 0.570103 -0.194609
C28   C     C_R   0.583917 0.075157 0.571261 0.208479
C29   C     C_R   0.413637 0.064622 0.431479 0.248487
C30   C     C_R   0.583358 0.932247 0.570613 0.020234
C31   C     C_R   0.415778 0.921908 0.430334 -0.048081
C32   C     C_R   0.508578 0.496331 0.259904 0.906999
H1    H     H_    0.647999 0.881041 0.628910 0.183839
H2    H     H_    0.104562 0.852946 0.461482 0.321144
H3    H     H_    0.348030 0.862488 0.375379 0.163326
H4    H     H_    0.528826 0.090509 0.185223 0.345940
H5    H     H_    0.444638 0.183715 0.808818 0.325195
H6    H     H_    0.855668 0.991325 0.000324 0.338029
H7    H     H_    0.430158 0.964067 0.811548 0.383083
H8    H     H_    0.049153 0.135685 0.753459 0.392495
H9    H     H_    0.903597 0.059088 0.393179 0.405277
H10   H     H_    0.932026 0.814543 0.727586 0.326485
I1    I     I_    0.823344 0.599883 0.219644 -0.179230
I2    I     I_    0.817047 0.582023 0.833115 -0.267363
I3    I     I_    0.713667 0.174183 0.694068 -0.126964
I4    I     I_    0.262982 0.142622 0.330320 -0.159399
N1    N     N_R   0.500000 0.857200 0.500000 -0.111231
N2    N     N_R   0.500000 0.142810 0.500000 -0.125599
O1    O     O_R   0.316770 0.614620 0.499990 -0.625051
O2    O     O_R   0.546464 0.187544 0.164313 -0.689339
O3    O     O_2   0.221562 0.370197 0.870307 -0.545019
O4    O     O_R   0.352325 0.204073 0.807261 -0.713800
O5    O     O_2   0.732271 0.940584 0.251451 -0.558903
O6    O     O_R   0.835347 0.017289 0.088875 -0.674435
O7    O     O_2   0.606870 0.037687 0.942281 -0.601450
O8    O     O_R   0.487861 0.886576 0.825880 -0.764881
O9    O     O_2   0.199086 0.206861 0.608906 -0.537283
O10   O     O_R   0.016262 0.216398 0.709620 -0.699035
O11   O     O_2   0.831862 0.274960 0.334701 -0.525332
O12   O     O_R   0.683230 0.614620 0.500010 -0.606520
O13   O     O_R   0.935414 0.131724 0.454950 -0.745057
O14   O     O_2   0.837300 0.809301 0.455799 -0.532488
O15   O     O_R   0.886870 0.853342 0.655400 -0.757868
O16   O     O_2   0.200246 0.752201 0.711812 -0.525591
O17   O     O_R   0.145047 0.867720 0.545893 -0.724168
O18   O     O_R   0.316800 0.385290 0.500000 -0.574583
O19   O     O_R   0.683200 0.385290 0.500000 -0.586698
O20   O     O_R   0.500010 0.614690 0.316770 -0.615229
O21   O     O_R   0.499990 0.614690 0.683230 -0.577695
O22   O     O_R   0.500040 0.385360 0.316770 -0.574825
O23   O     O_R   0.499960 0.385360 0.683230 -0.623937
O24   O     O_2   0.358412 0.171474 0.065809 -0.587128
Zn1   Zn    Zn3+2 0.500000 0.653120 0.500000 1.044835
Zn2   Zn    Zn3+2 0.500000 0.346880 0.500000 1.078155

loop_
_geom_bond_atom_site_label_1
_geom_bond_atom_site_label_2
_ccdc_geom_bond_type
C22   O10   S    
O23   Zn2   S    
C11   C18   S    
O22   Zn2   S    
C24   O13   S    
C23   C27   A    
C7    C10   A    
C2    O21   A    
C9    C11   A    
C21   O8    S    
N1    Zn1   S    
C1    C17   S    
H7    O8    S    
H6    O6    S    
H9    O13   S    
C29   I4    S    
C32   O20   A    
C14   C22   S    
C22   O9    D    
C28   C30   A    
C1    O18   A    
C8    C9    A    
C21   O7    D    
C7    C8    A    
C29   C31   A    
O19   Zn2   S    
C31   N1    A    
C6    C21   S    
O21   Zn1   S    
C11   C13   A    
C14   C17   A    
C3    I1    S    
C26   C27   S    
C19   O3    D    
C24   O11   D    
O12   Zn1   S    
C19   O4    S    
H2    O17   S    
C20   O6    S    
C15   C24   S    
C16   C23   A    
O1    Zn1   S    
C25   O14   D    
C23   C25   S    
C18   O24   D    
C5    C6    A    
C12   O19   A    
C31   H3    S    
C28   I3    S    
C9    C32   S    
H8    O10   S    
C15   C16   A    
C13   C19   S    
C29   N2    A    
C2    O23   A    
O18   Zn2   S    
N2    Zn2   S    
C30   N1    A    
H4    O2    S    
C18   O2    S    
C4    C6    A    
C3    C8    A    
C25   O15   S    
C12   O12   A    
C5    C20   S    
H5    O4    S    
C26   O16   D    
C14   C15   A    
C28   N2    A    
C32   O22   A    
C4    I2    S    
C30   H1    S    
C4    C7    A    
O20   Zn1   S    
C26   O17   S    
C1    O1    A    
H10   O15   S    
C2    C10   S    
C12   C16   S    
C20   O5    D    
C3    C5    A    
C10   C13   A    
C17   C27   A    
