data_mof_unit_41475.cif
_audit_creation_date              2012-12-10T18:57:49-0500
_audit_creation_method            fapswitch 2.2
_symmetry_space_group_name_H-M    P1
_symmetry_Int_Tables_number       1
_space_group_crystal_system       triclinic
_cell_length_a                    10.728927
_cell_length_b                    9.932079
_cell_length_c                    8.894361
_cell_angle_alpha                 89.709433
_cell_angle_beta                  92.91836
_cell_angle_gamma                 88.032396
_cell_volume                      945.978641801

loop_
_atom_site_label
_atom_site_type_symbol
_atom_type_description
_atom_site_fract_x
_atom_site_fract_y
_atom_site_fract_z
_atom_type_partial_charge
C1    C     C_R   0.260375 0.502649 0.513660 0.901192
C2    C     C_R   0.055694 0.627426 0.489648 -0.133761
C3    C     C_R   0.873022 0.492833 0.464476 -0.155873
C4    C     C_R   0.126033 0.508161 0.530284 -0.163830
C5    C     C_R   0.557941 0.068987 0.616418 -0.044515
C6    C     C_R   0.442696 0.931081 0.383056 -0.060460
C7    C     C_R   0.440708 0.074839 0.384736 -0.025704
C8    C     C_R   0.559211 0.925249 0.615340 -0.005757
C9    C     C_2   0.135675 0.274497 0.641239 1.036539
C10   C     C_2   0.860964 0.729712 0.360840 1.033353
C11   C     C_2   0.891413 0.237921 0.474712 1.056884
C12   C     C_R   0.739224 0.497566 0.484605 0.904295
C13   C     C_2   0.107902 0.763832 0.509540 1.071459
C14   C     C_2   0.616502 0.137934 0.747259 0.970769
C15   C     C_2   0.385995 0.862421 0.250707 0.952910
C16   C     C_2   0.367037 0.150637 0.265807 0.985657
C17   C     C_2   0.631617 0.849619 0.735440 0.989755
C18   C     C_R   0.499440 0.500239 0.218887 0.947452
C19   C     C_R   0.500597 0.499757 0.781112 0.942515
C20   C     C_1   0.499831 0.500331 0.065457 -0.094740
C21   C     C_1   0.500233 0.499667 0.934546 -0.097684
C22   C     C_R   0.067644 0.385238 0.553729 -0.102866
C23   C     C_R   0.930979 0.616142 0.441544 -0.094612
C24   C     C_R   0.943559 0.373482 0.502679 -0.134054
H1    H     H_    0.239642 0.221954 0.829208 0.372596
H2    H     H_    0.752403 0.788683 0.178816 0.365680
H3    H     H_    0.793856 0.119157 0.331421 0.366377
H4    H     H_    0.134059 0.947751 0.421441 0.389933
H5    H     H_    0.620749 0.168745 0.971288 0.369894
H6    H     H_    0.380625 0.837141 0.025847 0.376986
H7    H     H_    0.204137 0.246181 0.201345 0.351840
H8    H     H_    0.792995 0.751941 0.801815 0.350824
N1    N     N_R   0.500000 0.857200 0.500000 -0.153047
N2    N     N_R   0.500000 0.142800 0.500000 -0.159290
O1    O     O_R   0.316770 0.614620 0.499990 -0.581980
O2    O     O_R   0.192766 0.303129 0.781737 -0.795032
O3    O     O_2   0.850839 0.840538 0.419150 -0.557898
O4    O     O_R   0.800167 0.705921 0.221176 -0.794134
O5    O     O_2   0.903922 0.148614 0.569884 -0.530599
O6    O     O_R   0.826878 0.213514 0.337439 -0.771789
O7    O     O_2   0.161547 0.792500 0.629181 -0.572730
O8    O     O_R   0.094091 0.859751 0.393767 -0.732801
O9    O     O_2   0.703383 0.211761 0.731108 -0.579353
O10   O     O_R   0.572759 0.117079 0.890551 -0.718355
O11   O     O_2   0.303005 0.783411 0.265512 -0.584291
O12   O     O_R   0.683230 0.385380 0.500010 -0.584484
O13   O     O_R   0.427330 0.888989 0.107511 -0.714789
O14   O     O_2   0.410038 0.166960 0.142707 -0.566707
O15   O     O_R   0.245767 0.197007 0.291661 -0.775308
O16   O     O_2   0.588075 0.835593 0.858587 -0.572961
O17   O     O_R   0.752339 0.800793 0.710704 -0.748545
O18   O     O_R   0.683230 0.614620 0.500010 -0.605684
O19   O     O_R   0.316770 0.385380 0.499990 -0.601080
O20   O     O_R   0.500010 0.614640 0.285340 -0.606009
O21   O     O_R   0.499990 0.385360 0.714660 -0.609200
O22   O     O_R   0.499990 0.614640 0.714660 -0.611906
O23   O     O_R   0.500010 0.385360 0.285340 -0.611788
O24   O     O_2   0.147771 0.161869 0.588153 -0.568528
Zn1   Zn    Zn3+2 0.500000 0.653120 0.500000 1.045674
Zn2   Zn    Zn3+2 0.500000 0.346880 0.500000 1.039560

loop_
_geom_bond_atom_site_label_1
_geom_bond_atom_site_label_2
_ccdc_geom_bond_type
C17   O16   D    
C19   O22   A    
C5    C8    A    
C2    C4    A    
C6    N1    A    
H8    O17   S    
C6    C7    A    
O18   Zn1   S    
C10   C23   S    
C9    O2    S    
C4    C22   A    
H6    O13   S    
C18   O23   A    
C3    C23   A    
C8    C17   S    
O22   Zn1   S    
C15   O13   S    
H3    O6    S    
C10   O4    S    
C1    C4    S    
O12   Zn2   S    
C5    N2    A    
C16   O14   D    
C13   O7    D    
C5    C14   S    
N1    Zn1   S    
O21   Zn2   S    
C20   C21   T    
N2    Zn2   S    
C17   O17   S    
C3    C24   A    
H7    O15   S    
C10   O3    D    
C14   O10   S    
C7    C16   S    
C12   O18   A    
O19   Zn2   S    
C18   C20   S    
C8    N1    A    
H5    O10   S    
C11   O6    S    
C11   O5    D    
C7    N2    A    
C22   C24   A    
C9    C22   S    
O1    Zn1   S    
C18   O20   A    
H1    O2    S    
C11   C24   S    
C16   O15   S    
C1    O1    A    
C12   O12   A    
C9    O24   D    
C19   O21   A    
C2    C23   A    
C2    C13   S    
C1    O19   A    
C13   O8    S    
O23   Zn2   S    
C3    C12   S    
H4    O8    S    
C19   C21   S    
C6    C15   S    
O20   Zn1   S    
H2    O4    S    
C14   O9    D    
C15   O11   D    
