data_mof_unit_55517.cif
_audit_creation_date              2012-12-10T20:49:45-0500
_audit_creation_method            fapswitch 2.2
_symmetry_space_group_name_H-M    P1
_symmetry_Int_Tables_number       1
_space_group_crystal_system       triclinic
_cell_length_a                    8.109976
_cell_length_b                    8.926522
_cell_length_c                    16.644988
_cell_angle_alpha                 89.935835
_cell_angle_beta                  83.529229
_cell_angle_gamma                 90.008016
_cell_volume                      1197.31800553

loop_
_atom_site_label
_atom_site_type_symbol
_atom_type_description
_atom_site_fract_x
_atom_site_fract_y
_atom_site_fract_z
_atom_type_partial_charge
C1    C     C_R   0.499987 0.782004 0.500078 0.912098
C2    C     C_R   0.499994 0.217998 0.499969 1.011960
C3    C     C_1   0.499972 0.934800 0.500108 -0.186779
C4    C     C_1   0.499955 0.065206 0.500061 -0.163038
C5    C     C_R   0.474689 0.500786 0.653760 0.950559
C6    C     C_R   0.525500 0.500297 0.345912 0.923133
C7    C     C_R   0.453294 0.540083 0.738241 -0.095729
C8    C     C_R   0.548998 0.526541 0.259212 -0.108110
C9    C     C_R   0.475829 0.436041 0.799817 -0.061809
C10   C     C_R   0.446594 0.459990 0.206069 -0.051912
C11   C     C_R   0.470007 0.490046 0.878897 -0.188509
C12   C     C_R   0.463674 0.507432 0.125575 -0.206989
C13   C     C_R   0.445251 0.643196 0.895810 0.143754
C14   C     C_R   0.580411 0.617644 0.098183 0.133352
C15   C     C_R   0.415285 0.743010 0.834870 -0.071679
C16   C     C_R   0.685482 0.677895 0.150331 -0.060783
C17   C     C_R   0.419138 0.691317 0.756226 -0.219651
C18   C     C_R   0.669713 0.632670 0.230457 -0.200625
C19   C     C_2   0.458821 0.696761 0.978010 -0.167751
C20   C     C_2   0.597049 0.661313 0.012679 -0.187580
H1    H     H_    0.395227 0.860993 0.847699 0.178468
H2    H     H_    0.777419 0.761344 0.129293 0.170680
H3    H     H_    0.388001 0.456633 0.083288 0.182037
H4    H     H_    0.488449 0.413766 0.927819 0.182460
H5    H     H_    0.748479 0.684789 0.270883 0.163765
H6    H     H_    0.401604 0.770627 0.708518 0.139509
N1    N     N_1   0.926360 0.500000 0.499990 -0.024480
N2    N     N_1   0.073640 0.500000 0.500010 -0.023139
O1    O     O_R   0.363150 0.714660 0.500000 -0.619795
O2    O     O_R   0.636850 0.285340 0.500000 -0.611611
O3    O     O_R   0.636850 0.714660 0.500000 -0.620367
O4    O     O_R   0.363150 0.285340 0.500000 -0.598271
O5    O     O_R   0.346950 0.500000 0.615800 -0.604899
O6    O     O_R   0.653050 0.500000 0.384200 -0.619116
O7    O     O_R   0.620700 0.500000 0.615800 -0.611560
O8    O     O_R   0.379300 0.500000 0.384200 -0.600547
Zn1   Zn    Zn3+2 0.317220 0.500000 0.500010 1.024047
Zn2   Zn    Zn3+2 0.682780 0.500000 0.499990 1.013327
C21   C     C_2   0.505768 0.273163 0.783888 0.909626
O9    O     O_2   0.555342 0.193551 0.836026 -0.622370
O10   O     O_R   0.475154 0.209296 0.710310 -0.829249
H7    H     H_    0.499766 0.097940 0.707547 0.336315
C22   C     C_2   0.326873 0.338010 0.231505 0.922387
O11   O     O_2   0.203984 0.320223 0.196170 -0.601729
O12   O     O_R   0.356628 0.240297 0.294027 -0.812498
H8    H     H_    0.266538 0.161834 0.305205 0.346711
C23   C     C_2   0.758811 0.634095 0.962791 0.510935
H9    H     H_    0.777167 0.669653 0.900025 0.075296
O13   O     O_2   0.872782 0.571549 0.991379 -0.501642
C24   C     C_2   0.309443 0.761553 0.025696 0.495930
H10   H     H_    0.315347 0.799912 0.087172 0.067808
O14   O     O_2   0.178749 0.773923 0.996359 -0.521937

loop_
_geom_bond_atom_site_label_1
_geom_bond_atom_site_label_2
_ccdc_geom_bond_type
C24   O14   D    
C22   O11   D    
C6    O8    A    
C15   C17   A    
C14   C20   S    
C8    C18   A    
C11   C13   A    
O10   H7    S    
C2    C4    S    
C19   C20   D    
C12   H3    S    
O3    Zn2   S    
C15   H1    S    
C2    O2    A    
N1    N2    T    
C6    O6    A    
C1    O1    A    
C24   H10   S    
C21   O10   S    
C16   C18   A    
O6    Zn2   S    
O4    Zn1   S    
C22   O12   S    
C19   C24   S    
C9    C11   A    
C18   H5    S    
C10   C12   A    
N2    Zn1   S    
C17   H6    S    
C5    O7    A    
C2    O4    A    
O8    Zn1   S    
C12   C14   A    
C13   C15   A    
C8    C10   A    
C14   C16   A    
C20   C23   S    
C13   C19   S    
N1    Zn2   S    
C3    C4    T    
C7    C9    A    
C11   H4    S    
C1    O3    A    
O7    Zn2   S    
O2    Zn2   S    
C23   O13   D    
O1    Zn1   S    
C21   O9    D    
C5    C7    S    
C6    C8    S    
C7    C17   A    
C10   C22   S    
O12   H8    S    
C9    C21   S    
O5    Zn1   S    
C23   H9    S    
C16   H2    S    
C1    C3    S    
C5    O5    A    
