data_mof_unit_16160.cif
_audit_creation_date              2013-03-05T16:41:05-0500
_audit_creation_method            fapswitch 2.2
_symmetry_space_group_name_H-M    P1
_symmetry_Int_Tables_number       1
_space_group_crystal_system       triclinic
_cell_length_a                    18.706415
_cell_length_b                    18.555122
_cell_length_c                    18.805279
_cell_angle_alpha                 109.242003
_cell_angle_beta                  109.600196
_cell_angle_gamma                 108.971165
_cell_volume                      5061.49253323

loop_
_atom_site_label
_atom_site_type_symbol
_atom_site_description
_atom_site_fract_x
_atom_site_fract_y
_atom_site_fract_z
_atom_type_partial_charge
O1    O     O_R   0.408360 0.551710 0.460090 -0.621169
O2    O     O_R   0.408400 0.448280 0.356670 -0.628982
C1    C     C_R   0.381638 0.502717 0.380550 0.877197
O3    O     O_R   0.591600 0.643340 0.551710 -0.598758
O4    O     O_R   0.591630 0.539900 0.448290 -0.631410
C2    C     C_R   0.621768 0.620264 0.501706 0.865210
Zn1   Zn    Zn3+2 0.499980 0.569060 0.569060 0.986655
Zn2   Zn    Zn3+2 0.500020 0.430940 0.430940 0.939191
O5    O     O_R   0.591600 0.551720 0.643330 -0.610502
O6    O     O_R   0.591640 0.448290 0.539910 -0.624777
O7    O     O_R   0.408370 0.460100 0.551710 -0.606807
O8    O     O_R   0.408400 0.356660 0.448290 -0.629033
C3    C     C_R   0.617798 0.497390 0.619640 0.867070
C4    C     C_R   0.377984 0.379830 0.498039 0.874162
H1    H     H_    0.783555 0.826018 0.890492 0.127812
C5    C     C_R   0.779484 0.874855 0.800781 -0.151260
H2    H     H_    0.783049 0.934508 0.841183 0.122609
C6    C     C_R   0.773305 0.858410 0.720245 -0.133057
H3    H     H_    0.771665 0.905674 0.698844 0.138879
C7    C     C_R   0.767667 0.780573 0.666991 0.120357
C8    C     C_R   0.770259 0.720557 0.696463 -0.119479
H4    H     H_    0.767253 0.660839 0.656962 0.094165
C9    C     C_R   0.774802 0.736577 0.776287 -0.112501
H5    H     H_    0.773253 0.688622 0.797047 0.128336
C10   C     C_R   0.779805 0.813761 0.828604 -0.118180
C11   C     C_R   0.821008 0.822632 0.575656 -0.218765
H6    H     H_    0.874925 0.881533 0.634828 0.141468
C12   C     C_R   0.814075 0.808967 0.495455 -0.043660
C13   C     C_R   0.743441 0.733640 0.417032 -0.002827
C14   C     C_R   0.683169 0.671927 0.422851 -0.258551
H7    H     H_    0.629319 0.612675 0.364056 0.157591
C15   C     C_R   0.689561 0.686119 0.502848 -0.065640
C16   C     C_R   0.758529 0.762289 0.580506 0.017173
C17   C     C_R   0.645403 0.684133 0.260684 -0.175248
H8    H     H_    0.591339 0.676029 0.272500 0.120229
C18   C     C_R   0.630005 0.661617 0.176342 -0.105833
H9    H     H_    0.565533 0.637871 0.125119 0.165513
C19   C     C_R   0.697281 0.668207 0.157799 -0.129971
H10   H     H_    0.685159 0.649720 0.092240 0.126366
C20   C     C_R   0.779931 0.697445 0.223648 -0.124953
H11   H     H_    0.830948 0.700114 0.208125 0.151080
C21   C     C_R   0.796040 0.721626 0.308617 -0.107137
H12   H     H_    0.859948 0.743211 0.358628 0.104837
C22   C     C_R   0.729160 0.715594 0.328432 0.107292
H13   H     H_    0.502515 0.906695 0.596286 0.124804
C23   C     C_R   0.415047 0.771375 0.547790 -0.168234
H14   H     H_    0.409858 0.783780 0.605774 0.124579
C24   C     C_R   0.367501 0.686437 0.477314 -0.091101
H15   H     H_    0.324170 0.634469 0.481039 0.146171
C25   C     C_R   0.374258 0.669183 0.401875 0.117201
C26   C     C_R   0.426170 0.739497 0.396833 -0.184617
H16   H     H_    0.428870 0.728401 0.337763 0.134547
C27   C     C_R   0.471718 0.824847 0.466616 -0.071002
H17   H     H_    0.509265 0.879177 0.461483 0.159870
C28   C     C_R   0.467104 0.840616 0.542409 -0.115984
C29   C     C_R   0.251979 0.576319 0.253391 -0.229970
H18   H     H_    0.252630 0.635990 0.256314 0.157838
C30   C     C_R   0.184226 0.495188 0.183322 -0.059514
C31   C     C_R   0.176897 0.416164 0.181530 0.003602
C32   C     C_R   0.245888 0.421894 0.246042 -0.273853
H19   H     H_    0.244792 0.362300 0.243706 0.151020
C33   C     C_R   0.313990 0.503239 0.316102 -0.078336
C34   C     C_R   0.314553 0.581611 0.323096 -0.017654
C35   C     C_R   0.063967 0.270965 0.145626 -0.168468
H20   H     H_    0.091534 0.291709 0.214088 0.128379
C36   C     C_R   0.992644 0.187073 0.086071 -0.137231
H21   H     H_    0.966431 0.144014 0.108770 0.135544
C37   C     C_R   0.955177 0.158776 0.997357 -0.153815
H22   H     H_    0.900065 0.093834 0.951294 0.123965
C38   C     C_R   0.988726 0.214513 0.968195 -0.077584
H23   H     H_    0.959658 0.192784 0.899444 0.144737
C39   C     C_R   0.059958 0.298391 0.027731 -0.006701
H24   H     H_    0.084646 0.340584 0.004138 0.105494
C40   C     C_R   0.098889 0.327770 0.117095 0.087811
H25   H     H_    0.165330 0.572218 0.476357 0.135780
C41   C     C_R   0.201624 0.516273 0.556888 -0.123106
H26   H     H_    0.200899 0.561227 0.610235 0.173017
C42   C     C_R   0.221691 0.451505 0.563137 -0.131218
H27   H     H_    0.235644 0.446286 0.621428 0.117187
C43   C     C_R   0.223398 0.393566 0.494114 0.135082
C44   C     C_R   0.204556 0.401044 0.418920 -0.134277
H28   H     H_    0.204949 0.356322 0.364996 0.101766
C45   C     C_R   0.183006 0.464915 0.412385 -0.143637
H29   H     H_    0.167139 0.469727 0.353859 0.148116
C46   C     C_R   0.181623 0.522536 0.481353 -0.146224
C47   C     C_R   0.176524 0.255552 0.498148 -0.254583
H30   H     H_    0.120636 0.260496 0.499308 0.157483
C48   C     C_R   0.185678 0.183433 0.496568 -0.078450
C49   C     C_R   0.257413 0.175384 0.494698 -0.008526
C50   C     C_R   0.319149 0.240744 0.493941 -0.264379
H31   H     H_    0.374901 0.235625 0.492590 0.156809
C51   C     C_R   0.310277 0.313143 0.495995 -0.079327
C52   C     C_R   0.238573 0.321182 0.497919 -0.005274
C53   C     C_R   0.340155 0.110567 0.559547 -0.142660
H32   H     H_    0.385143 0.174344 0.616879 0.121491
C54   C     C_R   0.353837 0.039670 0.554272 -0.139315
H33   H     H_    0.408769 0.048672 0.607394 0.126053
C55   C     C_R   0.297201 0.957395 0.480067 -0.136024
H34   H     H_    0.308260 0.902717 0.475760 0.131134
C56   C     C_R   0.226508 0.945780 0.411238 -0.135042
H35   H     H_    0.183476 0.882235 0.353500 0.148700
C57   C     C_R   0.211909 0.016258 0.416663 -0.132452
H36   H     H_    0.157447 0.006755 0.362607 0.104402
C58   C     C_R   0.268824 0.099171 0.490894 0.137911
H37   H     H_    0.400716 0.472567 0.798842 0.111347
C59   C     C_R   0.537825 0.550169 0.847889 -0.138886
H38   H     H_    0.546599 0.603576 0.902403 0.132823
C60   C     C_R   0.608879 0.554830 0.836233 -0.151817
H39   H     H_    0.672432 0.612161 0.882117 0.118032
C61   C     C_R   0.597802 0.485861 0.765417 0.138157
C62   C     C_R   0.515043 0.411862 0.707009 -0.138746
H40   H     H_    0.505676 0.357677 0.652723 0.106515
C63   C     C_R   0.444332 0.407114 0.719494 -0.128842
H41   H     H_    0.380826 0.349624 0.675290 0.141553
C64   C     C_R   0.455598 0.476358 0.789534 -0.107000
C65   C     C_R   0.739508 0.490075 0.816678 -0.261659
H42   H     H_    0.733589 0.485960 0.870864 0.158513
C66   C     C_R   0.813689 0.497292 0.810555 -0.090546
C67   C     C_R   0.823574 0.505607 0.742118 0.017603
C68   C     C_R   0.756312 0.502497 0.678535 -0.266890
H43   H     H_    0.762616 0.508463 0.625139 0.152198
C69   C     C_R   0.682385 0.495041 0.684746 -0.080526
C70   C     C_R   0.673785 0.490367 0.754807 -0.009279
C71   C     C_R   0.952639 0.599138 0.740813 -0.226957
H44   H     H_    0.932802 0.648729 0.749570 0.144966
C72   C     C_R   0.027373 0.613993 0.733757 -0.278824
H45   H     H_    0.062766 0.674364 0.735697 0.134800
C73   C     C_R   0.054840 0.550607 0.722954 0.641173
C74   C     C_R   0.003911 0.471312 0.715978 -0.134358
H46   H     H_    0.022615 0.420929 0.705245 0.168721
C75   C     C_R   0.929109 0.456568 0.723212 -0.230633
H47   H     H_    0.890766 0.395049 0.717894 0.130351
C76   C     C_R   0.903473 0.520709 0.736248 0.144837
O9    O     O_R   0.051730 0.908360 0.460060 -0.618231
O10   O     O_R   0.948280 0.908380 0.356650 -0.620329
C77   C     C_R   0.000235 0.879081 0.380584 0.868511
O11   O     O_R   0.960110 0.908350 0.551690 -0.620611
O12   O     O_R   0.856660 0.908370 0.448270 -0.617804
C78   C     C_R   0.879995 0.876985 0.497131 0.858368
Zn3   Zn    Zn3+2 0.069070 0.999960 0.569030 0.960835
Zn4   Zn    Zn3+2 0.930930 0.999990 0.430930 0.966097
O13   O     O_R   0.051720 0.091580 0.643310 -0.621565
O14   O     O_R   0.948270 0.091600 0.539890 -0.612344
O15   O     O_R   0.143340 0.091590 0.551680 -0.616962
O16   O     O_R   0.039890 0.091610 0.448270 -0.625135
C79   C     C_R   0.998731 0.119483 0.619811 0.874810
C80   C     C_R   0.119989 0.118547 0.498279 0.870536
O17   O     O_R   0.051730 0.460050 0.908360 -0.574946
O18   O     O_R   0.948290 0.356630 0.908390 -0.635888
C81   C     C_R   0.003493 0.380177 0.883258 0.835308
O19   O     O_R   0.143340 0.551690 0.091580 -0.612172
O20   O     O_R   0.039900 0.448270 0.091610 -0.623814
C82   C     C_R   0.119535 0.497262 0.117908 0.835181
Zn5   Zn    Zn3+2 0.069070 0.569030 0.999960 1.046628
Zn6   Zn    Zn3+2 0.930930 0.430930 0.000000 0.948903
O21   O     O_R   0.051710 0.643320 0.091560 -0.607673
O22   O     O_R   0.948270 0.539900 0.091590 -0.627354
O23   O     O_R   0.960100 0.551680 0.908340 -0.600627
O24   O     O_R   0.856660 0.448270 0.908370 -0.627292
C83   C     C_R   0.998654 0.620310 0.118477 0.864522
C84   C     C_R   0.880059 0.498570 0.878134 0.863379
H48   H     H_    0.052732 0.693947 0.599049 0.124230
C85   C     C_R   0.112300 0.770364 0.549842 -0.163847
H49   H     H_    0.174321 0.811105 0.609376 0.119131
C86   C     C_R   0.100976 0.783558 0.478672 -0.082525
H50   H     H_    0.154935 0.834089 0.483623 0.136146
C87   C     C_R   0.020372 0.731611 0.401490 0.117199
C88   C     C_R   0.952839 0.663385 0.395229 -0.196970
H51   H     H_    0.891387 0.620302 0.335136 0.137859
C89   C     C_R   0.964243 0.650569 0.466616 -0.117314
H52   H     H_    0.911589 0.598634 0.461751 0.135499
C90   C     C_R   0.043836 0.704207 0.543976 -0.106970
C91   C     C_R   0.004220 0.678245 0.256220 -0.251307
H53   H     H_    0.007585 0.622420 0.260610 0.158864
C92   C     C_R   0.998573 0.686914 0.183972 -0.077938
C93   C     C_R   0.997892 0.760501 0.178105 -0.007050
C94   C     C_R   0.998350 0.822532 0.244273 -0.279003
H54   H     H_    0.995425 0.878472 0.239861 0.158496
C95   C     C_R   0.003431 0.813776 0.316484 -0.092683
C96   C     C_R   0.009558 0.742567 0.324571 -0.017945
C97   C     C_R   0.062268 0.852606 0.121097 -0.149136
H55   H     H_    0.113492 0.901934 0.186853 0.124529
C98   C     C_R   0.062344 0.866598 0.052466 -0.136766
H56   H     H_    0.112965 0.926380 0.065378 0.130560
C99   C     C_R   0.997409 0.803252 0.967207 -0.111390
H57   H     H_    0.997664 0.813783 0.913975 0.127552
C100  C     C_R   0.932070 0.726224 0.950640 -0.121778
H58   H     H_    0.882426 0.677206 0.884726 0.129273
C101  C     C_R   0.931143 0.712184 0.019006 -0.125482
H59   H     H_    0.879490 0.652491 0.005111 0.095399
C102  C     C_R   0.996995 0.774874 0.104815 0.131685
H60   H     H_    0.383476 0.550902 0.125287 0.209022
C103  C     C_R   0.291040 0.527419 0.002541 0.271610
C104  C     C_R   0.214474 0.463049 0.922597 0.439985
C105  C     C_R   0.169015 0.377676 0.908113 -0.203989
C106  C     C_R   0.207606 0.351404 0.965967 0.486824
C107  C     C_R   0.285328 0.416297 0.045211 -0.330315
H61   H     H_    0.315714 0.401728 0.094531 0.177696
C108  C     C_R   0.325099 0.502882 0.063366 -0.339421
C109  C     C_R   0.078119 0.247467 0.762183 -0.179791
H62   H     H_    0.137146 0.244755 0.769728 0.157408
C110  C     C_R   0.998689 0.186259 0.685820 -0.115281
C111  C     C_R   0.922142 0.190553 0.674608 0.024469
C112  C     C_R   0.926124 0.254553 0.741905 -0.282888
H63   H     H_    0.867344 0.257764 0.734757 0.155955
C113  C     C_R   0.005063 0.315144 0.817867 -0.074631
C114  C     C_R   0.082826 0.313524 0.828453 0.146596
C115  C     C_R   0.797608 0.159832 0.543590 -0.149899
H64   H     H_    0.831522 0.227416 0.559381 0.139557
C116  C     C_R   0.713885 0.103939 0.472330 -0.209034
H65   H     H_    0.683364 0.128275 0.433374 0.159504
C117  C     C_R   0.668567 0.017305 0.452507 -0.243990
H66   H     H_    0.602425 0.976752 0.399152 0.140061
C118  C     C_R   0.707988 0.984975 0.502994 0.589155
C119  C     C_R   0.791599 0.041956 0.575034 -0.194368
H67   H     H_    0.820938 0.018535 0.615977 0.125259
C120  C     C_R   0.836731 0.129117 0.595311 0.069085
O25   O     O_3   0.126503 0.560271 0.711968 -0.650748
C121  C     C_3   0.198772 0.644760 0.772497 -0.320549
H68   H     H_    0.205664 0.668725 0.838386 0.218588
H69   H     H_    0.195000 0.691652 0.748855 0.145237
H70   H     H_    0.258712 0.641844 0.778576 0.191405
N1    N     N_R   0.334272 0.617155 0.022427 0.212540
O26   O     O_R   0.413519 0.670966 0.086624 -0.443815
O27   O     O_R   0.293128 0.647493 0.980681 -0.379223
O28   O     O_3   0.184414 0.482123 0.857086 -0.550341
C122  C     C_3   0.226232 0.467133 0.808059 -0.293136
H71   H     H_    0.220167 0.400790 0.786096 0.120908
H72   H     H_    0.296019 0.518197 0.845485 0.172190
H73   H     H_    0.194804 0.470578 0.748779 0.223700
O29   O     O_3   0.163716 0.263052 0.942311 -0.606986
C123  C     C_3   0.212221 0.237998 0.994753 -0.310026
H74   H     H_    0.175910 0.165737 0.964932 0.193051
H75   H     H_    0.219014 0.266146 0.060312 0.168681
H76   H     H_    0.276582 0.255649 0.998183 0.159811
O30   O     O_3   0.664233 0.901424 0.489724 -0.628460
C124  C     C_3   0.625018 0.838453 0.402031 -0.321224
H77   H     H_    0.671878 0.847904 0.377440 0.192709
H78   H     H_    0.566455 0.838122 0.360447 0.153286
H79   H     H_    0.602262 0.773131 0.397215 0.201927

loop_
_geom_bond_atom_site_label_1
_geom_bond_atom_site_label_2
_geom_bond_distance
_ccdc_geom_bond_type
O14   C79   1.278928 A    
C36   C37   1.396068 A    
C111  C112  1.380600 A    
C66   C84   1.435068 S    
C86   H50   1.081986 S    
C65   C70   1.383511 A    
Zn6   O22   2.015789 S    
Zn3   O15   2.015268 S    
O13   C79   1.279255 A    
C2    C15   1.434843 S    
C85   H49   1.082310 S    
C119  H67   1.083985 S    
C73   C74   1.402571 A    
C44   H28   1.082257 S    
C99   H57   1.082506 S    
O25   C121  1.412245 S    
O10   C77   1.286093 A    
C27   H17   1.080806 S    
C60   H39   1.083533 S    
Zn1   O7    2.016966 S    
O11   C78   1.282614 A    
C77   C95   1.434444 S    
C12   C13   1.416911 A    
C11   H6    1.085673 S    
C115  H64   1.083576 S    
C21   C22   1.402080 A    
C71   C76   1.401953 A    
C45   H29   1.081759 S    
C18   H9    1.082535 S    
C47   C52   1.384926 A    
C41   C42   1.398490 A    
Zn5   O23   2.019607 S    
C119  C120  1.401267 A    
O9    Zn3   2.023167 S    
C14   H7    1.085088 S    
O7    C4    1.278259 A    
C47   C48   1.395393 A    
C99   C100  1.396060 A    
C59   H38   1.082426 S    
C97   H55   1.083429 S    
C106  C107  1.417691 A    
C6    H3    1.083452 S    
O30   C124  1.408518 S    
C32   C33   1.396395 A    
C17   H8    1.081096 S    
O19   Zn5   2.013037 S    
C107  C108  1.393592 A    
O5    C3    1.275379 A    
C66   C67   1.409363 A    
C51   C52   1.407750 A    
O23   C84   1.279349 A    
O16   C80   1.279530 A    
C61   C62   1.404095 A    
H25   C46   1.082620 S    
C118  O30   1.385129 S    
C53   H32   1.083439 S    
C122  H71   1.114200 S    
C60   C61   1.404737 A    
C109  H62   1.085168 S    
C94   C95   1.395825 A    
C54   C55   1.397380 A    
C23   C28   1.395551 A    
C37   H22   1.081839 S    
C9    H5    1.079272 S    
O24   C84   1.279506 A    
C38   H23   1.082592 S    
C115  C120  1.401929 A    
C20   C21   1.400655 A    
Zn5   O21   2.018447 S    
C103  C104  1.413392 A    
Zn4   O16   2.021545 S    
C39   H24   1.074427 S    
C88   C89   1.398391 A    
C104  C105  1.411065 A    
C53   C58   1.404562 A    
C31   C32   1.387073 A    
C86   C87   1.404952 A    
C19   C20   1.394797 A    
O1    Zn1   2.022478 S    
C124  H77   1.112866 S    
C25   C34   1.485172 S    
C57   H36   1.082877 S    
C12   C78   1.431885 S    
O17   Zn5   2.016002 S    
O15   C80   1.276046 A    
C123  H75   1.111847 S    
C44   C45   1.398410 A    
C68   C69   1.392780 A    
C27   C28   1.395933 A    
C8    C9    1.397425 A    
C19   H10   1.082649 S    
O11   Zn3   2.021457 S    
C23   C24   1.397297 A    
C110  C111  1.408506 A    
C111  C120  1.474049 S    
O10   Zn4   2.010925 S    
Zn6   O24   2.013163 S    
C26   H16   1.082839 S    
C88   H51   1.083083 S    
O21   C83   1.275738 A    
C17   C22   1.412310 A    
C41   H26   1.080429 S    
C81   C113  1.427715 S    
N1    O26   1.301693 A    
C39   C40   1.403079 A    
C65   C66   1.397604 A    
C97   C98   1.398192 A    
C87   C88   1.405186 A    
C113  C114  1.412322 A    
C5    H2    1.081937 S    
C93   C102  1.483454 S    
O9    C77   1.270999 A    
C91   C96   1.382680 A    
O3    Zn1   2.019697 S    
C30   C31   1.415492 A    
C91   H53   1.085823 S    
O12   Zn4   2.015017 S    
C123  H76   1.112899 S    
C79   C110  1.436528 S    
C32   H19   1.085240 S    
O1    C1    1.272896 A    
C35   C36   1.398402 A    
O20   Zn6   2.019605 S    
C57   C58   1.404071 A    
C98   H56   1.082302 S    
C13   C14   1.385765 A    
C30   C82   1.428953 S    
C61   C70   1.480223 S    
C121  H69   1.110632 S    
C98   C99   1.396645 A    
C11   C16   1.384176 A    
C50   C51   1.395962 A    
C92   C93   1.409371 A    
C106  O29   1.399541 S    
O8    C4    1.278628 A    
Zn2   O8    2.019700 S    
C54   H33   1.082343 S    
C122  H73   1.106412 S    
C33   C34   1.412507 A    
C56   C57   1.399315 A    
C25   C26   1.404911 A    
C29   C34   1.381690 A    
H48   C90   1.082340 S    
C101  H59   1.082924 S    
C62   C63   1.399550 A    
C67   C76   1.477634 S    
C48   C49   1.408105 A    
C53   C54   1.398522 A    
C85   C90   1.397515 A    
C42   C43   1.404268 A    
C31   C40   1.495126 S    
C4    C51   1.433104 S    
C91   C92   1.393481 A    
C94   H54   1.085309 S    
C7    C16   1.483754 S    
O3    C2    1.278204 A    
C93   C94   1.384059 A    
C45   C46   1.397284 A    
C112  C113  1.389936 A    
C116  H65   1.082408 S    
C109  C114  1.382961 A    
C116  C117  1.395936 A    
C124  H78   1.108783 S    
C49   C58   1.479973 S    
C83   C92   1.429505 S    
C21   H12   1.077117 S    
C75   H47   1.082473 S    
C73   O25   1.387744 S    
C121  H68   1.114455 S    
C18   C19   1.393860 A    
C68   H43   1.085636 S    
C47   H30   1.085473 S    
C71   C72   1.395000 A    
C63   H41   1.081317 S    
C1    C33   1.434249 S    
H13   C28   1.082355 S    
C5    C10   1.397181 A    
C29   H18   1.086150 S    
C23   H14   1.082350 S    
C20   H11   1.078963 S    
C72   C73   1.412090 A    
C43   C52   1.478920 S    
C62   H40   1.082897 S    
C122  H72   1.112277 S    
C7    C8    1.404801 A    
C42   H27   1.083310 S    
H60   C108  1.082924 S    
Zn2   O6    2.022481 S    
O2    Zn2   2.010061 S    
O28   C122  1.412681 S    
O17   C81   1.271660 A    
C43   C44   1.403487 A    
C75   C76   1.401492 A    
O6    C3    1.278703 A    
O4    Zn2   2.016963 S    
C67   C68   1.383520 A    
N1    O27   1.301215 A    
Zn3   O13   2.011052 S    
C95   C96   1.414682 A    
O22   C83   1.280173 A    
C11   C12   1.396825 A    
H37   C64   1.082266 S    
C59   C64   1.397548 A    
C15   C16   1.408781 A    
C104  O28   1.382453 S    
Zn4   O14   2.023127 S    
O2    C1    1.285766 A    
C74   H46   1.082963 S    
C100  H58   1.077744 S    
C13   C22   1.494995 S    
C115  C116  1.394269 A    
C103  C108  1.401596 A    
O18   C81   1.284843 A    
C35   H20   1.081885 S    
C121  H70   1.109382 S    
C14   C15   1.394453 A    
C3    C69   1.427444 S    
C97   C102  1.406409 A    
C50   H31   1.085334 S    
O4    C2    1.279300 A    
C59   C60   1.398369 A    
C123  H74   1.109189 S    
C72   H45   1.081276 S    
C24   H15   1.079881 S    
C118  C119  1.399510 A    
C24   C25   1.406535 A    
C56   H35   1.081585 S    
C48   C80   1.432015 S    
C29   C30   1.392985 A    
C65   H42   1.085310 S    
C36   H21   1.082368 S    
C6    C7    1.405958 A    
O19   C82   1.283905 A    
O18   Zn6   2.018660 S    
C107  H61   1.080667 S    
C55   C56   1.397503 A    
C87   C96   1.482841 S    
C100  C101  1.397801 A    
H1    C10   1.082368 S    
O12   C78   1.273895 A    
C117  C118  1.413637 A    
C26   C27   1.399581 A    
C105  C106  1.412040 A    
Zn1   O5    2.010063 S    
C74   C75   1.398089 A    
C103  N1    1.441345 S    
C9    C10   1.396467 A    
C105  C114  1.488942 S    
C112  H63   1.086003 S    
C17   C18   1.396999 A    
C5    C6    1.398302 A    
C55   H34   1.082684 S    
C89   H52   1.082348 S    
C124  H79   1.106694 S    
O29   C123  1.409988 S    
C69   C70   1.406311 A    
C37   C38   1.395317 A    
C35   C40   1.409183 A    
C85   C86   1.398411 A    
C38   C39   1.397675 A    
O20   C82   1.272421 A    
C89   C90   1.397402 A    
C101  C102  1.404259 A    
C49   C50   1.384382 A    
C8    H4    1.082465 S    
C41   C46   1.397040 A    
C109  C110  1.398605 A    
C117  H66   1.080707 S    
C71   H44   1.083814 S    
C63   C64   1.397255 A    
