data_mof_unit_65765.cif
_audit_creation_date              2012-12-10T19:17:49-0500
_audit_creation_method            fapswitch 2.2
_symmetry_space_group_name_H-M    P1
_symmetry_Int_Tables_number       1
_space_group_crystal_system       triclinic
_cell_length_a                    16.005942
_cell_length_b                    14.773532
_cell_length_c                    10.679434
_cell_angle_alpha                 89.500778
_cell_angle_beta                  89.995581
_cell_angle_gamma                 90.003539
_cell_volume                      2525.20897668

loop_
_atom_site_label
_atom_site_type_symbol
_atom_type_description
_atom_site_fract_x
_atom_site_fract_y
_atom_site_fract_z
_atom_type_partial_charge
C1    C     C_R   0.340933 0.499996 0.500040 0.833803
C2    C     C_R   0.659067 0.500004 0.499960 0.833803
C3    C     C_1   0.822959 0.500025 0.499949 0.194113
C4    C     C_1   0.177040 0.499975 0.500051 0.194113
C5    C     C_R   0.956177 0.509847 0.613429 0.312679
C6    C     C_R   0.043823 0.490153 0.386571 0.312679
C7    C     C_R   0.043799 0.509811 0.613432 0.312614
C8    C     C_R   0.956201 0.490189 0.386568 0.312614
C9    C     C_R   0.912633 0.500030 0.499996 -0.205839
C10   C     C_R   0.087367 0.499970 0.500004 -0.205839
C11   C     C_R   0.499975 0.500521 0.259057 0.961844
C12   C     C_R   0.500024 0.499479 0.740943 0.961844
C13   C     C_1   0.251991 0.499985 0.500057 -0.032766
C14   C     C_1   0.748009 0.500015 0.499943 -0.032766
C15   C     C_R   0.500181 0.951413 0.612951 -0.107728
C16   C     C_R   0.499819 0.048587 0.387049 -0.107728
C17   C     C_R   0.499820 0.952812 0.387045 -0.101072
C18   C     C_R   0.500180 0.047188 0.612955 -0.101072
C19   C     C_R   0.500001 0.902859 0.499997 0.009812
C20   C     C_R   0.499999 0.097141 0.500003 0.009812
C21   C     C_3   0.499967 0.586286 0.037820 0.300096
C22   C     C_3   0.500033 0.413714 0.962180 0.300095
C23   C     C_3   0.568303 0.542232 0.957038 0.268401
C24   C     C_3   0.431697 0.457768 0.042962 0.268401
C25   C     C_3   0.431680 0.542169 0.957021 0.268345
C26   C     C_3   0.568320 0.457831 0.042979 0.268345
C27   C     C_3   0.500016 0.498274 0.876823 -0.410496
C28   C     C_3   0.499984 0.501726 0.123177 -0.410496
C29   C     C_1   0.500000 0.802703 0.499995 0.231606
C30   C     C_1   0.500000 0.197297 0.500005 0.231606
Cu1   Cu    Cu3+1 0.500000 0.589220 0.500000 1.103431
Cu2   Cu    Cu3+1 0.500000 0.410780 0.500000 1.103431
H1    H     H_    0.500323 0.082301 0.701568 0.181096
H2    H     H_    0.499677 0.917699 0.298432 0.181096
H3    H     H_    0.499675 0.084795 0.298436 0.173495
H4    H     H_    0.500325 0.915205 0.701564 0.173495
N1    N     N_1   0.500000 0.276710 0.500000 -0.128540
N2    N     N_1   0.500000 0.723290 0.500000 -0.128540
O1    O     O_R   0.380310 0.575320 0.500020 -0.566302
O2    O     O_R   0.619690 0.424680 0.499980 -0.566302
O3    O     O_R   0.619690 0.575320 0.499980 -0.566315
O4    O     O_R   0.380310 0.424680 0.500020 -0.566315
O5    O     O_R   0.499980 0.575330 0.316850 -0.548293
O6    O     O_R   0.500020 0.424670 0.683150 -0.548293
O7    O     O_R   0.500020 0.575330 0.683150 -0.549521
O8    O     O_R   0.499980 0.424670 0.316850 -0.549521
Cl1   Cl    Cl    0.340664 0.597304 0.897722 -0.390898
Cl2   Cl    Cl    0.659336 0.402696 0.102278 -0.390898
Cl3   Cl    Cl    0.499928 0.701630 0.085732 -0.449840
Cl4   Cl    Cl    0.500072 0.298370 0.914268 -0.449840
Cl5   Cl    Cl    0.659297 0.597453 0.897765 -0.390869
Cl6   Cl    Cl    0.340703 0.402546 0.102235 -0.390869
Cl7   Cl    Cl    0.098975 0.522067 0.755833 -0.351447
Cl8   Cl    Cl    0.901025 0.477933 0.244167 -0.351447
Cl9   Cl    Cl    0.900967 0.522216 0.755821 -0.351411
Cl10  Cl    Cl    0.099033 0.477784 0.244179 -0.351411

loop_
_geom_bond_atom_site_label_1
_geom_bond_atom_site_label_2
_ccdc_geom_bond_type
C29   N2    T    
C24   Cl6   S    
C7    C10   A    
C15   C19   A    
C6    C10   A    
C3    C9    S    
C23   C27   S    
C26   C28   S    
C15   C18   A    
Cu1   O3    S    
C25   Cl1   S    
C23   Cl5   S    
Cu1   Cu2   S    
Cu1   N2    S    
C26   Cl2   S    
C22   Cl4   S    
C21   Cl3   S    
Cu2   O6    S    
C12   O6    A    
C20   C30   S    
Cu2   N1    S    
C5    C9    A    
Cu2   O4    S    
C3    C14   T    
Cu1   O5    S    
C11   C28   S    
C16   C20   A    
C17   C19   A    
C21   C28   S    
Cu1   O1    S    
C18   C20   A    
C22   C27   S    
C21   C23   S    
C16   H3    S    
C22   C26   S    
C2    C14   S    
C18   H1    S    
C22   C24   S    
C11   O5    A    
C25   C27   S    
C17   H2    S    
C1    O1    A    
C2    O3    A    
C4    C10   S    
C19   C29   S    
C16   C17   A    
C2    O2    A    
C1    O4    A    
Cu2   O2    S    
C1    C13   S    
C24   C25   S    
C21   C25   S    
Cu1   O7    S    
C23   C26   S    
C8    Cl8   S    
C4    C13   T    
C5    C7    A    
C7    Cl7   S    
C12   O7    A    
C11   O8    A    
C6    C8    A    
C12   C27   S    
C15   H4    S    
Cu2   O8    S    
C5    Cl9   S    
C24   C28   S    
C30   N1    T    
C6    Cl10  S    
C8    C9    A    
