data_mof_unit_6074.cif
_audit_creation_date              2013-03-05T16:02:49-0500
_audit_creation_method            fapswitch 2.2
_symmetry_space_group_name_H-M    P1
_symmetry_Int_Tables_number       1
_space_group_crystal_system       triclinic
_cell_length_a                    7.007983
_cell_length_b                    14.414224
_cell_length_c                    16.045097
_cell_angle_alpha                 90.000068
_cell_angle_beta                  89.777644
_cell_angle_gamma                 90.000286
_cell_volume                      1620.77743975

loop_
_atom_site_label
_atom_site_type_symbol
_atom_site_description
_atom_site_fract_x
_atom_site_fract_y
_atom_site_fract_z
_atom_type_partial_charge
O1    O     O_R   0.611670 0.415650 0.164070 -0.579696
O2    O     O_R   0.388330 0.915650 0.835930 -0.579685
O3    O     O_R   0.940950 0.405490 0.337780 -0.599752
O4    O     O_R   0.059050 0.905490 0.662220 -0.599780
O5    O     O_R   0.111350 0.584350 0.338470 -0.579420
O6    O     O_R   0.888650 0.084350 0.661530 -0.579402
C1    C     C_R   0.771276 0.381290 0.364884 0.983501
C2    C     C_R   0.228722 0.881291 0.635114 0.983514
O7    O     O_R   0.941380 0.404630 0.164680 -0.607259
O8    O     O_R   0.058620 0.904630 0.835320 -0.607271
O9    O     O_R   0.111780 0.583470 0.164130 -0.594968
O10   O     O_R   0.888220 0.083470 0.835870 -0.594964
C3    C     C_R   0.772962 0.382825 0.136108 0.933566
C4    C     C_R   0.227037 0.882824 0.863892 0.933583
O11   O     O_R   0.611240 0.416530 0.338400 -0.570604
O12   O     O_R   0.388760 0.916530 0.661600 -0.570617
O13   O     O_3   0.778020 0.558680 0.251290 -0.247701
O14   O     O_3   0.221980 0.058680 0.748710 -0.247679
V1    V     V_3+5 0.052840 0.489110 0.251260 1.205244
V2    V     V_3+5 0.947160 0.989110 0.748740 1.205220
O15   O     O_R   0.441500 0.594510 0.164760 -0.603460
O16   O     O_R   0.558500 0.094510 0.835240 -0.603456
C5    C     C_R   0.272989 0.616313 0.136233 0.923122
C6    C     C_R   0.727012 0.116313 0.863767 0.923130
O17   O     O_R   0.441080 0.595370 0.337860 -0.528838
O18   O     O_R   0.558920 0.095370 0.662140 -0.528830
C7    C     C_R   0.273044 0.615429 0.368799 0.895220
C8    C     C_R   0.726956 0.115428 0.631200 0.895242
V3    V     V_3+5 0.552850 0.510890 0.251270 1.244709
V4    V     V_3+5 0.447150 0.010890 0.748730 1.244709
O19   O     O_3   0.277800 0.441320 0.251250 -0.255450
O20   O     O_3   0.722200 0.941320 0.748750 -0.255497
C9    C     C_3   0.082662 0.672016 0.493288 -0.354441
C10   C     C_3   0.917316 0.172002 0.506699 -0.354497
H1    H     H_    0.967713 0.684036 0.449696 0.282419
H2    H     H_    0.032284 0.184034 0.550279 0.282430
H3    H     H_    0.070630 0.599976 0.517767 0.173166
H4    H     H_    0.929338 0.099957 0.482232 0.173139
C11   C     C_3   0.066581 0.743308 0.565351 -0.303389
C12   C     C_3   0.933371 0.243279 0.434622 -0.303432
H5    H     H_    0.051206 0.706615 0.625793 0.195934
H6    H     H_    0.948654 0.206571 0.374183 0.195939
H7    H     H_    0.933679 0.784505 0.556991 0.195364
H8    H     H_    0.066313 0.284454 0.442949 0.195399
H9    H     H_    0.135424 0.795553 0.366650 0.166154
H10   H     H_    0.864599 0.295537 0.633358 0.166180
H11   H     H_    0.119878 0.901991 0.471898 0.183045
H12   H     H_    0.880273 0.401951 0.528093 0.183060
C13   C     C_3   0.261747 0.786571 0.407727 -0.349599
C14   C     C_3   0.738288 0.286569 0.592272 -0.349665
C15   C     C_3   0.430910 0.671048 0.505537 0.178526
C16   C     C_3   0.569062 0.171059 0.494470 0.178479
C17   C     C_3   0.265915 0.684992 0.441486 -0.116082
C18   C     C_3   0.734081 0.184991 0.558512 -0.116043
H13   H     H_    0.406175 0.602934 0.536716 0.099822
H14   H     H_    0.593793 0.102955 0.463273 0.099838
C19   C     C_3   0.242676 0.808925 0.566038 -0.144448
C20   C     C_3   0.757320 0.308924 0.433960 -0.144412
C21   C     C_3   0.249438 0.858246 0.479945 -0.358685
C22   C     C_3   0.750655 0.358243 0.520055 -0.358737
C23   C     C_3   0.429773 0.749500 0.572776 0.122923
C24   C     C_3   0.570174 0.249528 0.427248 0.122921
H15   H     H_    0.551717 0.797155 0.559838 0.110193
H16   H     H_    0.448276 0.297198 0.440224 0.110197
H17   H     H_    0.386786 0.801791 0.367584 0.196948
H18   H     H_    0.613237 0.301801 0.632404 0.196955
H19   H     H_    0.374783 0.905533 0.476643 0.184793
H20   H     H_    0.625370 0.405567 0.523369 0.184796
H21   H     H_    0.993064 0.578191 0.771962 0.142644
H22   H     H_    0.006891 0.078188 0.228045 0.142616
C25   C     C_R   0.362988 0.936019 0.027346 -0.201377
C26   C     C_R   0.637006 0.436018 0.972654 -0.201382
C27   C     C_R   0.428936 0.963959 0.105212 -0.094499
C28   C     C_R   0.571057 0.463957 0.894789 -0.094511
C29   C     C_R   0.440563 0.900461 0.170094 -0.107618
C30   C     C_R   0.559435 0.400459 0.829906 -0.107604
C31   C     C_R   0.386456 0.808500 0.157601 -0.183329
C32   C     C_R   0.613546 0.308499 0.842399 -0.183324
C33   C     C_R   0.320437 0.777717 0.079004 0.121855
C34   C     C_R   0.679564 0.277717 0.920995 0.121850
C35   C     C_R   0.307934 0.842892 0.012473 0.114087
C36   C     C_R   0.692064 0.342892 0.987527 0.114090
C37   C     C_R   0.262971 0.684331 0.066634 -0.303351
C38   C     C_R   0.737030 0.184331 0.933365 -0.303354
C39   C     C_R   0.190969 0.656423 0.987938 0.107023
C40   C     C_R   0.809026 0.156423 0.012063 0.107023
C41   C     C_R   0.175984 0.721867 0.921740 0.081035
C42   C     C_R   0.824006 0.221866 0.078261 0.081044
C43   C     C_R   0.236413 0.814919 0.933657 -0.295155
C44   C     C_R   0.763583 0.314919 0.066343 -0.295160
C45   C     C_R   0.136316 0.563241 0.973085 -0.185337
C46   C     C_R   0.863674 0.063241 0.026917 -0.185336
C47   C     C_R   0.065517 0.535795 0.895942 -0.152117
C48   C     C_R   0.934460 0.035794 0.104062 -0.152094
C49   C     C_R   0.047980 0.599908 0.831854 -0.033588
C50   C     C_R   0.951987 0.099906 0.168151 -0.033654
C51   C     C_R   0.103634 0.691704 0.844044 -0.058848
C52   C     C_R   0.896342 0.191703 0.155960 -0.058860
H23   H     H_    0.352878 0.988777 0.979657 0.129494
H24   H     H_    0.647113 0.488776 0.020344 0.129498
H25   H     H_    0.469390 0.035547 0.115468 0.158874
H26   H     H_    0.530599 0.535544 0.884533 0.158880
H27   H     H_    0.395351 0.762317 0.210531 0.117751
H28   H     H_    0.604656 0.262317 0.789468 0.117761
H29   H     H_    0.149569 0.510170 0.020345 0.133304
H30   H     H_    0.850427 0.010170 0.979656 0.133301
H31   H     H_    0.024974 0.464220 0.885736 0.143264
H32   H     H_    0.974998 0.964219 0.114269 0.143258
H33   H     H_    0.490446 0.922711 0.230671 0.149597
H34   H     H_    0.509552 0.422708 0.769328 0.149611
H35   H     H_    0.090767 0.738164 0.791486 0.125661
H36   H     H_    0.909204 0.238163 0.208518 0.125659
N1    N     N_R   0.615816 0.665870 0.464670 0.219115
O21   O     O_R   0.703772 0.586309 0.462453 -0.465025
O22   O     O_R   0.672719 0.733462 0.416791 -0.475520
N2    N     N_R   0.384166 0.165866 0.535346 0.219120
O23   O     O_R   0.296217 0.086301 0.537547 -0.465022
O24   O     O_R   0.327273 0.233440 0.583247 -0.475481
N3    N     N_R   0.458103 0.710846 0.656595 0.216345
O25   O     O_R   0.349456 0.644715 0.684919 -0.475198
O26   O     O_R   0.604461 0.736817 0.700470 -0.409916
N4    N     N_R   0.541718 0.210899 0.343428 0.216369
O27   O     O_R   0.650324 0.144778 0.315056 -0.475189
O28   O     O_R   0.395287 0.236879 0.299604 -0.409898

loop_
_geom_bond_atom_site_label_1
_geom_bond_atom_site_label_2
_geom_bond_distance
_ccdc_geom_bond_type
C20   C24   1.570269 S    
V4    O20   2.172801 S    
O11   V3    1.994058 S    
C3    C44   1.488608 S    
C23   N3    1.469912 S    
O13   V3    1.721790 S    
C45   H29   1.081384 S    
C15   C23   1.562911 S    
O4    C2    1.311742 A    
V1    O19   1.720446 S    
C39   C45   1.417124 A    
C11   H5    1.109518 S    
C48   H32   1.082726 S    
C14   C18   1.561474 S    
C13   H17   1.107456 S    
C10   C12   1.550687 S    
C38   C40   1.419786 A    
C16   N2    1.451940 S    
O3    C1    1.311747 A    
C26   H24   1.081321 S    
C51   H35   1.080901 S    
C32   C34   1.416269 A    
C19   C21   1.554144 S    
C20   C22   1.554142 S    
C11   C19   1.554902 S    
N2    O23   1.302402 A    
C23   H15   1.115286 S    
O7    C3    1.306214 A    
C24   H16   1.115292 S    
C21   H19   1.112944 S    
O5    C7    1.313699 A    
O7    V1    2.007784 S    
O6    C8    1.313705 A    
O8    V2    2.007791 S    
C50   C52   1.393461 A    
O3    V1    1.996582 S    
O14   V4    1.721796 S    
C1    C20   1.524851 S    
C15   H13   1.115169 S    
C34   C38   1.419207 A    
C28   H26   1.082870 S    
C35   C43   1.420543 A    
C12   H6    1.109518 S    
C2    O12   1.303897 A    
C7    C17   1.538708 S    
O17   V3    2.004543 S    
C27   C29   1.388806 A    
O1    V3    2.001905 S    
C16   C18   1.562947 S    
H12   C22   1.113360 S    
C39   C41   1.424748 A    
C9    C17   1.538445 S    
C29   H33   1.082789 S    
C12   C20   1.554904 S    
C40   C42   1.424746 A    
C32   H28   1.081060 S    
C52   H36   1.080901 S    
C34   C36   1.424969 A    
O8    C4    1.306212 A    
C33   C35   1.424969 A    
C8    C18   1.538715 S    
O13   V1    2.171369 S    
C11   H7    1.113127 S    
C1    O11   1.303895 A    
C25   H23   1.081321 S    
C9    H3    1.113281 S    
C15   C17   1.562937 S    
H22   C50   1.082793 S    
C4    C43   1.488611 S    
C2    C19   1.524851 S    
C45   C47   1.392658 A    
C29   C31   1.393418 A    
H9    C13   1.113273 S    
O9    V1    1.992614 S    
O10   V2    1.992613 S    
C46   C48   1.392658 A    
C31   C33   1.416268 A    
C9    C11   1.550685 S    
C48   C50   1.388350 A    
C14   H18   1.107457 S    
N3    O26   1.301279 A    
C5    C37   1.487887 S    
C26   C28   1.393260 A    
C37   C39   1.419783 A    
C42   C44   1.419697 A    
C10   C18   1.538455 S    
O15   C5    1.306546 A    
O16   C6    1.306545 A    
C31   H27   1.081059 S    
O1    C3    1.303414 A    
C28   C30   1.388805 A    
N4    O28   1.301291 A    
C24   N4    1.469906 S    
C25   C27   1.393261 A    
N1    O21   1.302398 A    
V2    O20   1.720439 S    
C46   H30   1.081386 S    
O10   C6    1.302642 A    
C27   H25   1.082869 S    
O16   V4    1.999207 S    
C10   H4    1.113280 S    
C15   N1    1.451929 S    
C30   C32   1.393418 A    
H21   C49   1.082792 S    
C36   C44   1.420544 A    
N3    O25   1.300850 A    
C49   C51   1.393463 A    
C19   C23   1.570255 S    
O5    V1    2.003798 S    
C25   C35   1.417192 A    
O17   C7    1.308523 A    
O6    V2    2.003803 S    
H10   C14   1.113272 S    
O18   C8    1.308520 A    
C13   C21   1.554577 S    
C30   H34   1.082789 S    
O2    V4    2.001906 S    
C14   C22   1.554580 S    
C41   C43   1.419698 A    
C6    C38   1.487885 S    
V3    O19   2.172791 S    
C40   C46   1.417123 A    
C47   H31   1.082725 S    
C33   C37   1.419208 A    
O15   V3    1.999212 S    
C13   C17   1.561472 S    
O9    C5    1.302641 A    
C9    H1    1.082840 S    
C10   H2    1.082839 S    
N2    O24   1.302309 A    
O14   V2    2.171359 S    
O2    C4    1.303415 A    
C42   C52   1.416029 A    
H11   C21   1.113355 S    
O4    V2    1.996585 S    
C12   H8    1.113131 S    
C22   H20   1.112946 S    
C47   C49   1.388347 A    
C16   C24   1.562896 S    
C41   C51   1.416027 A    
N4    O27   1.300850 A    
O12   V4    1.994053 S    
C26   C36   1.417192 A    
C16   H14   1.115168 S    
N1    O22   1.302311 A    
O18   V4    2.004539 S    
