data_mof_unit_56728.cif
_audit_creation_date              2013-03-05T16:45:09-0500
_audit_creation_method            fapswitch 2.2
_symmetry_space_group_name_H-M    P1
_symmetry_Int_Tables_number       1
_space_group_crystal_system       triclinic
_cell_length_a                    14.718775
_cell_length_b                    15.522507
_cell_length_c                    9.936977
_cell_angle_alpha                 90.200357
_cell_angle_beta                  89.879085
_cell_angle_gamma                 89.51157
_cell_volume                      2270.222298

loop_
_atom_site_label
_atom_site_type_symbol
_atom_site_description
_atom_site_fract_x
_atom_site_fract_y
_atom_site_fract_z
_atom_type_partial_charge
O1    O     O_R   0.408400 0.908380 0.614690 -0.627065
O2    O     O_R   0.408400 0.091620 0.614690 -0.619252
O3    O     O_R   0.908400 0.408380 0.614690 -0.620552
O4    O     O_R   0.908400 0.591620 0.614690 -0.623261
O5    O     O_R   0.408370 0.908370 0.385350 -0.595681
O6    O     O_R   0.408370 0.091630 0.385350 -0.571416
O7    O     O_R   0.908370 0.408370 0.385350 -0.569349
O8    O     O_R   0.908370 0.591630 0.385350 -0.561834
C1    C     C_R   0.379751 0.879952 0.500389 0.935987
C2    C     C_R   0.380885 0.120340 0.500008 0.941946
C3    C     C_R   0.880296 0.379561 0.500169 0.933332
C4    C     C_R   0.880879 0.620384 0.500046 0.941272
Zn1   Zn    Zn3+2 0.500010 0.000000 0.653130 1.051920
Zn2   Zn    Zn3+2 0.000010 0.500000 0.653130 1.060060
Zn3   Zn    Zn3+2 0.499980 0.000000 0.346870 1.039649
Zn4   Zn    Zn3+2 0.999980 0.500000 0.346870 1.067538
O9    O     O_R   0.591610 0.091610 0.614650 -0.580613
O10   O     O_R   0.591610 0.908390 0.614650 -0.559446
O11   O     O_R   0.091610 0.591610 0.614650 -0.583982
O12   O     O_R   0.091610 0.408390 0.614650 -0.564153
O13   O     O_R   0.591590 0.091600 0.385310 -0.625110
O14   O     O_R   0.591590 0.908400 0.385310 -0.584432
O15   O     O_R   0.091590 0.591600 0.385310 -0.630389
O16   O     O_R   0.091590 0.408400 0.385310 -0.576166
C5    C     C_R   0.623457 0.116366 0.500113 0.859363
C6    C     C_R   0.621743 0.882352 0.499913 0.868454
C7    C     C_R   0.123297 0.616384 0.500239 0.857642
C8    C     C_R   0.121506 0.382037 0.500040 0.862662
C9    C     C_R   0.245731 0.186785 0.591830 -0.055802
C10   C     C_R   0.284220 0.777039 0.622608 0.048311
C11   C     C_R   0.743051 0.684839 0.587493 -0.068858
C12   C     C_R   0.786892 0.275390 0.621819 0.057972
C13   C     C_R   0.316920 0.188323 0.500013 -0.046241
C14   C     C_R   0.320288 0.807483 0.501847 -0.039567
C15   C     C_R   0.816740 0.688308 0.500066 -0.036304
C16   C     C_R   0.821785 0.306527 0.500807 -0.048340
C17   C     C_R   0.329104 0.258618 0.414384 -0.151684
C18   C     C_R   0.306917 0.759644 0.383945 -0.143796
C19   C     C_R   0.831025 0.760305 0.418671 -0.155532
C20   C     C_R   0.806322 0.260558 0.381489 -0.169776
H1    H     H_    0.386317 0.261373 0.345741 0.173696
H2    H     H_    0.340512 0.775819 0.291502 0.174519
H3    H     H_    0.889991 0.764393 0.353573 0.174015
H4    H     H_    0.837684 0.278919 0.287310 0.203898
C21   C     C_R   0.767081 0.826239 0.419103 -0.130847
C22   C     C_R   0.743980 0.194236 0.381292 -0.184606
C23   C     C_R   0.265063 0.324407 0.414974 -0.119056
C24   C     C_R   0.244876 0.693226 0.383134 -0.166664
H5    H     H_    0.775994 0.880938 0.353624 0.175525
H6    H     H_    0.725481 0.165647 0.286300 0.171743
H7    H     H_    0.272056 0.377424 0.345760 0.179476
H8    H     H_    0.228228 0.663301 0.288417 0.168823
C25   C     C_R   0.690858 0.819443 0.502346 -0.097344
C26   C     C_R   0.700656 0.171389 0.501654 -0.104280
C27   C     C_R   0.191111 0.319473 0.503018 -0.100274
C28   C     C_R   0.200054 0.671602 0.502505 -0.108162
C29   C     C_R   0.681792 0.751819 0.591884 0.085888
C30   C     C_R   0.731281 0.204870 0.623461 0.093260
C31   C     C_R   0.185102 0.254158 0.597640 0.090668
C32   C     C_R   0.229304 0.706147 0.624204 0.094691
C33   C     C_3   0.601853 0.693954 0.605540 0.031204
C34   C     C_3   0.677001 0.238239 0.740448 0.102692
C35   C     C_3   0.105792 0.196827 0.622017 0.030561
C36   C     C_3   0.174680 0.738550 0.741307 0.114031
C37   C     C_3   0.172069 0.121121 0.609464 0.071663
C38   C     C_3   0.232091 0.819087 0.736090 0.002187
C39   C     C_3   0.669014 0.618826 0.597261 0.077620
C40   C     C_3   0.734683 0.318520 0.734272 -0.006160
H9    H     H_    0.553294 0.700504 0.520335 0.130501
H10   H     H_    0.603597 0.248619 0.717804 0.157692
H11   H     H_    0.053133 0.202514 0.542181 0.133807
H12   H     H_    0.101254 0.748655 0.718579 0.154295
H13   H     H_    0.181675 0.082087 0.701277 0.188803
H14   H     H_    0.273413 0.830472 0.827046 0.147195
H15   H     H_    0.675274 0.579485 0.689293 0.196337
H16   H     H_    0.776111 0.330780 0.825504 0.156662
C41   C     C_R   0.430178 0.036235 0.070309 0.056774
C42   C     C_R   0.931642 0.538807 0.070719 0.090694
N1    N     N_R   0.499140 1.000000 0.142800 -0.187799
N2    N     N_R   0.999140 0.500000 0.142800 -0.168209
C43   C     C_R   0.574523 0.973339 0.072619 0.439305
C44   C     C_R   0.074032 0.472112 0.072535 0.469860
C45   C     C_R   0.574059 0.971653 0.928264 0.278712
C46   C     C_R   0.073818 0.470990 0.928142 0.287266
N3    N     N_R   0.499160 0.000000 0.857150 -0.169119
N4    N     N_R   0.999160 0.500000 0.857150 -0.157398
C47   C     C_R   0.432328 0.040568 0.928858 0.038648
C48   C     C_R   0.932936 0.541239 0.929760 0.051417
C49   C     C_3   0.333111 0.026224 0.914968 -0.573457
C50   C     C_3   0.833134 0.528074 0.922147 -0.628806
C51   C     C_3   0.331180 0.012618 0.068072 0.930046
C52   C     C_3   0.831975 0.522571 0.078040 0.925759
H17   H     H_    0.298396 0.086363 0.881871 0.223299
H18   H     H_    0.316724 0.969750 0.852095 0.209308
H19   H     H_    0.799334 0.585289 0.877390 0.208070
H20   H     H_    0.817274 0.466933 0.870390 0.219796
O17   O     O_3   0.279502 0.076362 0.137026 -0.613753
C53   C     C_3   0.185568 0.060621 0.123533 0.006671
H21   H     H_    0.165549 0.001942 0.179626 0.224228
H22   H     H_    0.164751 0.054941 0.016462 0.172649
H23   H     H_    0.147549 0.115878 0.167819 0.195668
O18   O     O_3   0.309839 0.927196 0.111951 -0.605915
C54   C     C_3   0.368502 0.860920 0.063335 -0.301166
H24   H     H_    0.425772 0.850711 0.133809 0.189558
H25   H     H_    0.396366 0.871377 0.961361 0.146801
H26   H     H_    0.329613 0.800154 0.058752 0.230488
O19   O     O_3   0.790966 0.589454 0.156294 -0.602773
C55   C     C_3   0.712230 0.625111 0.097251 -0.193531
H27   H     H_    0.671496 0.577613 0.039824 0.174032
H28   H     H_    0.731564 0.679783 0.031798 0.220759
H29   H     H_    0.668206 0.651434 0.178573 0.221522
O20   O     O_3   0.817178 0.438926 0.130299 -0.617582
C56   C     C_3   0.724478 0.417221 0.124861 -0.181571
H30   H     H_    0.696370 0.424288 0.022241 0.174635
H31   H     H_    0.684124 0.455776 0.198141 0.244052
H32   H     H_    0.717285 0.348528 0.152606 0.192977
N5    N     N_R   0.557667 0.702340 0.736990 0.251197
O21   O     O_R   0.470165 0.713697 0.743738 -0.362373
O22   O     O_R   0.604531 0.699085 0.847689 -0.391016
N6    N     N_R   0.691819 0.188916 0.863548 0.224284
O23   O     O_R   0.623628 0.175264 0.943840 -0.439920
O24   O     O_R   0.773115 0.164601 0.899380 -0.354909
N7    N     N_R   0.068422 0.207520 0.757744 0.251858
O25   O     O_R   0.982546 0.225395 0.773199 -0.347148
O26   O     O_R   0.119688 0.199386 0.863617 -0.358669
N8    N     N_R   0.189745 0.688635 0.863764 0.227413
O27   O     O_R   0.121941 0.675309 0.944909 -0.433957
O28   O     O_R   0.270900 0.662767 0.897666 -0.372897
N9    N     N_R   0.156802 0.069240 0.487951 0.230155
O29   O     O_R   0.074854 0.058449 0.442233 -0.363382
O30   O     O_R   0.221694 0.020199 0.441312 -0.367759
N10   N     N_R   0.176074 0.892865 0.696600 0.198291
O31   O     O_R   0.135101 0.892095 0.580624 -0.324559
O32   O     O_R   0.142401 0.941118 0.791895 -0.402989
N11   N     N_R   0.658964 0.567550 0.473916 0.232894
O33   O     O_R   0.579288 0.557348 0.419839 -0.370510
O34   O     O_R   0.725552 0.518362 0.433515 -0.366773
N12   N     N_R   0.678943 0.391946 0.691747 0.195982
O35   O     O_R   0.640278 0.390570 0.574037 -0.334277
O36   O     O_R   0.642853 0.440325 0.784823 -0.426186
O37   O     O_3   0.649639 0.944696 0.143140 -0.583129
C57   C     C_3   0.719983 0.005762 0.133649 -0.125129
H33   H     H_    0.757450 0.007131 0.230193 0.142237
H34   H     H_    0.695649 0.072628 0.114786 0.181093
H35   H     H_    0.768905 0.986314 0.053880 0.227793
O38   O     O_3   0.149253 0.443624 0.142894 -0.575282
C58   C     C_3   0.218793 0.505645 0.135109 -0.143778
H36   H     H_    0.255769 0.506922 0.232071 0.142735
H37   H     H_    0.193678 0.572346 0.116791 0.178112
H38   H     H_    0.268362 0.487288 0.055601 0.231317
N13   N     N_R   0.653240 0.941388 0.858726 0.232801
O39   O     O_R   0.700435 0.994760 0.786910 -0.334924
O40   O     O_R   0.688193 0.866596 0.888351 -0.346641
N14   N     N_R   0.153496 0.441837 0.858574 0.227717
O41   O     O_R   0.199348 0.495753 0.785874 -0.335520
O42   O     O_R   0.190632 0.368295 0.889886 -0.317632

loop_
_geom_bond_atom_site_label_1
_geom_bond_atom_site_label_2
_geom_bond_distance
_ccdc_geom_bond_type
C30   C34   1.497604 S    
C35   C37   1.525466 S    
N8    O27   1.300098 A    
C27   C31   1.388388 A    
C35   N7    1.463855 S    
Zn4   O16   1.989731 S    
C40   N12   1.462742 S    
C58   H36   1.107800 S    
O10   C6    1.285135 A    
C12   C30   1.372542 A    
O17   C53   1.412635 S    
N7    O25   1.300447 A    
O7    C3    1.295079 A    
Zn1   O10   1.986814 S    
C17   H1    1.083802 S    
C12   C16   1.396086 A    
C3    C16   1.429543 S    
C58   H37   1.112120 S    
C46   N4    1.380226 A    
C18   H2    1.073865 S    
C24   H8    1.077736 S    
N5    O22   1.300526 A    
C15   C19   1.398932 A    
C42   N2    1.363353 A    
N7    O26   1.301847 A    
C33   H9    1.113541 S    
C38   H14   1.105025 S    
C9    C13   1.388330 A    
C37   H13   1.105635 S    
C55   H27   1.111194 S    
C34   H10   1.114542 S    
N11   O34   1.299297 A    
C49   H18   1.103354 S    
O2    Zn1   1.989951 S    
C16   C20   1.401694 A    
C44   O38   1.381034 S    
O6    Zn3   1.987132 S    
C56   H30   1.106721 S    
C46   N14   1.429476 S    
Zn3   O14   1.989731 S    
Zn3   N1    2.027904 S    
C9    C31   1.369976 A    
N10   O31   1.301906 A    
C10   C32   1.371039 A    
N13   O39   1.300013 A    
O15   C7    1.293173 A    
C49   C51   1.536949 S    
O11   C7    1.289119 A    
N14   O42   1.300492 A    
C18   C24   1.383061 A    
C12   C40   1.506576 S    
C56   H32   1.108179 S    
C43   O37   1.381368 S    
C21   C25   1.397408 A    
O8    Zn4   1.987132 S    
N13   O40   1.300786 A    
O4    Zn2   1.989951 S    
C57   H35   1.109127 S    
O20   C56   1.409294 S    
C43   C45   1.434630 A    
C8    C27   1.406047 S    
N6    O24   1.302332 A    
C38   N10   1.460723 S    
N3    C47   1.362078 A    
C45   N13   1.428786 S    
C10   C14   1.396671 A    
C33   N5    1.462833 S    
Zn2   O12   1.986814 S    
N11   O33   1.301678 A    
C58   H38   1.109135 S    
O1    C1    1.290071 A    
C5    C26   1.427353 S    
Zn2   N4    2.027355 S    
N2    C44   1.369858 A    
N1    C43   1.369526 A    
C25   C29   1.385539 A    
C7    C28   1.424093 S    
C52   O20   1.418443 S    
C19   H3    1.083797 S    
O12   C8    1.284354 A    
C42   C52   1.492250 S    
C13   C17   1.398569 A    
C28   C32   1.391736 A    
Zn4   N2    2.027904 S    
C36   C38   1.515874 S    
O1    Zn1   2.004420 S    
C39   N11   1.467523 S    
O5    C1    1.297475 A    
C37   N9    1.467813 S    
C33   C39   1.524226 S    
C52   O19   1.424261 S    
C50   C52   1.551826 S    
C21   H5    1.080221 S    
O8    C4    1.285823 A    
C22   C26   1.402325 A    
C17   C23   1.383807 A    
C41   N1    1.364453 A    
C54   H25   1.105396 S    
C51   O17   1.416806 S    
C4    C15   1.409218 S    
C29   C33   1.492574 S    
N14   O41   1.299839 A    
C10   C38   1.506327 S    
O3    Zn2   2.004419 S    
N12   O36   1.299155 A    
C9    C37   1.504800 S    
O7    Zn4   2.005418 S    
C45   N3    1.380403 A    
C35   H11   1.113477 S    
Zn4   O15   2.004197 S    
C44   C46   1.434881 A    
C47   C49   1.485741 S    
C1    C14   1.431258 S    
C11   C15   1.389733 A    
C31   C35   1.493782 S    
O4    C4    1.289839 A    
C20   C22   1.384895 A    
O19   C55   1.409907 S    
O2    C2    1.289899 A    
C6    C25   1.404407 S    
C57   H34   1.111764 S    
N6    O23   1.300121 A    
C23   C27   1.397845 A    
O38   C58   1.413317 S    
C26   C30   1.392924 A    
C42   C48   1.401433 A    
C24   C28   1.399359 A    
O13   C5    1.292855 A    
C41   C51   1.505741 S    
N8    O28   1.302312 A    
C14   C18   1.400062 A    
C34   N6    1.461117 S    
Zn2   O11   2.005095 S    
O16   C8    1.289736 A    
C48   C50   1.486874 S    
C50   H19   1.109163 S    
O6    C2    1.285236 A    
C23   H7    1.079813 S    
C2    C13   1.408203 S    
C50   H20   1.104807 S    
Zn1   O9    2.005095 S    
C40   H16   1.110413 S    
C53   H23   1.109347 S    
C22   H6    1.078095 S    
C36   N8    1.461180 S    
C55   H29   1.109414 S    
C19   C21   1.384494 A    
C32   C36   1.496183 S    
O9    C5    1.290990 A    
C11   C29   1.370902 A    
N9    O29   1.301729 A    
N5    O21   1.300007 A    
Zn3   O13   2.004197 S    
C55   H28   1.109687 S    
C54   H26   1.108337 S    
N4    C48   1.365154 A    
C34   C40   1.515200 S    
C36   H12   1.114446 S    
C49   H17   1.111489 S    
O18   C54   1.420186 S    
C53   H22   1.111238 S    
O5    Zn3   2.005418 S    
O3    C3    1.291444 A    
N12   O35   1.302047 A    
C11   C39   1.505397 S    
C20   H4    1.082779 S    
C39   H15   1.105013 S    
C41   C47   1.407747 A    
N10   O32   1.300031 A    
C53   H21   1.111124 S    
O14   C6    1.288268 A    
Zn1   N3    2.027355 S    
C54   H24   1.107737 S    
C57   H33   1.107802 S    
C51   O18   1.434403 S    
C56   H31   1.109173 S    
O37   C57   1.412925 S    
N9    O30   1.299931 A    
