data_mof_unit_39901.cif
_audit_creation_date              2012-12-10T18:08:21-0500
_audit_creation_method            fapswitch 2.2
_symmetry_space_group_name_H-M    P1
_symmetry_Int_Tables_number       1
_space_group_crystal_system       triclinic
_cell_length_a                    12.666326
_cell_length_b                    13.008715
_cell_length_c                    14.141356
_cell_angle_alpha                 91.297126
_cell_angle_beta                  102.013267
_cell_angle_gamma                 81.499807
_cell_volume                      2253.96324503

loop_
_atom_site_label
_atom_site_type_symbol
_atom_type_description
_atom_site_fract_x
_atom_site_fract_y
_atom_site_fract_z
_atom_type_partial_charge
C1    C     C_R   0.438098 0.690644 0.478022 0.901817
C2    C     C_1   0.496893 0.498829 0.227533 -0.111895
C3    C     C_R   0.695658 0.066383 0.402853 0.320327
C4    C     C_R   0.603569 0.196725 0.497336 -0.212639
C5    C     C_R   0.286096 0.844940 0.431757 0.458002
C6    C     C_R   0.262488 0.952945 0.447369 0.032073
C7    C     C_R   0.347438 0.013072 0.464214 -0.194585
C8    C     C_R   0.454887 0.969576 0.459201 0.099889
C9    C     C_R   0.474979 0.864253 0.436341 0.008383
C10   C     C_R   0.540509 0.030091 0.467857 0.038659
C11   C     C_R   0.630696 0.994304 0.424613 -0.077162
C12   C     C_R   0.501324 0.499916 0.670469 0.888307
C13   C     C_R   0.651581 0.887414 0.403675 0.204099
C14   C     C_R   0.571666 0.825399 0.405285 -0.105064
C15   C     C_R   0.538058 0.125489 0.516579 0.123620
C16   C     C_R   0.690556 0.163861 0.448617 0.219588
C17   C     C_R   0.397624 0.799635 0.445070 -0.288614
C18   C     C_R   0.076039 0.444640 0.314960 -0.163567
C19   C     C_R   0.815589 0.553279 0.643390 0.508583
C20   C     C_R   0.912860 0.490388 0.682573 -0.235123
C21   C     C_R   0.980617 0.451260 0.621279 -0.036856
C22   C     C_R   0.956187 0.488384 0.525669 0.095735
C23   C     C_R   0.562416 0.307759 0.507822 0.881998
C24   C     C_R   0.847591 0.530126 0.485117 0.160237
C25   C     C_R   0.035548 0.483703 0.469919 -0.190496
C26   C     C_R   0.000806 0.486464 0.368822 -0.088545
C27   C     C_R   0.891518 0.526481 0.326233 0.441687
C28   C     C_R   0.816758 0.552288 0.386182 -0.243533
C29   C     C_R   0.147976 0.484619 0.509624 0.439293
C30   C     C_R   0.183601 0.411218 0.361404 0.484981
C31   C     C_R   0.498832 0.499694 0.329540 0.838789
C32   C     C_1   0.503389 0.499771 0.772513 -0.061869
C33   C     C_1   0.502926 0.499321 0.857805 0.076155
C34   C     C_1   0.500971 0.498670 0.957490 0.084780
C35   C     C_1   0.498914 0.498253 0.042464 0.081171
C36   C     C_1   0.497015 0.498235 0.142167 0.027723
H1    H     H_    0.049945 0.428917 0.238876 0.245235
H2    H     H_    0.057756 0.404355 0.651231 0.190419
H3    H     H_    0.940630 0.480081 0.759974 0.181757
H4    H     H_    0.736335 0.592018 0.356136 0.172602
H5    H     H_    0.326357 0.095901 0.471354 0.208914
H6    H     H_    0.585499 0.746390 0.379931 0.152489
N1    N     N_R   0.222200 0.444680 0.454480 -0.203979
N2    N     N_R   0.776970 0.554780 0.545050 -0.173547
O1    O     O_R   0.366740 0.627160 0.478260 -0.498895
O2    O     O_R   0.544830 0.662520 0.507340 -0.583871
O3    O     O_R   0.410930 0.482320 0.611740 -0.542558
O4    O     O_R   0.589030 0.517680 0.640820 -0.556800
O5    O     O_R   0.455170 0.337480 0.492660 -0.565944
O6    O     O_R   0.633260 0.372840 0.521740 -0.556053
O7    O     O_R   0.410970 0.482320 0.359180 -0.516946
O8    O     O_R   0.589070 0.517680 0.388260 -0.643846
Zn1   Zn    Zn3+2 0.381090 0.476390 0.480580 1.110665
Zn2   Zn    Zn3+2 0.618910 0.523610 0.519420 1.031052
S1    S     S_3+6 0.800773 0.236787 0.454543 0.098642
O9    O     O_2   0.832393 0.277543 0.555165 -0.286027
O10   O     O_2   0.899553 0.170437 0.431513 -0.215459
O11   O     O_3   0.763255 0.336816 0.375692 -0.489158
H7    H     H_    0.688303 0.330066 0.340931 0.353177
S2    S     S_3+6 0.848665 0.555768 0.201123 0.062500
O12   O     O_2   0.937059 0.598237 0.164720 -0.195524
O13   O     O_2   0.825123 0.458208 0.146919 -0.277486
O14   O     O_3   0.735918 0.645255 0.180350 -0.518442
H8    H     H_    0.674706 0.606025 0.180140 0.347871
S3    S     S_3+6 0.185317 0.555606 0.620125 0.065213
O15   O     O_2   0.086737 0.618590 0.647194 -0.274489
O16   O     O_2   0.238592 0.479281 0.700269 -0.338220
O17   O     O_3   0.268858 0.642445 0.613645 -0.474578
H9    H     H_    0.287050 0.670245 0.679912 0.372135
S4    S     S_3+6 0.762049 0.646467 0.720443 0.088543
O18   O     O_2   0.850435 0.708199 0.766410 -0.235861
O19   O     O_2   0.667803 0.720124 0.665952 -0.241179
O20   O     O_3   0.722325 0.586923 0.808581 -0.530048
H10   H     H_    0.790701 0.552983 0.850456 0.371446
C37   C     C_3   0.763440 0.832425 0.397239 -0.695147
H11   H     H_    0.828077 0.879797 0.427677 0.266381
H12   H     H_    0.782940 0.760793 0.442435 0.199654
H13   H     H_    0.766528 0.810430 0.321510 0.298491
S5    S     S_3+6 0.747088 0.051435 0.293635 0.088833
O21   O     O_2   0.865268 0.004012 0.314790 -0.239339
O22   O     O_2   0.682617 0.982908 0.224505 -0.254191
O23   O     O_3   0.734986 0.167486 0.239401 -0.509524
H14   H     H_    0.771773 0.153444 0.184140 0.409942
C38   C     C_3   0.484742 0.144075 0.603629 -0.810024
H15   H     H_    0.407384 0.198815 0.586110 0.251767
H16   H     H_    0.540712 0.177491 0.663587 0.237142
H17   H     H_    0.468499 0.070385 0.632010 0.252284
S6    S     S_3+6 0.177677 0.775348 0.376740 0.071216
O24   O     O_2   0.097452 0.843430 0.302183 -0.236906
O25   O     O_2   0.219002 0.679199 0.326729 -0.268638
O26   O     O_3   0.112294 0.743103 0.461065 -0.501370
H18   H     H_    0.047102 0.715409 0.424422 0.376720
C39   C     C_3   0.148162 0.006398 0.446668 -0.580194
H19   H     H_    0.102619 0.021511 0.371229 0.296956
H20   H     H_    0.104721 0.958193 0.485045 0.264317
H21   H     H_    0.148844 0.082405 0.484089 0.216385
S7    S     S_3+6 0.256849 0.319795 0.294442 0.058180
O27   O     O_2   0.349048 0.250687 0.356221 -0.319030
O28   O     O_2   0.178640 0.251603 0.240666 -0.271010
O29   O     O_3   0.302572 0.382095 0.211825 -0.528366
H22   H     H_    0.339213 0.326311 0.175940 0.385774

loop_
_geom_bond_atom_site_label_1
_geom_bond_atom_site_label_2
_ccdc_geom_bond_type
S1    O9    D    
C39   H19   S    
O20   H10   S    
C19   C20   A    
C18   C26   A    
C38   H17   S    
C31   O8    A    
C12   O4    A    
C3    S5    S    
S7    O27   D    
C7    C8    A    
O4    Zn2   S    
C30   S7    S    
C26   C27   A    
O6    Zn2   S    
S2    O14   S    
C18   H1    S    
C38   H16   S    
C10   C15   A    
C5    C6    A    
C1    O2    A    
C23   O5    A    
C5    C17   A    
C28   H4    S    
S2    O13   D    
C34   C35   T    
C5    S6    S    
N1    Zn1   S    
C21   H2    S    
C13   C37   S    
C8    C9    A    
S3    O16   D    
C22   C25   A    
S4    O18   D    
C18   C30   A    
C14   H6    S    
S3    O17   S    
O1    Zn1   S    
C39   H20   S    
C13   C14   A    
C29   N1    A    
C12   O3    A    
S7    O28   D    
O8    Zn2   S    
C25   C29   A    
C38   H15   S    
O26   H18   S    
S5    O22   D    
C20   H3    S    
O17   H9    S    
C23   O6    A    
O11   H7    S    
S5    O21   D    
S2    O12   D    
O7    Zn1   S    
C35   C36   S    
C4    C16   A    
C37   H11   S    
S6    O26   S    
C6    C39   S    
O2    Zn2   S    
S4    O20   S    
C33   C34   S    
C9    C14   A    
S6    O24   D    
C37   H12   S    
C15   C38   S    
C29   S3    S    
C9    C17   A    
S6    O25   D    
O23   H14   S    
C39   H21   S    
S1    O10   D    
C24   N2    A    
C22   C24   A    
C30   N1    A    
S7    O29   S    
C19   N2    A    
C2    C36   T    
C4    C23   S    
C24   C28   A    
C31   O7    A    
S5    O23   S    
C6    C7    A    
C1    C17   S    
O3    Zn1   S    
C27   S2    S    
C32   C33   T    
C4    C15   A    
C25   C26   A    
C16   S1    S    
C11   C13   A    
C1    O1    A    
O5    Zn1   S    
O29   H22   S    
C7    H5    S    
C37   H13   S    
C3    C11   A    
C10   C11   A    
O14   H8    S    
N2    Zn2   S    
C20   C21   A    
C8    C10   A    
S3    O15   D    
S1    O11   S    
C27   C28   A    
C2    C31   S    
C19   S4    S    
S4    O19   D    
C21   C22   A    
C12   C32   S    
C3    C16   A    
