data_mof_unit_10682.cif
_audit_creation_date              2012-12-10T18:18:22-0500
_audit_creation_method            fapswitch 2.2
_symmetry_space_group_name_H-M    P1
_symmetry_Int_Tables_number       1
_space_group_crystal_system       triclinic
_cell_length_a                    14.008158
_cell_length_b                    15.015769
_cell_length_c                    15.473444
_cell_angle_alpha                 89.971048
_cell_angle_beta                  67.989386
_cell_angle_gamma                 90.014021
_cell_volume                      3017.51085705

loop_
_atom_site_label
_atom_site_type_symbol
_atom_type_description
_atom_site_fract_x
_atom_site_fract_y
_atom_site_fract_z
_atom_type_partial_charge
C1    C     C_R   0.500044 0.673557 0.499868 0.900927
C2    C     C_R   0.499956 0.326447 0.500132 0.900864
C3    C     C_R   0.379111 0.426684 0.102902 -0.246383
C4    C     C_R   0.623003 0.431498 0.895887 -0.240497
C5    C     C_R   0.305778 0.426515 0.062357 -0.224899
C6    C     C_R   0.696336 0.432097 0.936425 -0.223785
C7    C     C_R   0.414266 0.184777 0.497168 -0.257326
C8    C     C_R   0.585743 0.815244 0.502811 -0.257991
C9    C     C_R   0.499883 0.230571 0.500282 -0.078733
C10   C     C_R   0.500116 0.769444 0.499719 -0.080881
C11   C     C_R   0.585468 0.184807 0.503460 -0.257155
C12   C     C_R   0.414520 0.815215 0.496565 -0.257974
C13   C     C_R   0.586158 0.092685 0.503364 0.117954
C14   C     C_R   0.413835 0.907338 0.496650 0.117998
C15   C     C_R   0.499957 0.046345 0.500099 0.061623
C16   C     C_R   0.500041 0.953679 0.499903 0.061728
C17   C     C_R   0.413676 0.092656 0.497022 0.117836
C18   C     C_R   0.586328 0.907368 0.502968 0.117745
C19   C     C_R   0.671509 0.046307 0.506422 -0.216852
C20   C     C_R   0.328485 0.953719 0.493590 -0.216922
C21   C     C_R   0.671600 0.953777 0.506210 -0.216789
C22   C     C_R   0.328403 0.046249 0.493783 -0.216746
C23   C     C_R   0.436007 0.498350 0.676325 0.890870
C24   C     C_R   0.564011 0.498370 0.323661 0.887735
C25   C     C_R   0.173994 0.453896 0.567403 -0.070435
C26   C     C_R   0.826015 0.546095 0.432635 -0.072524
C27   C     C_R   0.229643 0.546101 0.432675 -0.066479
C28   C     C_R   0.770329 0.453811 0.567314 -0.062312
C29   C     C_R   0.129762 0.546975 0.430904 0.012954
C30   C     C_R   0.870202 0.452909 0.569131 0.015625
C31   C     C_R   0.050591 0.499931 0.500024 0.086012
C32   C     C_R   0.949380 0.499963 0.500026 0.086304
C33   C     C_R   0.072574 0.452911 0.569169 0.018879
C34   C     C_R   0.927408 0.547023 0.430894 0.018359
C35   C     C_R   0.107272 0.593602 0.362029 -0.212373
C36   C     C_R   0.892689 0.406287 0.638029 -0.213050
C37   C     C_R   0.006962 0.593638 0.362034 -0.210925
C38   C     C_R   0.993000 0.406305 0.638055 -0.206463
C39   C     C_R   0.397189 0.484123 0.777099 -0.089849
C40   C     C_R   0.603014 0.484315 0.222841 -0.089670
C41   C     C_R   0.260317 0.451416 0.925873 0.111246
C42   C     C_R   0.740864 0.455354 0.073609 0.111801
C43   C     C_R   0.292687 0.470785 0.830277 -0.236822
C44   C     C_R   0.707944 0.474134 0.169343 -0.235132
C45   C     C_R   0.469466 0.476371 0.818463 -0.268664
C46   C     C_R   0.530897 0.474020 0.181608 -0.264882
C47   C     C_R   0.441230 0.451227 0.911189 0.057874
C48   C     C_R   0.560033 0.450642 0.088311 0.057503
C49   C     C_R   0.334908 0.442638 0.966883 0.154415
C50   C     C_R   0.666604 0.445333 0.032418 0.153839
C51   C     C_R   0.516783 0.440379 0.950714 0.088010
C52   C     C_R   0.484927 0.438978 0.048418 0.083087
H1    H     H_    0.225824 0.416862 0.107018 0.169340
H2    H     H_    0.776660 0.425768 0.891396 0.165878
H3    H     H_    0.192616 0.418064 0.619779 0.127992
H4    H     H_    0.807415 0.581965 0.380272 0.128714
H5    H     H_    0.291339 0.582307 0.380419 0.133610
H6    H     H_    0.708625 0.417571 0.619532 0.129458
H7    H     H_    0.167226 0.630038 0.308182 0.142968
H8    H     H_    0.832760 0.369817 0.691863 0.136096
H9    H     H_    0.991623 0.630122 0.308212 0.140549
H10   H     H_    0.008318 0.369868 0.691918 0.139444
H11   H     H_    0.451156 0.487394 0.222960 0.163121
H12   H     H_    0.548569 0.492609 0.777546 0.166226
H13   H     H_    0.763920 0.480822 0.201854 0.152162
H14   H     H_    0.236590 0.475906 0.797728 0.151751
H15   H     H_    0.351321 0.414474 0.177045 0.153787
H16   H     H_    0.651245 0.421584 0.821383 0.139360
H17   H     H_    0.348121 0.220625 0.494690 0.163812
H18   H     H_    0.651898 0.779398 0.505267 0.164489
H19   H     H_    0.651569 0.220677 0.506043 0.163201
H20   H     H_    0.348409 0.779345 0.494004 0.163613
H21   H     H_    0.737946 0.081548 0.508945 0.147238
H22   H     H_    0.262044 0.918479 0.491076 0.147447
H23   H     H_    0.738102 0.918559 0.508584 0.147719
H24   H     H_    0.261906 0.081468 0.491400 0.147339
N1    N     N_R   0.249980 0.499930 0.499960 -0.099341
N2    N     N_R   0.750020 0.500070 0.500040 -0.098918
O1    O     O_R   0.419720 0.632140 0.499980 -0.621634
O2    O     O_R   0.580280 0.367860 0.500020 -0.622935
O3    O     O_R   0.580270 0.632160 0.499970 -0.621236
O4    O     O_R   0.419730 0.367840 0.500030 -0.622671
O5    O     O_R   0.373870 0.499980 0.632250 -0.618438
O6    O     O_R   0.626130 0.500020 0.367750 -0.619216
O7    O     O_R   0.534420 0.500000 0.632240 -0.623640
O8    O     O_R   0.465580 0.500000 0.367760 -0.624900
Zn1   Zn    Zn3+2 0.392800 0.499980 0.500010 0.941311
Zn2   Zn    Zn3+2 0.607200 0.500020 0.499990 0.941930
N3    N     N_3   0.152546 0.440637 0.981135 -0.475896
H25   H     H_    0.109394 0.440923 0.938714 0.183619
H26   H     H_    0.129108 0.496329 0.024513 0.175287
N4    N     N_3   0.848925 0.447354 0.018162 -0.476697
H27   H     H_    0.892974 0.463701 0.057522 0.181712
H28   H     H_    0.863642 0.380296 0.999889 0.177674

loop_
_geom_bond_atom_site_label_1
_geom_bond_atom_site_label_2
_ccdc_geom_bond_type
C41   N3    S    
C27   C29   A    
C34   C37   A    
O5    Zn1   S    
C22   H24   S    
O1    Zn1   S    
C47   C49   A    
C40   C46   A    
C26   N2    A    
C23   O5    A    
C25   N1    A    
C5    H1    S    
C19   C21   A    
C11   H19   S    
C1    O3    A    
O4    Zn1   S    
C18   C21   A    
C35   H7    S    
C27   N1    A    
C26   C34   A    
C47   C51   A    
C7    C17   A    
C31   C33   A    
N3    H26   S    
C28   N2    A    
C39   C45   A    
C48   C50   A    
C12   H20   S    
C41   C43   A    
C5    C49   A    
C44   H13   S    
C42   C44   A    
C6    H2    S    
C41   C49   A    
C45   C47   A    
C46   C48   A    
C13   C19   A    
C4    C51   A    
C51   C52   A    
C14   C20   A    
C19   H21   S    
C4    C6    A    
C27   H5    S    
C4    H16   S    
O8    Zn1   S    
C39   C43   A    
C36   H8    S    
C8    C18   A    
C32   C34   A    
C31   C32   A    
C40   C44   A    
C29   C31   A    
N4    H28   S    
C20   H22   S    
C6    C50   A    
C9    C11   A    
C10   C12   A    
C42   C50   A    
C8    C10   A    
C12   C14   A    
C13   C15   A    
C1    O1    A    
C14   C16   A    
C2    O4    A    
O7    Zn2   S    
N2    Zn2   S    
C15   C17   A    
C29   C35   A    
C35   C37   A    
C3    H15   S    
C1    C10   S    
O6    Zn2   S    
C20   C22   A    
C3    C5    A    
C26   H4    S    
C7    H17   S    
C37   H9    S    
C3    C52   A    
C28   H6    S    
C21   H23   S    
C45   H12   S    
C8    H18   S    
C17   C22   A    
C30   C36   A    
C46   H11   S    
C36   C38   A    
C24   O6    A    
O2    Zn2   S    
C30   C32   A    
C11   C13   A    
C43   H14   S    
C23   C39   S    
C28   C30   A    
N4    H27   S    
C24   C40   S    
C25   H3    S    
C42   N4    S    
O3    Zn2   S    
C2    O2    A    
C7    C9    A    
C48   C52   A    
N1    Zn1   S    
C16   C18   A    
C23   O7    A    
C33   C38   A    
N3    H25   S    
C2    C9    S    
C24   O8    A    
C15   C16   A    
C25   C33   A    
C38   H10   S    
