data_mof_unit_67817.cif
_audit_creation_date              2013-03-05T15:41:23-0500
_audit_creation_method            fapswitch 2.2
_symmetry_space_group_name_H-M    P1
_symmetry_Int_Tables_number       1
_space_group_crystal_system       triclinic
_cell_length_a                    8.209725
_cell_length_b                    8.692143
_cell_length_c                    10.998423
_cell_angle_alpha                 94.139327
_cell_angle_beta                  84.381745
_cell_angle_gamma                 93.763603
_cell_volume                      777.683365376

loop_
_atom_site_label
_atom_site_type_symbol
_atom_site_description
_atom_site_fract_x
_atom_site_fract_y
_atom_site_fract_z
_atom_type_partial_charge
O1    O     O_R   0.389250 0.738570 0.508370 -0.576476
O2    O     O_R   0.678390 0.711620 0.486510 -0.582054
C1    C     C_R   0.542081 0.793166 0.507023 0.862773
O3    O     O_R   0.355430 0.513500 0.696140 -0.542459
O4    O     O_R   0.644580 0.486550 0.674270 -0.609861
C2    C     C_R   0.499672 0.502744 0.740472 0.974005
Zn1   Zn    Zn3+2 0.306940 0.517990 0.514600 1.229150
Zn2   Zn    Zn3+2 0.693060 0.482010 0.485400 1.198127
O5    O     O_R   0.321610 0.288380 0.513490 -0.521578
O6    O     O_R   0.610750 0.261430 0.491630 -0.562093
O7    O     O_R   0.355420 0.513450 0.325730 -0.531406
O8    O     O_R   0.644570 0.486500 0.303860 -0.515733
C3    C     C_R   0.454535 0.208247 0.513596 0.868871
C4    C     C_R   0.500624 0.511008 0.259819 1.017304
C5    C     C_3   0.325915 0.565901 0.941094 0.503752
C6    C     C_3   0.343819 0.595695 0.080351 0.123183
H1    H     H_    0.389869 0.713590 0.078287 0.139598
C7    C     C_3   0.536227 0.343338 0.917850 0.571690
C8    C     C_3   0.632502 0.628035 0.922657 -0.544284
C9    C     C_3   0.495814 0.506544 0.877419 -0.406567
H2    H     H_    0.750942 0.612581 0.868378 0.304450
H3    H     H_    0.605838 0.746135 0.901807 0.246306
C10   C     C_3   0.497814 0.518022 0.122181 -0.479674
C11   C     C_3   0.504000 0.344768 0.061100 0.528846
C12   C     C_3   0.647608 0.622679 0.063938 0.569451
C13   C     C_2   0.554265 0.957517 0.539133 0.162022
C14   C     C_2   0.423622 0.046878 0.539741 0.180107
N1    N     N_2   0.950330 0.457950 0.465890 0.097359
N2    N     N_2   0.049670 0.542050 0.534110 -0.084060
H4    H     H_    0.994174 0.631276 0.585262 0.215793
S1    S     S_3+6 0.144418 0.443976 0.908471 0.196016
O9    O     O_2   0.023132 0.545843 0.867430 -0.176978
O10   O     O_2   0.175263 0.327017 0.805302 -0.230063
O11   O     O_3   0.061547 0.346292 0.027489 -0.387094
H5    H     H_    0.020115 0.244597 0.992549 0.430059
Cl1   Cl    Cl    0.825786 0.541088 0.083903 -0.280205
Cl2   Cl    Cl    0.744584 0.303401 0.861823 -0.387268
Cl3   Cl    Cl    0.645682 0.230074 0.119137 -0.382076
Cl4   Cl    Cl    0.714668 0.019277 0.628742 -0.424812
S2    S     S_3+6 0.212615 0.983306 0.583502 0.156410
O12   O     O_2   0.131382 0.919252 0.473198 -0.175583
O13   O     O_2   0.202161 0.860752 0.673067 -0.239518
O14   O     O_3   0.102619 0.126676 0.649622 -0.403100
H6    H     H_    0.028730 0.080033 0.715508 0.434810
S3    S     S_3+6 0.999683 0.286154 0.387248 0.285951
O15   O     O_2   0.174099 0.277556 0.340221 -0.209328
O16   O     O_2   0.948059 0.155655 0.464955 -0.163336
O17   O     O_3   0.893567 0.260554 0.265944 -0.397892
H7    H     H_    0.926477 0.159984 0.225894 0.415854
Cl5   Cl    Cl    0.295744 0.752369 0.882935 -0.465422
S4    S     S_3+6 0.179555 0.673411 0.180945 0.185792
O18   O     O_2   0.070390 0.548341 0.236268 -0.120692
O19   O     O_2   0.250064 0.772710 0.282214 -0.249070
O20   O     O_3   0.072698 0.787224 0.105303 -0.386157
H8    H     H_    0.125707 0.892406 0.116214 0.404160
Cl6   Cl    Cl    0.436686 0.176864 0.843777 -0.420054
Cl7   Cl    Cl    0.323548 0.232864 0.108212 -0.456909
S5    S     S_3+6 0.681602 0.818112 0.135678 0.097991
O21   O     O_2   0.765825 0.810740 0.250224 -0.188860
O22   O     O_2   0.793506 0.910377 0.047833 -0.202020
O23   O     O_3   0.513577 0.917130 0.174878 -0.509435
H9    H     H_    0.482745 0.951502 0.096782 0.412287

loop_
_geom_bond_atom_site_label_1
_geom_bond_atom_site_label_2
_geom_bond_distance
_ccdc_geom_bond_type
C4    C10   1.521909 S    
O4    Zn2   2.074457 S    
C11   Cl3   1.773072 S    
C10   C11   1.605948 S    
S1    O10   1.481951 D    
C5    S1    1.820606 S    
N2    H4    1.028979 S    
Zn1   N2    2.124520 S    
C1    C13   1.445974 S    
C2    C9    1.501452 S    
C13   Cl4   1.754585 S    
C8    C9    1.581111 S    
C6    S4    1.794043 S    
C7    Cl6   1.797312 S    
C14   S2    1.813110 S    
Zn2   O8    2.077389 S    
S4    O20   1.678112 S    
C8    H3    1.107972 S    
S5    O23   1.677896 S    
S2    O13   1.495137 D    
O2    C1    1.355439 A    
S1    O11   1.675585 S    
S4    O18   1.488654 D    
S3    O15   1.478825 D    
Zn1   O7    2.074456 S    
N1    N2    1.313331 D    
C13   C14   1.364156 D    
O4    C2    1.342693 A    
O3    Zn1   2.077390 S    
C7    C11   1.571118 S    
Zn2   O6    1.994297 S    
S2    O12   1.496225 D    
C8    H2    1.100831 S    
C7    Cl2   1.807452 S    
O8    C4    1.355200 A    
C6    C10   1.592670 S    
C7    C9    1.581772 S    
S3    O16   1.484136 D    
O14   H6    0.990711 S    
O23   H9    0.990276 S    
C8    C12   1.575111 S    
O7    C4    1.333761 A    
O2    Zn2   2.006398 S    
N1    S3    1.722351 S    
C5    Cl5   1.825076 S    
C6    H1    1.069765 S    
C12   S5    1.836716 S    
C12   Cl1   1.706605 S    
S5    O22   1.503983 D    
C5    C6    1.554453 S    
C10   C12   1.591614 S    
Zn2   N1    2.124520 S    
O3    C2    1.335271 A    
O11   H5    0.990871 S    
C11   Cl7   1.772742 S    
S3    O17   1.657619 S    
Zn1   O5    2.006398 S    
O5    C3    1.332741 A    
O20   H8    0.990864 S    
O17   H7    0.991623 S    
S4    O19   1.497485 D    
S5    O21   1.502465 D    
O1    Zn1   1.994299 S    
S2    O14   1.669023 S    
C3    C14   1.453172 S    
S1    O9    1.496876 D    
C5    C9    1.597879 S    
O1    C1    1.311073 A    
O6    C3    1.339570 A    
