data_mof_unit_32629.cif
_audit_creation_date              2012-12-10T17:35:34-0500
_audit_creation_method            fapswitch 2.2
_symmetry_space_group_name_H-M    P1
_symmetry_Int_Tables_number       1
_space_group_crystal_system       triclinic
_cell_length_a                    10.757813
_cell_length_b                    12.367442
_cell_length_c                    13.195982
_cell_angle_alpha                 117.298498
_cell_angle_beta                  74.705381
_cell_angle_gamma                 101.259476
_cell_volume                      1499.23181191

loop_
_atom_site_label
_atom_site_type_symbol
_atom_type_description
_atom_site_fract_x
_atom_site_fract_y
_atom_site_fract_z
_atom_type_partial_charge
C1    C     C_R   0.513235 0.855327 0.285932 0.817606
C2    C     C_3   0.121986 0.002964 0.504511 0.078163
C3    C     C_3   0.036394 0.012483 0.622424 -0.391820
C4    C     C_3   0.079240 0.883381 0.405579 -0.381258
C5    C     C_R   0.301326 0.296424 0.030555 -0.223109
C6    C     C_R   0.443538 0.230490 0.839829 -0.093649
C7    C     C_R   0.619410 0.808491 0.081678 -0.192577
C8    C     C_R   0.646963 0.727870 0.964667 0.328792
C9    C     C_R   0.587575 0.609402 0.926544 -0.217372
C10   C     C_R   0.494951 0.571270 0.004997 0.035400
C11   C     C_R   0.453149 0.660108 0.119774 0.074326
C12   C     C_R   0.740253 0.999728 0.499173 0.777130
C13   C     C_R   0.444927 0.447624 0.974964 0.092512
C14   C     C_R   0.345011 0.418230 0.054979 0.132345
C15   C     C_R   0.290555 0.510778 0.159682 -0.232772
C16   C     C_R   0.343442 0.630625 0.191579 -0.186351
C17   C     C_R   0.494430 0.351922 0.869595 -0.286970
C18   C     C_R   0.350751 0.201119 0.924734 0.147272
C19   C     C_R   0.524671 0.775080 0.160710 -0.151412
C20   C     C_R   0.747329 0.380798 0.394793 -0.301105
C21   C     C_R   0.304586 0.748140 0.624236 0.065601
C22   C     C_R   0.257280 0.650894 0.653616 -0.245319
C23   C     C_R   0.476286 0.145429 0.714994 0.780083
C24   C     C_R   0.333869 0.556492 0.618415 -0.181561
C25   C     C_R   0.460519 0.559370 0.554858 -0.009858
C26   C     C_R   0.506914 0.661649 0.526038 0.272913
C27   C     C_R   0.541276 0.460777 0.511390 -0.038312
C28   C     C_R   0.672907 0.480017 0.465061 0.112166
C29   C     C_R   0.721974 0.593709 0.468344 -0.243314
C30   C     C_R   0.636943 0.660578 0.460779 0.118278
C31   C     C_R   0.498543 0.342144 0.506092 -0.012375
C32   C     C_R   0.689303 0.262520 0.369504 0.372557
C33   C     C_R   0.259865 0.002072 0.503169 0.754705
C34   C     C_3   0.960893 0.110914 0.481403 -0.342511
C35   C     C_3   0.102079 0.113343 0.485989 -0.368553
C36   C     C_3   0.891562 0.012165 0.622685 -0.011603
C37   C     C_3   0.935694 0.881193 0.404837 0.038981
C38   C     C_3   0.878439 0.002449 0.502492 0.061162
Cu1   Cu    Cu3+1 0.529690 0.098270 0.475420 0.935198
Cu2   Cu    Cu3+1 0.470310 0.901730 0.524580 0.922468
H1    H     H_    0.921211 0.199175 0.544779 0.179241
H2    H     H_    0.092687 0.803064 0.417296 0.148095
H3    H     H_    0.843155 0.924982 0.625708 0.144735
H4    H     H_    0.047847 0.933615 0.637262 0.162531
H5    H     H_    0.210224 0.489875 0.219408 0.141700
H6    H     H_    0.226941 0.275376 0.094182 0.136042
H7    H     H_    0.572985 0.369499 0.807480 0.163704
H8    H     H_    0.675156 0.895853 0.110935 0.184170
H9    H     H_    0.614805 0.550367 0.835246 0.161941
H10   H     H_    0.958470 0.101714 0.394614 0.202271
H11   H     H_    0.300032 0.699203 0.274543 0.158629
H12   H     H_    0.824290 0.605523 0.432941 0.133600
H13   H     H_    0.841465 0.393818 0.344000 0.140924
H14   H     H_    0.405024 0.324331 0.553769 0.127587
H15   H     H_    0.242133 0.818762 0.651491 0.142022
H16   H     H_    0.293106 0.483018 0.643184 0.136361
H17   H     H_    0.159954 0.648427 0.703451 0.170826
H18   H     H_    0.164711 0.110764 0.403009 0.187390
H19   H     H_    0.130304 0.200608 0.557663 0.160745
H20   H     H_    0.071579 0.095537 0.693030 0.179029
H21   H     H_    0.882496 0.803833 0.423220 0.119195
H22   H     H_    0.141991 0.875368 0.320997 0.201678
N1    N     N_R   0.574690 0.246280 0.438200 -0.198394
N2    N     N_R   0.426100 0.754320 0.561190 -0.203707
O1    O     O_R   0.537340 0.972510 0.318130 -0.579315
O2    O     O_R   0.487200 0.806530 0.359650 -0.580360
O3    O     O_R   0.707380 0.082980 0.479220 -0.567562
O4    O     O_R   0.657240 0.917000 0.520740 -0.600726
O5    O     O_R   0.512800 0.193470 0.640350 -0.575038
O6    O     O_R   0.462660 0.027490 0.681870 -0.579121
O7    O     O_R   0.342760 0.083000 0.479260 -0.590898
O8    O     O_R   0.292620 0.917020 0.520780 -0.608461
C39   C     C_3   0.297118 0.072627 0.907291 -0.383586
C40   C     C_3   0.177772 0.034811 0.853377 -0.820540
H23   H     H_    0.205336 0.031623 0.765221 0.242141
H24   H     H_    0.135454 0.943140 0.847186 0.255731
H25   H     H_    0.103464 0.100827 0.907564 0.252672
H26   H     H_    0.370912 0.006221 0.855168 0.228336
H27   H     H_    0.268679 0.067926 0.992663 0.201642
Br1   Br    Br    0.773167 0.777164 0.857791 -0.590180
C41   C     C_3   0.728022 0.166847 0.247034 -0.432472
C42   C     C_3   0.845437 0.105589 0.230310 -0.788957
H28   H     H_    0.925429 0.174549 0.264077 0.230090
H29   H     H_    0.816915 0.046068 0.275558 0.300499
H30   H     H_    0.879408 0.047872 0.136258 0.267464
H31   H     H_    0.645624 0.098541 0.220954 0.223808
H32   H     H_    0.750602 0.210005 0.185778 0.186110
C43   C     C_3   0.668457 0.654340 0.339021 -0.336743
C44   C     C_3   0.582371 0.554047 0.261458 -0.786730
H33   H     H_    0.597129 0.463707 0.253255 0.234312
H34   H     H_    0.479091 0.570187 0.298965 0.266902
H35   H     H_    0.608626 0.550935 0.173167 0.253664
H36   H     H_    0.672933 0.742648 0.338449 0.259821
H37   H     H_    0.768912 0.629266 0.293912 0.202098
C45   C     C_3   0.817495 0.113136 0.734716 -0.352833
C46   C     C_3   0.890375 0.239314 0.788846 -0.815942
H38   H     H_    0.953386 0.239057 0.843183 0.241289
H39   H     H_    0.949806 0.269672 0.722985 0.249572
H40   H     H_    0.819473 0.307660 0.847230 0.243062
H41   H     H_    0.727137 0.126146 0.718189 0.187721
H42   H     H_    0.786058 0.079167 0.803149 0.215489
Br2   Br    Br    0.918627 0.843629 0.247846 -0.639133

loop_
_geom_bond_atom_site_label_1
_geom_bond_atom_site_label_2
_ccdc_geom_bond_type
C2    C35   S    
C39   C40   S    
C23   O5    A    
C45   C46   S    
C16   H11   S    
C22   H17   S    
C41   C42   S    
C7    C8    A    
C32   C41   S    
C12   O4    A    
C11   C19   A    
C29   C30   A    
Cu2   O6    S    
C35   H18   S    
C28   C29   A    
C37   Br2   S    
C15   C16   A    
C46   H40   S    
C4    H22   S    
C35   H19   S    
C34   C35   S    
C26   N2    A    
C21   N2    A    
C33   O8    A    
C8    C9    A    
C40   H25   S    
C46   H39   S    
C1    O1    A    
C39   H26   S    
C44   H34   S    
C9    C10   A    
C41   H31   S    
C3    H20   S    
Cu2   O2    S    
C21   C22   A    
Cu1   O1    S    
C23   O6    A    
C34   H1    S    
Cu1   O5    S    
C6    C18   A    
C12   O3    A    
C43   H37   S    
C3    H4    S    
C34   H10   S    
C1    C19   S    
C40   H23   S    
C27   C31   A    
C31   N1    A    
C9    H9    S    
C24   C25   A    
Cu1   Cu2   S    
C21   H15   S    
C45   H41   S    
C5    C18   A    
C20   C28   A    
C25   C26   A    
C2    C4    S    
C37   C38   S    
C11   C16   A    
C46   H38   S    
C1    O2    A    
C39   H27   S    
C43   C44   S    
C44   H35   S    
C5    C14   A    
C41   H32   S    
C40   H24   S    
C2    C33   S    
C26   C30   A    
C18   C39   S    
C7    C19   A    
C22   C24   A    
C24   H16   S    
C15   H5    S    
C30   C43   S    
C20   C32   A    
C6    C17   A    
C43   H36   S    
Cu2   O8    S    
C34   C38   S    
Cu1   O3    S    
C17   H7    S    
C32   N1    A    
C20   H13   S    
C10   C13   A    
C37   H21   S    
C25   C27   A    
C42   H30   S    
Cu1   N1    S    
C5    H6    S    
C42   H29   S    
Cu2   N2    S    
C13   C17   A    
C7    H8    S    
C36   C38   S    
C2    C3    S    
C36   C45   S    
C4    H2    S    
C3    C36   S    
C6    C23   S    
C31   H14   S    
C12   C38   S    
C10   C11   A    
C33   O7    A    
C4    C37   S    
C42   H28   S    
Cu2   O4    S    
C27   C28   A    
C8    Br1   S    
Cu1   O7    S    
C14   C15   A    
C36   H3    S    
C44   H33   S    
C13   C14   A    
C45   H42   S    
C29   H12   S    
