data_mof_unit_47137.cif
_audit_creation_date              2012-12-10T19:29:39-0500
_audit_creation_method            fapswitch 2.2
_symmetry_space_group_name_H-M    P1
_symmetry_Int_Tables_number       1
_space_group_crystal_system       triclinic
_cell_length_a                    22.300551
_cell_length_b                    22.298743
_cell_length_c                    14.997306
_cell_angle_alpha                 90.000914
_cell_angle_beta                  89.889724
_cell_angle_gamma                 90.000169
_cell_volume                      7457.76036154

loop_
_atom_site_label
_atom_site_type_symbol
_atom_type_description
_atom_site_fract_x
_atom_site_fract_y
_atom_site_fract_z
_atom_type_partial_charge
C1    C     C_R   0.418856 0.918840 0.500059 0.901432
C2    C     C_R   0.581146 0.081157 0.499941 0.900130
C3    C     C_R   0.581149 0.918846 0.499940 0.900255
C4    C     C_R   0.418856 0.081160 0.500059 0.901275
C5    C     C_R   0.918854 0.418842 0.500059 0.900131
C6    C     C_R   0.081144 0.581160 0.499941 0.901432
C7    C     C_R   0.081144 0.418840 0.499941 0.901275
C8    C     C_R   0.918851 0.581154 0.500060 0.900254
C9    C     C_1   0.337129 0.163095 0.500843 0.036237
C10   C     C_1   0.662987 0.837022 0.499141 0.035934
C11   C     C_1   0.662939 0.163026 0.499145 0.035806
C12   C     C_1   0.337120 0.836914 0.500852 0.036562
C13   C     C_1   0.837014 0.662979 0.500860 0.035938
C14   C     C_1   0.162871 0.336907 0.499154 0.036266
C15   C     C_1   0.162879 0.663086 0.499149 0.036555
C16   C     C_1   0.837061 0.336973 0.500854 0.035800
C17   C     C_1   0.500008 0.000001 0.190200 0.090680
C18   C     C_1   0.499980 0.000001 0.809800 0.091712
C19   C     C_1   0.000020 0.499999 0.190200 0.091720
C20   C     C_1   0.999991 0.499998 0.809800 0.090686
C21   C     C_3   0.470176 0.951895 0.970361 0.175230
C22   C     C_3   0.529799 0.048110 0.029638 0.175200
C23   C     C_3   0.526742 0.950132 0.029645 0.174235
C24   C     C_3   0.473232 0.049874 0.970354 0.174371
C25   C     C_3   0.972069 0.450782 0.970357 0.175293
C26   C     C_3   0.027957 0.549214 0.029643 0.175319
C27   C     C_3   0.028661 0.451190 0.029640 0.174317
C28   C     C_3   0.971364 0.548805 0.970360 0.174174
C29   C     C_3   0.699447 0.727241 0.531460 0.149744
C30   C     C_3   0.296770 0.268983 0.453561 0.149638
C31   C     C_3   0.297059 0.730734 0.454487 0.149873
C32   C     C_3   0.700586 0.271635 0.536785 0.150165
C33   C     C_3   0.203232 0.231021 0.546433 0.149634
C34   C     C_3   0.800554 0.772760 0.468541 0.149746
C35   C     C_3   0.799415 0.228364 0.463213 0.150162
C36   C     C_3   0.202940 0.769266 0.545514 0.149866
C37   C     C_3   0.228685 0.200367 0.463399 0.447252
C38   C     C_3   0.767049 0.795357 0.550986 0.447361
C39   C     C_3   0.768666 0.203016 0.546253 0.447941
C40   C     C_3   0.228917 0.799400 0.462417 0.447839
C41   C     C_3   0.732952 0.704644 0.449015 0.447407
C42   C     C_3   0.271317 0.299637 0.536596 0.447327
C43   C     C_3   0.271083 0.700600 0.537584 0.447867
C44   C     C_3   0.731335 0.296983 0.453745 0.447976
C45   C     C_1   0.374597 0.125521 0.500333 -0.169725
C46   C     C_1   0.625465 0.874541 0.499663 -0.170248
C47   C     C_1   0.625439 0.125485 0.499665 -0.170427
C48   C     C_1   0.374592 0.874484 0.500335 -0.169441
C49   C     C_1   0.874535 0.625459 0.500337 -0.170241
C50   C     C_1   0.125404 0.374480 0.499665 -0.169712
C51   C     C_1   0.125408 0.625516 0.499665 -0.169446
C52   C     C_1   0.874561 0.374515 0.500335 -0.170430
C53   C     C_3   0.266598 0.239104 0.586530 -0.351411
C54   C     C_3   0.741815 0.769315 0.414031 -0.351408
C55   C     C_3   0.738929 0.233565 0.413429 -0.351674
C56   C     C_3   0.266048 0.761443 0.586609 -0.351435
C57   C     C_3   0.758185 0.730685 0.585970 -0.351481
C58   C     C_3   0.233404 0.260900 0.413464 -0.351494
C59   C     C_3   0.233952 0.738556 0.413392 -0.351485
C60   C     C_3   0.761071 0.266434 0.586569 -0.351729
C61   C     C_3   0.291922 0.208443 0.501474 0.004683
C62   C     C_3   0.708242 0.791723 0.498485 0.004861
C63   C     C_3   0.708179 0.208340 0.498492 0.004462
C64   C     C_3   0.291909 0.791571 0.501489 0.004267
C65   C     C_3   0.791758 0.708278 0.501516 0.004876
C66   C     C_3   0.208080 0.291561 0.498520 0.004711
C67   C     C_3   0.208091 0.708429 0.498513 0.004278
C68   C     C_3   0.791821 0.291659 0.501506 0.004472
C69   C     C_3   0.443426 0.001767 0.029893 0.173511
C70   C     C_3   0.556548 0.998238 0.970107 0.173175
C71   C     C_3   0.943426 0.499591 0.029893 0.173145
C72   C     C_3   0.056600 0.500405 0.970106 0.173467
C73   C     C_3   0.499992 0.000003 0.090603 -0.196409
C74   C     C_3   0.499982 0.000002 0.909397 -0.196699
C75   C     C_3   0.000017 0.499999 0.090603 -0.196700
C76   C     C_3   0.000007 0.499997 0.909397 -0.196406
H1    H     H_    0.734513 0.785027 0.344666 0.170861
H2    H     H_    0.280678 0.230174 0.656227 0.170821
H3    H     H_    0.279689 0.770814 0.656373 0.170528
H4    H     H_    0.729302 0.220179 0.343622 0.170253
H5    H     H_    0.219325 0.269829 0.343767 0.170769
H6    H     H_    0.765488 0.714974 0.655334 0.170812
H7    H     H_    0.770699 0.279820 0.656376 0.170221
H8    H     H_    0.220311 0.729186 0.343628 0.170491
N1    N     N_1   0.500020 0.000000 0.268010 -0.090901
N2    N     N_1   0.499980 0.000000 0.731990 -0.090574
N3    N     N_1   0.000020 0.500000 0.268010 -0.090574
N4    N     N_1   0.999980 0.500000 0.731990 -0.090901
O1    O     O_R   0.438390 0.938390 0.574460 -0.616432
O2    O     O_R   0.561610 0.061610 0.425540 -0.617409
O3    O     O_R   0.561610 0.938390 0.425540 -0.617062
O4    O     O_R   0.438390 0.061610 0.574460 -0.615883
O5    O     O_R   0.938390 0.438390 0.574460 -0.617434
O6    O     O_R   0.061610 0.561610 0.425540 -0.616458
O7    O     O_R   0.061610 0.438390 0.425540 -0.615924
O8    O     O_R   0.938390 0.561610 0.574460 -0.617102
O9    O     O_R   0.438400 0.938390 0.425520 -0.602722
O10   O     O_R   0.561600 0.061610 0.574480 -0.601819
O11   O     O_R   0.561600 0.938390 0.574480 -0.601999
O12   O     O_R   0.438400 0.061610 0.425520 -0.603474
O13   O     O_R   0.938400 0.438390 0.425520 -0.601798
O14   O     O_R   0.061600 0.561610 0.574480 -0.602702
O15   O     O_R   0.061600 0.438390 0.574480 -0.603427
O16   O     O_R   0.938400 0.561610 0.425520 -0.601952
Zn1   Zn    Zn3+2 0.500000 0.000000 0.599450 0.988764
Zn2   Zn    Zn3+2 0.500000 1.000000 0.400550 0.986628
Zn3   Zn    Zn3+2 1.000000 0.500000 0.599450 0.986630
Zn4   Zn    Zn3+2 0.000000 0.500000 0.400550 0.988765
N5    N     N_2   0.617331 0.997098 0.935802 -0.293808
H9    H     H_    0.622575 0.970211 0.880451 0.234516
C77   C     C_3   0.664371 0.989591 0.001134 -0.759006
H10   H     H_    0.708287 0.999999 0.969816 0.239942
H11   H     H_    0.665524 0.942676 0.025603 0.258366
H12   H     H_    0.657843 0.020316 0.058464 0.242607
N6    N     N_2   0.382643 0.002907 0.064195 -0.294163
H13   H     H_    0.377397 0.029793 0.119547 0.233663
C78   C     C_3   0.335604 0.010415 0.998860 -0.760075
H14   H     H_    0.291688 0.000005 0.030173 0.239465
H15   H     H_    0.342135 0.979692 0.941527 0.243108
H16   H     H_    0.334450 0.057331 0.974395 0.258420
N7    N     N_2   0.117382 0.501597 0.935805 -0.294224
H17   H     H_    0.123655 0.474932 0.880450 0.233730
C79   C     C_3   0.164674 0.495900 0.001139 -0.760021
H18   H     H_    0.208158 0.507990 0.969828 0.239446
H19   H     H_    0.167629 0.449063 0.025597 0.258476
H20   H     H_    0.156969 0.526349 0.058476 0.243070
N8    N     N_2   0.882644 0.498398 0.064199 -0.293865
H21   H     H_    0.876373 0.525064 0.119553 0.234569
C80   C     C_3   0.835350 0.504094 0.998868 -0.759010
H22   H     H_    0.791867 0.492008 0.030184 0.239913
H23   H     H_    0.843053 0.473642 0.941534 0.242589
H24   H     H_    0.832398 0.550930 0.974404 0.258413
O17   O     O_3   0.207531 0.146763 0.426781 -0.746527
H25   H     H_    0.165844 0.155375 0.407900 0.324534
O18   O     O_3   0.783892 0.844640 0.602804 -0.747914
H26   H     H_    0.823402 0.833846 0.628348 0.324340
O19   O     O_3   0.787149 0.152083 0.593063 -0.747052
H27   H     H_    0.827480 0.162050 0.616425 0.324450
O20   O     O_3   0.207998 0.852769 0.424763 -0.745660
H28   H     H_    0.166433 0.844035 0.405423 0.324790
O21   O     O_3   0.716109 0.655361 0.397197 -0.747918
H29   H     H_    0.676599 0.666155 0.371652 0.324351
O22   O     O_3   0.292470 0.353239 0.573217 -0.746544
H30   H     H_    0.334159 0.344629 0.592088 0.324537
O23   O     O_3   0.292002 0.647230 0.575239 -0.745685
H31   H     H_    0.333567 0.655965 0.594578 0.324795
O24   O     O_3   0.712852 0.347916 0.406935 -0.747079
H32   H     H_    0.672521 0.337949 0.383573 0.324456
N9    N     N_2   0.642663 0.704137 0.563204 -0.293960
H33   H     H_    0.608216 0.710496 0.518444 0.215885
C81   C     C_3   0.644795 0.643994 0.598927 -0.727850
H34   H     H_    0.599959 0.631652 0.625486 0.228977
H35   H     H_    0.677613 0.641376 0.654389 0.243920
H36   H     H_    0.657381 0.611528 0.545922 0.261654
N10   N     N_2   0.349674 0.288210 0.405443 -0.293380
H37   H     H_    0.388161 0.285870 0.443253 0.216045
C82   C     C_3   0.343503 0.344313 0.358125 -0.728064
H38   H     H_    0.385173 0.353479 0.319860 0.228919
H39   H     H_    0.335892 0.381682 0.405798 0.261369
H40   H     H_    0.305602 0.341928 0.310338 0.243951
N11   N     N_2   0.350267 0.711208 0.407387 -0.293303
H41   H     H_    0.388500 0.713736 0.445739 0.216107
C83   C     C_3   0.344364 0.654842 0.360685 -0.729361
H42   H     H_    0.386305 0.645392 0.323238 0.228750
H43   H     H_    0.306830 0.657014 0.312236 0.243450
H44   H     H_    0.336326 0.617762 0.408704 0.261661
N12   N     N_2   0.644958 0.293600 0.574338 -0.293547
H45   H     H_    0.609050 0.288719 0.531759 0.215850
C84   C     C_3   0.648366 0.352473 0.614270 -0.730183
H46   H     H_    0.604482 0.363872 0.644973 0.228937
H47   H     H_    0.659226 0.386687 0.562882 0.261250
H48   H     H_    0.682995 0.353259 0.667372 0.243559
N13   N     N_2   0.150326 0.211793 0.594546 -0.293302
H49   H     H_    0.111848 0.214089 0.556708 0.216042
C85   C     C_3   0.156518 0.155720 0.641936 -0.728026
H50   H     H_    0.114821 0.146521 0.680120 0.228915
H51   H     H_    0.194369 0.158178 0.689805 0.243922
H52   H     H_    0.164225 0.118336 0.594319 0.261358
N14   N     N_2   0.857338 0.795864 0.436797 -0.293913
H53   H     H_    0.891785 0.789505 0.481557 0.215874
C86   C     C_3   0.855206 0.856007 0.401074 -0.727838
H54   H     H_    0.900042 0.868349 0.374515 0.228978
H55   H     H_    0.842619 0.888473 0.454079 0.261641
H56   H     H_    0.822387 0.858625 0.345612 0.243910
N15   N     N_2   0.855043 0.206399 0.425660 -0.293500
H57   H     H_    0.890951 0.211280 0.468239 0.215843
C87   C     C_3   0.851634 0.147526 0.385728 -0.730170
H58   H     H_    0.895518 0.136127 0.355025 0.228938
H59   H     H_    0.817006 0.146740 0.332626 0.243554
H60   H     H_    0.840776 0.113313 0.437117 0.261234
N16   N     N_2   0.149733 0.788792 0.592614 -0.293247
H61   H     H_    0.111500 0.786265 0.554262 0.216103
C88   C     C_3   0.155636 0.845157 0.639318 -0.729338
H62   H     H_    0.113695 0.854607 0.676764 0.228753
H63   H     H_    0.163675 0.882238 0.591300 0.261637
H64   H     H_    0.193170 0.842984 0.687767 0.243450
N17   N     N_2   0.556152 0.896920 0.063689 -0.300372
H65   H     H_    0.535496 0.878934 0.119087 0.226655
C89   C     C_3   0.573174 0.852425 0.998175 -0.762196
H66   H     H_    0.604147 0.819597 0.029279 0.234580
H67   H     H_    0.596515 0.873442 0.940796 0.248873
H68   H     H_    0.533125 0.827968 0.973818 0.259890
N18   N     N_2   0.443821 0.103085 0.936313 -0.300009
H69   H     H_    0.464475 0.121073 0.880915 0.226951
C90   C     C_3   0.426797 0.147579 0.001829 -0.763268
H70   H     H_    0.395822 0.180406 0.970726 0.234484
H71   H     H_    0.466846 0.172039 0.026185 0.259845
H72   H     H_    0.403459 0.126561 0.059208 0.248452
N19   N     N_2   0.438795 0.899821 0.936323 -0.299643
H73   H     H_    0.412894 0.908718 0.881056 0.225829
C91   C     C_3   0.408769 0.862836 0.001874 -0.760618
H74   H     H_    0.395812 0.819601 0.970715 0.233959
H75   H     H_    0.367571 0.885301 0.026470 0.261893
H76   H     H_    0.438640 0.853121 0.059096 0.246964
N20   N     N_2   0.561179 0.100184 0.063678 -0.300019
H77   H     H_    0.587081 0.091287 0.118944 0.225561
C92   C     C_3   0.591203 0.137171 0.998127 -0.760067
H78   H     H_    0.604159 0.180405 0.029288 0.233829
H79   H     H_    0.561330 0.146886 0.940907 0.247113
H80   H     H_    0.632401 0.114706 0.973529 0.262158
N21   N     N_2   0.060092 0.399146 0.063677 -0.300091
H81   H     H_    0.040144 0.380381 0.119075 0.226815
C93   C     C_3   0.078809 0.355337 0.998158 -0.762866
H82   H     H_    0.111021 0.323723 0.029257 0.234404
H83   H     H_    0.101323 0.377233 0.940779 0.248574
H84   H     H_    0.039728 0.329358 0.973801 0.259885
N22   N     N_2   0.939935 0.600849 0.936321 -0.300470
H85   H     H_    0.959884 0.619614 0.880924 0.226524
C94   C     C_3   0.921219 0.644659 0.001839 -0.761738
H86   H     H_    0.889010 0.676275 0.970738 0.234524
H87   H     H_    0.960302 0.670635 0.026197 0.259923
H88   H     H_    0.898703 0.622764 0.059217 0.249015
N23   N     N_2   0.942709 0.397542 0.936313 -0.299843
H89   H     H_    0.916485 0.405438 0.881047 0.225577
C95   C     C_3   0.914125 0.359432 0.001861 -0.760489
H90   H     H_    0.902841 0.315731 0.970700 0.233897
H91   H     H_    0.872094 0.380298 0.026456 0.262097
H92   H     H_    0.944346 0.350875 0.059084 0.246970
N24   N     N_2   0.057318 0.602453 0.063686 -0.299466
H93   H     H_    0.083541 0.594557 0.118952 0.225842
C96   C     C_3   0.085903 0.640562 0.998138 -0.760990
H94   H     H_    0.097191 0.684263 0.029299 0.234045
H95   H     H_    0.055681 0.649122 0.940916 0.246812
H96   H     H_    0.127933 0.619693 0.973541 0.261836

loop_
_geom_bond_atom_site_label_1
_geom_bond_atom_site_label_2
_ccdc_geom_bond_type
N18   H69   S    
C39   O19   S    
C24   N18   S    
C9    C45   T    
C82   H38   S    
C72   N7    S    
N10   C82   S    
C36   N16   S    
C26   C72   S    
C84   H46   S    
C11   C47   T    
N24   H93   S    
C8    O8    A    
O24   H32   S    
C12   C48   T    
N16   C88   S    
N11   H41   S    
C93   H84   S    
N9    H33   S    
C79   H18   S    
C85   H51   S    
C13   C65   S    
N13   H49   S    
C92   H80   S    
N18   C90   S    
O6    Zn4   S    
C18   N2    T    
C56   H3    S    
C31   C43   S    
C9    C61   S    
C90   H72   S    
C83   H43   S    
C94   H88   S    
C19   N3    T    
N9    C81   S    
C42   C53   S    
C12   C64   S    
C60   H7    S    
C79   H19   S    
C57   H6    S    
O22   H30   S    
C38   C57   S    
C40   O20   S    
C30   C58   S    
C44   O24   S    
C20   C76   S    
C3    O3    A    
C96   H94   S    
C81   H36   S    
C31   C59   S    
N17   C89   S    
C87   H60   S    
N5    C77   S    
C59   C67   S    
C53   C61   S    
C26   N24   S    
C58   C66   S    
N3    Zn4   S    
C83   H42   S    
N6    C78   S    
C55   C63   S    
C70   C74   S    
C89   H68   S    
C81   H34   S    
C56   C64   S    
C5    C52   S    
C69   C73   S    
C25   C71   S    
C15   C51   T    
C6    C51   S    
C33   N13   S    
N23   H89   S    
C37   C58   S    
C77   H11   S    
C72   C76   S    
C80   H24   S    
C29   C41   S    
C5    O5    A    
O13   Zn4   S    
C86   H55   S    
C25   N23   S    
C89   H66   S    
C18   C74   S    
C40   C59   S    
C7    O15   A    
C22   N20   S    
C78   H16   S    
C6    O14   A    
C17   C73   S    
C95   H91   S    
C23   C70   S    
C71   N8    S    
C34   N14   S    
C10   C62   S    
C23   C73   S    
C27   C75   S    
C17   N1    T    
C28   N22   S    
C8    C49   S    
N11   C83   S    
C24   C69   S    
O23   H31   S    
C85   H52   S    
C4    C45   S    
C90   H71   S    
C33   C53   S    
O11   Zn1   S    
C5    O13   A    
C36   C67   S    
C27   N21   S    
C78   H14   S    
C35   C55   S    
N16   H61   S    
N14   C86   S    
O18   H26   S    
C83   H44   S    
C59   H8    S    
O2    Zn2   S    
C93   H82   S    
N12   C84   S    
O7    Zn4   S    
C58   H5    S    
C1    O9    A    
N12   H45   S    
N4    Zn3   S    
C79   H20   S    
C41   C65   S    
C54   C62   S    
C88   H63   S    
C92   H78   S    
C86   H54   S    
C21   C74   S    
C33   C37   S    
C21   C69   S    
C96   H95   S    
C35   C39   S    
N20   H77   S    
N8    C80   S    
C91   H74   S    
C41   O21   S    
C94   H86   S    
C43   O23   S    
C70   N5    S    
N21   H81   S    
N23   C95   S    
C43   C56   S    
O10   Zn1   S    
N22   H85   S    
C36   C40   S    
C35   N15   S    
C88   H64   S    
C15   C67   S    
C33   C66   S    
N19   H73   S    
C14   C66   S    
O14   Zn3   S    
N24   C96   S    
C38   O18   S    
C8    O16   A    
C60   C68   S    
N7    H17   S    
C13   C49   T    
N13   C85   S    
C32   C44   S    
O3    Zn2   S    
C16   C68   S    
O9    Zn2   S    
C43   C67   S    
C30   N10   S    
N22   C94   S    
O8    Zn3   S    
C29   C57   S    
C34   C54   S    
C82   H40   S    
C21   C23   S    
C4    O4    A    
C34   C65   S    
O17   H25   S    
C95   H92   S    
C22   C24   S    
C30   C61   S    
C28   C71   S    
C92   H79   S    
C32   C60   S    
N8    H21   S    
C28   C76   S    
C10   C46   T    
O16   Zn4   S    
C7    O7    A    
C31   N11   S    
C54   H1    S    
C89   H67   S    
C80   H22   S    
C84   H47   S    
C86   H56   S    
C6    O6    A    
C90   H70   S    
C29   C62   S    
C69   N6    S    
C1    O1    A    
C2    O2    A    
C77   H10   S    
C91   H75   S    
C34   C38   S    
O12   Zn2   S    
C31   C64   S    
N1    Zn2   S    
C16   C52   T    
C32   C63   S    
C57   C65   S    
C37   C61   S    
O20   H28   S    
C93   H83   S    
C1    C48   S    
C2    C47   S    
C25   C27   S    
C39   C63   S    
O19   H27   S    
C23   N17   S    
C3    C46   S    
C26   C28   S    
C40   C64   S    
C4    O12   A    
N21   C93   S    
C96   H96   S    
C26   C75   S    
C25   C76   S    
C78   H15   S    
C53   H2    S    
C87   H58   S    
C94   H87   S    
C85   H50   S    
O21   H29   S    
O5    Zn3   S    
C71   C75   S    
C55   H4    S    
C44   C55   S    
C24   C74   S    
N15   H57   S    
C14   C50   T    
C35   C68   S    
N10   H37   S    
C39   C60   S    
C20   N4    T    
C19   C75   S    
C36   C56   S    
C84   H48   S    
C21   N19   S    
C77   H12   S    
C37   O17   S    
C81   H35   S    
N17   H65   S    
C41   C54   S    
N7    C79   S    
N20   C92   S    
N15   C87   S    
C95   H90   S    
C29   N9    S    
N14   H53   S    
N2    Zn1   S    
C3    O11   A    
O4    Zn1   S    
C91   H76   S    
C2    O10   A    
C82   H39   S    
C88   H62   S    
C32   N12   S    
O1    Zn1   S    
C42   O22   S    
C42   C66   S    
N19   C91   S    
C44   C68   S    
C30   C42   S    
O15   Zn3   S    
C22   C73   S    
C38   C62   S    
N5    H9    S    
C11   C63   S    
C7    C50   S    
C87   H59   S    
C22   C70   S    
C27   C72   S    
N6    H13   S    
C80   H23   S    
