data_mof_unit_6426.cif
_audit_creation_date              2012-12-11T16:26:18-0500
_audit_creation_method            fapswitch 2.2
_symmetry_space_group_name_H-M    P1
_symmetry_Int_Tables_number       1
_space_group_crystal_system       triclinic
_cell_length_a                    14.005177
_cell_length_b                    14.013815
_cell_length_c                    31.971663
_cell_angle_alpha                 89.853601
_cell_angle_beta                  90.050204
_cell_angle_gamma                 119.952298
_cell_volume                      5436.85725867

loop_
_atom_site_label
_atom_site_type_symbol
_atom_type_description
_atom_site_fract_x
_atom_site_fract_y
_atom_site_fract_z
_atom_type_partial_charge
C1    C     C_R   0.567639 0.443864 0.810473 0.542808
C2    C     C_R   0.875974 0.431939 0.689462 0.544064
C3    C     C_R   0.555999 0.123531 0.810453 0.542559
C4    C     C_R   0.568476 0.443582 0.689356 0.536573
C5    C     C_R   0.876314 0.432241 0.810465 0.544385
C6    C     C_R   0.556797 0.126425 0.689023 0.546215
C7    C     C_R   0.444167 0.567911 0.310520 0.542594
C8    C     C_R   0.431444 0.874997 0.189127 0.543285
C9    C     C_R   0.124684 0.556230 0.310540 0.536740
C10   C     C_R   0.443530 0.568661 0.189141 0.544160
C11   C     C_R   0.431414 0.875341 0.310448 0.542802
C12   C     C_R   0.125121 0.556655 0.189120 0.543514
C13   C     C_1   0.026320 0.525743 0.016037 0.104942
C14   C     C_1   0.527584 0.018072 0.478826 0.072393
C15   C     C_1   0.476059 0.499806 0.016332 0.083457
C16   C     C_1   0.035035 0.545516 0.484201 0.162776
C17   C     C_1   0.499103 0.974189 0.016097 0.085155
C18   C     C_1   0.486812 0.458147 0.477764 0.124584
C19   C     C_1   0.538745 0.041017 0.515213 0.111176
C20   C     C_1   0.019623 0.523470 0.978537 0.127051
C21   C     C_1   0.493614 0.448467 0.514800 0.133743
C22   C     C_1   0.503583 0.980655 0.978603 0.085192
C23   C     C_1   0.017972 0.535881 0.521150 0.175020
C24   C     C_1   0.478223 0.495114 0.978844 0.102429
C25   C     C_R   0.934123 0.472490 0.850695 -0.032555
C26   C     C_R   0.544518 0.088805 0.645636 -0.028569
C27   C     C_R   0.527449 0.460900 0.850802 -0.031476
C28   C     C_R   0.931772 0.469282 0.648782 -0.030240
C29   C     C_R   0.538517 0.065469 0.850673 -0.028241
C30   C     C_R   0.547701 0.448793 0.644930 -0.010025
C31   C     C_R   0.461329 0.921683 0.352422 -0.017805
C32   C     C_R   0.076522 0.542517 0.147042 -0.029246
C33   C     C_R   0.463637 0.529121 0.350813 -0.024346
C34   C     C_R   0.465738 0.923906 0.147071 -0.029092
C35   C     C_R   0.095327 0.548807 0.354634 -0.017112
C36   C     C_R   0.458243 0.534327 0.147165 -0.029318
C37   C     C_R   0.916981 0.546735 0.874486 -0.115975
C38   C     C_R   0.620904 0.065343 0.626933 -0.120466
C39   C     C_R   0.454324 0.369355 0.874893 -0.112511
C40   C     C_R   0.948466 0.567610 0.630509 -0.133126
C41   C     C_R   0.629851 0.082720 0.874631 -0.110535
C42   C     C_R   0.456813 0.454770 0.630229 -0.123690
C43   C     C_R   0.569884 0.973275 0.367182 -0.126525
C44   C     C_R   0.091945 0.635136 0.124314 -0.120472
C45   C     C_R   0.382770 0.429904 0.368792 -0.125129
C46   C     C_R   0.543785 0.909581 0.124550 -0.117070
C47   C     C_R   0.004318 0.555534 0.368582 -0.131394
C48   C     C_R   0.365970 0.456552 0.124588 -0.117272
C49   C     C_R   0.951764 0.567917 0.915915 -0.113255
C50   C     C_R   0.618673 0.050334 0.583747 -0.123065
C51   C     C_R   0.433777 0.382754 0.916423 -0.123963
C52   C     C_R   0.982268 0.591594 0.588932 -0.095106
C53   C     C_R   0.616119 0.048029 0.916114 -0.115164
C54   C     C_R   0.438849 0.453549 0.587116 -0.105401
C55   C     C_R   0.591550 0.006801 0.408904 -0.134326
C56   C     C_R   0.071068 0.627391 0.081485 -0.117593
C57   C     C_R   0.394067 0.403970 0.410000 -0.089517
C58   C     C_R   0.556895 0.930550 0.081720 -0.127031
C59   C     C_R   0.984824 0.554376 0.411537 -0.107542
C60   C     C_R   0.374116 0.443070 0.081832 -0.126729
C61   C     C_R   0.005809 0.516948 0.933968 0.032271
C62   C     C_R   0.542879 0.062547 0.558935 0.050078
C63   C     C_R   0.484278 0.487697 0.934269 0.035181
C64   C     C_R   0.997541 0.516705 0.565056 0.060625
C65   C     C_R   0.511052 0.994056 0.934029 0.022325
C66   C     C_R   0.509619 0.442874 0.558802 0.061990
C67   C     C_R   0.504507 0.985451 0.436101 0.011590
C68   C     C_R   0.033473 0.527052 0.060837 0.005455
C69   C     C_R   0.485054 0.477681 0.433825 0.054408
C70   C     C_R   0.493278 0.967155 0.060879 0.010762
C71   C     C_R   0.058512 0.550789 0.440472 0.050791
C72   C     C_R   0.474530 0.506032 0.061106 0.007542
C73   C     C_R   0.032982 0.450470 0.909335 0.268702
C74   C     C_R   0.467246 0.088216 0.577489 0.276961
C75   C     C_R   0.549532 0.581391 0.909364 0.279998
C76   C     C_R   0.986055 0.420157 0.583582 0.278312
C77   C     C_R   0.417492 0.966614 0.909223 0.234918
C78   C     C_R   0.598715 0.432468 0.573700 0.294608
C79   C     C_R   0.394944 0.930495 0.421536 0.221327
C80   C     C_R   0.009269 0.431456 0.083786 0.208954
C81   C     C_R   0.569655 0.574603 0.415430 0.224802
C82   C     C_R   0.420999 0.990333 0.083612 0.212898
C83   C     C_R   0.152700 0.548548 0.426410 0.286676
C84   C     C_R   0.569833 0.578132 0.083921 0.212984
C85   C     C_R   0.995311 0.427483 0.867920 -0.103690
C86   C     C_R   0.466568 0.097091 0.620674 -0.102388
C87   C     C_R   0.571898 0.566936 0.867851 -0.103462
C88   C     C_R   0.955076 0.398435 0.625526 -0.089015
C89   C     C_R   0.432288 0.004101 0.867751 -0.100445
C90   C     C_R   0.617600 0.437223 0.616678 -0.093298
C91   C     C_R   0.375193 0.902049 0.379680 -0.089883
C92   C     C_R   0.031710 0.440291 0.126743 -0.109592
C93   C     C_R   0.558728 0.598634 0.373895 -0.094098
C94   C     C_R   0.407452 0.967840 0.126578 -0.111581
C95   C     C_R   0.168724 0.545426 0.383548 -0.093811
C96   C     C_R   0.560585 0.592083 0.126805 -0.110541
Cr1   Cr    Cr6+3 0.504240 0.249200 0.750000 1.056023
Cr2   Cr    Cr6+3 0.744960 0.495760 0.750000 1.046806
Cr3   Cr    Cr6+3 0.750800 0.255040 0.750000 1.049430
Cr4   Cr    Cr6+3 0.249200 0.504240 0.250000 1.040255
Cr5   Cr    Cr6+3 0.495760 0.744960 0.250000 1.045416
Cr6   Cr    Cr6+3 0.255040 0.750800 0.250000 1.050116
H1    H     H_    0.088839 0.700987 0.064115 0.195320
H2    H     H_    0.675778 0.047667 0.420138 0.149545
H3    H     H_    0.300730 0.386773 0.064561 0.177018
H4    H     H_    0.912678 0.556785 0.422230 0.181980
H5    H     H_    0.613374 0.913551 0.064497 0.176923
H6    H     H_    0.329158 0.328940 0.423931 0.163900
H7    H     H_    0.677026 0.030654 0.569609 0.164803
H8    H     H_    0.931243 0.619706 0.934556 0.182414
H9    H     H_    0.369930 0.461080 0.575810 0.165176
H10   H     H_    0.688345 0.068675 0.934903 0.174063
H11   H     H_    0.991460 0.666125 0.574823 0.183408
H12   H     H_    0.382853 0.310414 0.935276 0.173648
O1    O     O_R   0.480350 0.140770 0.796330 -0.509134
O2    O     O_R   0.660420 0.519650 0.703670 -0.501178
O3    O     O_R   0.859230 0.339580 0.796330 -0.509635
O4    O     O_R   0.480350 0.140770 0.703670 -0.508850
O5    O     O_R   0.660420 0.519650 0.796330 -0.509731
O6    O     O_R   0.859230 0.339580 0.703670 -0.508245
O7    O     O_R   0.140770 0.480350 0.296330 -0.505127
O8    O     O_R   0.519650 0.660420 0.203670 -0.511629
O9    O     O_R   0.339580 0.859230 0.296330 -0.509264
O10   O     O_R   0.140770 0.480350 0.203670 -0.511547
O11   O     O_R   0.519650 0.660420 0.296330 -0.507071
O12   O     O_R   0.339580 0.859230 0.203670 -0.511084
O13   O     O_R   0.514930 0.348530 0.793250 -0.493883
O14   O     O_R   0.833600 0.485070 0.706750 -0.500043
O15   O     O_R   0.651470 0.166400 0.793250 -0.494167
O16   O     O_R   0.514930 0.348530 0.706750 -0.486213
O17   O     O_R   0.833600 0.485070 0.793250 -0.493239
O18   O     O_R   0.651470 0.166400 0.706750 -0.492567
O19   O     O_R   0.348530 0.514930 0.293250 -0.501241
O20   O     O_R   0.485070 0.833600 0.206750 -0.496688
O21   O     O_R   0.166400 0.651470 0.293250 -0.487390
O22   O     O_R   0.348530 0.514930 0.206750 -0.495297
O23   O     O_R   0.485070 0.833600 0.293250 -0.490689
O24   O     O_R   0.166400 0.651470 0.206750 -0.495800
O25   O     O_3   0.666667 0.333333 0.750000 -0.251244
O26   O     O_3   0.333333 0.666667 0.250000 -0.247670
H13   H     H_    0.870103 0.582779 0.862072 0.164579
H14   H     H_    0.683196 0.060719 0.645497 0.155180
H15   H     H_    0.418798 0.286558 0.862618 0.164265
H16   H     H_    0.931063 0.623629 0.647739 0.154177
H17   H     H_    0.712776 0.129703 0.862310 0.162744
H18   H     H_    0.400998 0.461328 0.651902 0.133670
H19   H     H_    0.637096 0.987217 0.346629 0.143108
H20   H     H_    0.126953 0.715256 0.138971 0.164769
H21   H     H_    0.308773 0.374689 0.351677 0.147249
H22   H     H_    0.589619 0.875316 0.139370 0.164780
H23   H     H_    0.948454 0.560569 0.346427 0.135008
H24   H     H_    0.285769 0.411151 0.139291 0.165001
H25   H     H_    0.019439 0.368322 0.143925 0.175498
H26   H     H_    0.290753 0.859374 0.368697 0.180245
H27   H     H_    0.632292 0.652242 0.143866 0.175144
H28   H     H_    0.240748 0.543202 0.372479 0.154966
H29   H     H_    0.347103 0.979269 0.143604 0.174978
H30   H     H_    0.622184 0.674839 0.360251 0.176958
H31   H     H_    0.408474 0.117400 0.634569 0.183944
H32   H     H_    0.010118 0.371181 0.849636 0.174402
H33   H     H_    0.686482 0.430163 0.628411 0.147159
H34   H     H_    0.361218 0.989154 0.849320 0.173933
H35   H     H_    0.943382 0.322800 0.639399 0.176773
H36   H     H_    0.627358 0.638140 0.849338 0.173543
S1    S     S_3+6 0.959108 0.301768 0.059456 0.052107
O27   O     O_2   0.054936 0.296764 0.040844 -0.187771
O28   O     O_2   0.903299 0.210459 0.090984 -0.267654
O29   O     O_3   0.869177 0.284187 0.021239 -0.483347
H37   H     H_    0.809116 0.289452 0.035416 0.325284
S2    S     S_3+6 0.279041 0.892409 0.454055 0.076932
O30   O     O_2   0.259874 0.988348 0.457218 -0.172332
O31   O     O_2   0.178197 0.797554 0.435178 -0.283345
O32   O     O_3   0.298582 0.855765 0.502004 -0.456785
H38   H     H_    0.330875 0.808080 0.497022 0.355670
S3    S     S_3+6 0.699584 0.658073 0.059482 0.055599
O33   O     O_2   0.703856 0.758321 0.040538 -0.186861
O34   O     O_2   0.790879 0.694323 0.091005 -0.267085
O35   O     O_3   0.718040 0.585932 0.021530 -0.479557
H39   H     H_    0.713440 0.521092 0.035931 0.324910
S4    S     S_3+6 0.252291 0.547950 0.460514 -0.008697
O36   O     O_2   0.227281 0.431110 0.465529 -0.267779
O37   O     O_2   0.364556 0.615346 0.441263 -0.339988
O38   O     O_3   0.252709 0.599891 0.507877 -0.528393
H40   H     H_    0.310703 0.594849 0.523834 0.368291
S5    S     S_3+6 0.340308 0.039126 0.058968 0.060757
O39   O     O_2   0.240731 0.942798 0.040047 -0.154372
O40   O     O_2   0.302883 0.093395 0.090315 -0.271857
O41   O     O_3   0.412402 0.130000 0.020949 -0.482307
H41   H     H_    0.476933 0.190353 0.035321 0.325142
S6    S     S_3+6 0.687562 0.669337 0.444029 0.054589
O42   O     O_2   0.756188 0.616911 0.453257 -0.202960
O43   O     O_2   0.755691 0.773320 0.419414 -0.264292
O44   O     O_3   0.649583 0.700871 0.489469 -0.480248
H42   H     H_    0.598408 0.727300 0.481413 0.348505
S7    S     S_3+6 0.373885 0.113649 0.548874 0.076352
O45   O     O_2   0.265854 0.008211 0.545338 -0.156617
O46   O     O_2   0.354673 0.195734 0.572053 -0.308921
O47   O     O_3   0.423224 0.163553 0.500988 -0.461463
H43   H     H_    0.380375 0.198226 0.491355 0.376417
S8    S     S_3+6 0.107131 0.389255 0.929846 0.052856
O48   O     O_2   0.026830 0.280905 0.949516 -0.177052
O49   O     O_2   0.167835 0.369520 0.895256 -0.281489
O50   O     O_3   0.198226 0.471477 0.966036 -0.506762
H44   H     H_    0.230978 0.428480 0.977446 0.374019
S9    S     S_3+6 0.691239 0.417849 0.540168 0.026412
O51   O     O_2   0.785338 0.530740 0.530397 -0.254832
O52   O     O_2   0.734612 0.352104 0.561986 -0.305660
O53   O     O_3   0.630834 0.354569 0.495208 -0.490850
H45   H     H_    0.690114 0.353301 0.478774 0.373404
S10   S     S_3+6 0.282024 0.892544 0.929566 0.065682
O54   O     O_2   0.253592 0.972897 0.948778 -0.141101
O55   O     O_2   0.201330 0.831685 0.895079 -0.285887
O56   O     O_3   0.272129 0.801926 0.966328 -0.481156
H46   H     H_    0.287780 0.749378 0.951394 0.362584
S11   S     S_3+6 0.005663 0.323084 0.554983 0.050043
O57   O     O_2   0.127101 0.369170 0.548441 -0.237273
O58   O     O_2   0.959761 0.216261 0.578636 -0.265814
O59   O     O_3   0.942344 0.299115 0.508300 -0.515513
H47   H     H_    0.972577 0.260680 0.491688 0.384838
S12   S     S_3+6 0.610010 0.716588 0.929641 0.055057
O60   O     O_2   0.718651 0.745262 0.949208 -0.175512
O61   O     O_2   0.629144 0.796823 0.894939 -0.285491
O62   O     O_3   0.527382 0.724793 0.965878 -0.507824
H48   H     H_    0.570033 0.800447 0.977201 0.370617

loop_
_geom_bond_atom_site_label_1
_geom_bond_atom_site_label_2
_ccdc_geom_bond_type
C68   C80   A    
C39   C51   A    
O50   H44   S    
S6    O42   D    
C82   C94   A    
C21   C66   S    
C18   C21   T    
C38   H14   S    
C89   H34   S    
O62   H48   S    
Cr1   O13   S    
C35   C47   A    
S12   O61   D    
O35   H39   S    
O59   H47   S    
Cr2   O5    S    
S3    O34   D    
C32   C92   A    
Cr5   O20   S    
Cr4   O19   S    
C15   C72   S    
C45   C57   A    
S1    O27   D    
C37   H13   S    
Cr3   O18   S    
C6    O4    A    
C79   S2    S    
C10   O22   A    
Cr1   O16   S    
Cr4   O7    S    
S11   O58   D    
Cr6   O24   S    
C75   C87   A    
C13   C68   S    
S5    O40   D    
C96   H27   S    
S2    O30   D    
C60   C72   A    
C19   C62   S    
C73   S8    S    
Cr1   O4    S    
C33   C45   A    
C95   H28   S    
C84   C96   A    
C20   C61   S    
C3    C29   S    
C44   C56   A    
Cr6   O21   S    
Cr4   O26   S    
S6    O44   S    
C25   C37   A    
Cr3   O6    S    
C27   C39   A    
O53   H45   S    
Cr2   O17   S    
C28   C88   A    
C9    O7    A    
C14   C67   S    
C43   H19   S    
O47   H43   S    
C34   C46   A    
C85   H32   S    
Cr1   O1    S    
C84   S3    S    
C53   C65   A    
C86   H31   S    
C76   C88   A    
C79   C91   A    
O44   H42   S    
S4    O38   S    
C30   C90   A    
S7    O47   S    
C18   C69   S    
Cr2   O14   S    
C87   H36   S    
C11   C31   S    
C17   C70   S    
S1    O28   D    
C46   C58   A    
C7    C33   S    
Cr3   O25   S    
C16   C71   S    
C78   C90   A    
C29   C89   A    
S12   O60   D    
Cr5   O26   S    
S4    O37   D    
C48   C60   A    
S3    O35   S    
C71   C83   A    
S9    O52   D    
C64   C76   A    
C66   C78   A    
C11   O9    A    
C72   C84   A    
C59   H4    S    
C49   C61   A    
C38   C50   A    
Cr3   O15   S    
C82   S5    S    
C8    O20   A    
C51   H12   S    
O29   H37   S    
C65   C77   A    
C91   H26   S    
C6    O18   A    
C52   C64   A    
S11   O59   S    
C42   H18   S    
Cr5   O23   S    
C58   C70   A    
S5    O41   S    
C4    O16   A    
C90   H33   S    
C61   C73   A    
O32   H38   S    
C55   H2    S    
C50   H7    S    
C7    O11   A    
C5    O3    A    
O41   H41   S    
Cr4   O10   S    
C80   C92   A    
S11   O57   D    
C3    O1    A    
C22   C65   S    
C1    O5    A    
Cr3   O3    S    
C77   C89   A    
C81   C93   A    
C36   C96   A    
Cr2   O2    S    
S3    O33   D    
C12   O10   A    
O56   H46   S    
C26   C86   A    
C62   C74   A    
C83   C95   A    
C25   C85   A    
C32   C44   A    
C67   C79   A    
C8    C34   S    
C74   C86   A    
C27   C87   A    
C41   C53   A    
C37   C49   A    
C92   H25   S    
C31   C43   A    
C77   S10   S    
C5    C25   S    
C83   S4    S    
C53   H10   S    
C43   C55   A    
C15   C24   T    
C46   H22   S    
C47   H23   S    
Cr6   O26   S    
C16   C23   T    
S10   O55   D    
C40   H16   S    
C57   C69   A    
C50   C62   A    
C12   O24   A    
Cr6   O9    S    
C88   H35   S    
C9    O21   A    
C80   S1    S    
C58   H5    S    
S4    O36   D    
C9    C35   S    
C73   C85   A    
S9    O53   S    
C8    O12   A    
C51   C63   A    
S9    O51   D    
C74   S7    S    
C23   C64   S    
S6    O43   D    
C13   C20   T    
C29   C41   A    
C3    O15   A    
C14   C19   T    
C4    O2    A    
C26   C38   A    
C34   C94   A    
C56   H1    S    
C39   H15   S    
Cr6   O12   S    
C33   C93   A    
C55   C67   A    
C7    O19   A    
S1    O29   S    
C54   C66   A    
C35   C95   A    
C24   C63   S    
S10   O56   S    
C94   H29   S    
Cr5   O8    S    
Cr2   O25   S    
C56   C68   A    
C48   H24   S    
C11   O23   A    
C78   S9    S    
C40   C52   A    
C42   C54   A    
C76   S11   S    
S5    O39   D    
C6    C26   S    
C63   C75   A    
C75   S12   S    
S8    O48   D    
S8    O50   S    
C52   H11   S    
C44   H20   S    
C10   C36   S    
C54   H9    S    
C36   C48   A    
C45   H21   S    
S12   O62   S    
C93   H30   S    
C70   C82   A    
O38   H40   S    
C4    C30   S    
C81   S6    S    
C69   C81   A    
C1    O13   A    
C47   C59   A    
S7    O45   D    
C10   O8    A    
C5    O17   A    
C57   H6    S    
C41   H17   S    
C17   C22   T    
C31   C91   A    
S10   O54   D    
C1    C27   S    
C28   C40   A    
C30   C42   A    
C2    C28   S    
S2    O31   D    
C2    O6    A    
Cr5   O11   S    
Cr1   O25   S    
S8    O49   D    
C12   C32   S    
C60   H3    S    
Cr4   O22   S    
C59   C71   A    
C49   H8    S    
S7    O46   D    
S2    O32   S    
C2    O14   A    
