data_mof_unit_33566.cif
_audit_creation_date              2012-12-10T17:51:33-0500
_audit_creation_method            fapswitch 2.2
_symmetry_space_group_name_H-M    P1
_symmetry_Int_Tables_number       1
_space_group_crystal_system       triclinic
_cell_length_a                    9.882838
_cell_length_b                    10.675287
_cell_length_c                    16.817394
_cell_angle_alpha                 91.35621
_cell_angle_beta                  84.842621
_cell_angle_gamma                 90.384849
_cell_volume                      1766.57408332

loop_
_atom_site_label
_atom_site_type_symbol
_atom_type_description
_atom_site_fract_x
_atom_site_fract_y
_atom_site_fract_z
_atom_type_partial_charge
C1    C     C_R   0.500742 0.740051 0.493769 0.881670
C2    C     C_R   0.533601 0.458523 0.263404 -0.188046
C3    C     C_R   0.260574 0.887216 0.453472 -0.126894
C4    C     C_R   0.480911 0.502682 0.653147 0.843692
C5    C     C_R   0.133922 0.943840 0.467795 -0.141216
C6    C     C_R   0.119908 0.050711 0.516561 -0.189523
C7    C     C_R   0.234913 0.108916 0.543817 0.033022
C8    C     C_R   0.366817 0.060992 0.519086 0.054030
C9    C     C_R   0.375865 0.939552 0.486356 0.077120
C10   C     C_R   0.499491 0.874452 0.490194 -0.095726
C11   C     C_R   0.617994 0.938148 0.506821 -0.199412
C12   C     C_R   0.345622 0.478492 0.783819 -0.191043
C13   C     C_R   0.614674 0.065133 0.519761 -0.208507
C14   C     C_R   0.490896 0.128145 0.522551 -0.124477
C15   C     C_R   0.845679 0.667562 0.602325 -0.181888
C16   C     C_R   0.497231 0.261143 0.509808 0.899695
C17   C     C_R   0.909235 0.750168 0.652395 -0.212174
C18   C     C_R   0.049088 0.748899 0.653050 -0.177916
C19   C     C_R   0.126145 0.665268 0.603463 -0.150694
C20   C     C_R   0.065397 0.581942 0.550743 0.161907
C21   C     C_R   0.920668 0.582461 0.550446 0.176478
C22   C     C_R   0.935169 0.420976 0.451905 -0.101015
C23   C     C_R   0.633853 0.493323 0.129995 -0.203250
C24   C     C_R   0.078444 0.421135 0.451866 -0.107108
C25   C     C_R   0.519306 0.494376 0.347368 0.953941
C26   C     C_R   0.470176 0.502822 0.739870 -0.037806
C27   C     C_R   0.588015 0.521243 0.779259 -0.207384
C28   C     C_R   0.583599 0.506081 0.860699 -0.128276
C29   C     C_R   0.462157 0.469642 0.903269 0.186713
C30   C     C_R   0.341788 0.461687 0.865757 -0.152562
C31   C     C_1   0.420573 0.200390 0.127140 0.202764
C32   C     C_1   0.212262 0.202920 0.606652 0.181287
C33   C     C_1   0.395452 0.265602 0.293465 0.204872
C34   C     C_R   0.617769 0.529584 0.209857 0.365187
C35   C     C_1   0.653207 0.297687 0.969378 0.207499
C36   C     C_R   0.472184 0.346299 0.237411 -0.113693
C37   C     C_R   0.488142 0.311126 0.156314 -0.012233
C38   C     C_R   0.566781 0.387021 0.102975 0.001828
C39   C     C_2   0.460917 0.444412 0.987854 -0.283131
C40   C     C_2   0.556283 0.374878 0.017735 -0.018947
Cl1   Cl    Cl    0.697764 0.668867 0.239831 -0.610237
H1    H     H_    0.684439 0.544511 0.747073 0.163903
H2    H     H_    0.098304 0.812610 0.692539 0.156123
H3    H     H_    0.232554 0.668503 0.608560 0.203844
H4    H     H_    0.137865 0.356734 0.412629 0.166678
H5    H     H_    0.246539 0.438349 0.899259 0.144726
H6    H     H_    0.692488 0.552173 0.087814 0.179234
H7    H     H_    0.252674 0.468464 0.754790 0.176662
H8    H     H_    0.384663 0.492475 0.028019 0.171442
H9    H     H_    0.675708 0.520061 0.890250 0.138989
H10   H     H_    0.713899 0.890361 0.509223 0.174483
H11   H     H_    0.267256 0.803164 0.416174 0.173259
H12   H     H_    0.045522 0.901078 0.444543 0.158691
H13   H     H_    0.019200 0.087439 0.533632 0.137749
H14   H     H_    0.709734 0.114122 0.525863 0.169133
H15   H     H_    0.886702 0.356471 0.412654 0.154756
H16   H     H_    0.737951 0.673135 0.606560 0.202669
H17   H     H_    0.849294 0.814864 0.691403 0.158148
N1    N     N_R   0.857140 0.501200 0.500750 -0.119727
N2    N     N_R   0.142740 0.501280 0.500770 -0.124759
N3    N     N_1   0.366695 0.112078 0.103831 -0.175349
N4    N     N_1   0.192739 0.277535 0.657286 -0.209131
N5    N     N_1   0.334373 0.200348 0.337606 -0.193612
N6    N     N_1   0.730661 0.235931 0.930773 -0.198188
O1    O     O_R   0.385310 0.683220 0.500000 -0.655954
O2    O     O_R   0.614640 0.683250 0.500010 -0.628819
O3    O     O_R   0.371780 0.500010 0.615800 -0.632638
O4    O     O_R   0.601110 0.500030 0.615800 -0.641504
O5    O     O_R   0.385360 0.316750 0.499990 -0.611504
O6    O     O_R   0.614690 0.316780 0.500000 -0.625993
O7    O     O_R   0.398890 0.499970 0.384200 -0.619376
O8    O     O_R   0.628220 0.499990 0.384200 -0.573102
Zn1   Zn    Zn3+2 0.346870 0.499980 0.499990 0.948067
Zn2   Zn    Zn3+2 0.653130 0.500020 0.500010 0.962553

loop_
_geom_bond_atom_site_label_1
_geom_bond_atom_site_label_2
_ccdc_geom_bond_type
O6    Zn2   S    
C4    O3    A    
C1    O1    A    
C3    H11   S    
C16   O6    A    
O5    Zn1   S    
C6    C7    A    
C25   O7    A    
C20   N2    A    
C23   C38   A    
C11   C13   A    
C9    C10   A    
C31   N3    T    
C4    C26   S    
C19   C20   A    
N1    Zn2   S    
C12   H7    S    
C17   H17   S    
C33   N5    T    
C23   C34   A    
C2    C34   A    
C17   C18   A    
C32   N4    T    
C7    C8    A    
C25   O8    A    
C13   C14   A    
C19   H3    S    
C38   C40   S    
C15   H16   S    
C27   H1    S    
C29   C39   S    
C26   C27   A    
C35   N6    T    
C34   Cl1   S    
C28   H9    S    
C6    H13   S    
C3    C9    A    
O3    Zn1   S    
C5    H12   S    
C36   C37   A    
C39   H8    S    
C37   C38   A    
C35   C40   S    
C2    C25   S    
C22   C24   A    
C2    C36   A    
C12   C26   A    
C5    C6    A    
C7    C32   S    
C14   C16   S    
C15   C21   A    
C11   H10   S    
C10   C11   A    
C24   H4    S    
C39   C40   D    
C29   C30   A    
O2    Zn2   S    
C21   N1    A    
C3    C5    A    
N2    Zn1   S    
C22   N1    A    
C33   C36   S    
C23   H6    S    
C20   C21   A    
O8    Zn2   S    
C18   C19   A    
C1    C10   S    
O1    Zn1   S    
O7    Zn1   S    
C27   C28   A    
C15   C17   A    
C28   C29   A    
C8    C14   A    
C24   N2    A    
C12   C30   A    
C18   H2    S    
C22   H15   S    
O4    Zn2   S    
C30   H5    S    
C16   O5    A    
C31   C37   S    
C4    O4    A    
C8    C9    A    
C13   H14   S    
C1    O2    A    
