data_mof_unit_43792.cif
_audit_creation_date              2012-12-10T17:48:52-0500
_audit_creation_method            fapswitch 2.2
_symmetry_space_group_name_H-M    P1
_symmetry_Int_Tables_number       1
_space_group_crystal_system       triclinic
_cell_length_a                    10.722014
_cell_length_b                    14.738545
_cell_length_c                    14.843218
_cell_angle_alpha                 64.815108
_cell_angle_beta                  104.066908
_cell_angle_gamma                 102.849562
_cell_volume                      2040.00180711

loop_
_atom_site_label
_atom_site_type_symbol
_atom_type_description
_atom_site_fract_x
_atom_site_fract_y
_atom_site_fract_z
_atom_type_partial_charge
C1    C     C_R   0.478590 0.119667 0.312604 0.791266
C2    C     C_3   0.878365 0.000741 0.499565 0.158026
C3    C     C_3   0.926127 0.901461 0.581795 -0.384677
C4    C     C_3   0.963991 0.091609 0.521583 -0.365936
C5    C     C_R   0.471880 0.187332 0.205606 -0.056617
C6    C     C_R   0.539836 0.812569 0.794768 -0.059623
C7    C     C_R   0.447619 0.215990 0.029739 -0.202470
C8    C     C_R   0.448563 0.149496 0.130206 -0.201923
C9    C     C_R   0.493858 0.291845 0.179598 -0.256627
C10   C     C_R   0.499377 0.360426 0.079591 0.088360
C11   C     C_R   0.472485 0.320864 0.003889 0.166451
C12   C     C_R   0.260114 0.000724 0.499472 0.749343
C13   C     C_R   0.528911 0.466893 0.052769 0.063378
C14   C     C_R   0.518183 0.532774 0.948877 0.065071
C15   C     C_R   0.492109 0.490021 0.875813 -0.222816
C16   C     C_R   0.470881 0.386147 0.903183 -0.231773
C17   C     C_R   0.571980 0.509524 0.126295 -0.222498
C18   C     C_R   0.597707 0.613424 0.098901 -0.230020
C19   C     C_R   0.579585 0.678829 0.997688 0.166262
C20   C     C_R   0.537342 0.639329 0.921685 0.085046
C21   C     C_R   0.603534 0.783752 0.971615 -0.201364
C22   C     C_R   0.585158 0.850304 0.870628 -0.202560
C23   C     C_R   0.522238 0.880312 0.687455 0.800006
C24   C     C_R   0.513601 0.708067 0.820901 -0.251953
C25   C     C_R   0.747206 0.301127 0.637550 -0.321991
C26   C     C_R   0.699026 0.211653 0.623496 0.071453
C27   C     C_R   0.512562 0.282345 0.513183 0.000127
C28   C     C_R   0.555462 0.375515 0.525175 -0.025753
C29   C     C_R   0.677227 0.383701 0.587241 0.169145
C30   C     C_R   0.484531 0.460872 0.477011 0.076724
C31   C     C_R   0.535190 0.550962 0.495710 0.077399
C32   C     C_R   0.663998 0.558467 0.546664 -0.250982
C33   C     C_R   0.731454 0.475682 0.594718 -0.202629
C34   C     C_R   0.740026 0.000038 0.499850 0.753698
C35   C     C_R   0.367280 0.460711 0.408692 -0.237818
C36   C     C_R   0.302482 0.545414 0.360429 -0.182910
C37   C     C_R   0.346018 0.630700 0.383903 0.140087
C38   C     C_R   0.458763 0.632876 0.456611 -0.064421
C39   C     C_R   0.275539 0.713131 0.336506 -0.326582
C40   C     C_R   0.313728 0.796116 0.363364 0.023293
C41   C     C_R   0.484733 0.715426 0.488814 0.310527
C42   C     C_3   0.039997 0.010408 0.395172 -0.384017
C43   C     C_3   0.895990 0.010347 0.395117 -0.377147
C44   C     C_3   0.070356 0.902244 0.582259 -0.373146
C45   C     C_3   0.106831 0.092286 0.521095 -0.374169
C46   C     C_3   0.122389 0.001514 0.499453 0.162903
Cu1   Cu    Cu3+1 0.465900 0.918260 0.475680 0.939492
Cu2   Cu    Cu3+1 0.534100 0.081740 0.524320 0.924315
H1    H     H_    0.048668 0.946035 0.377562 0.168298
H2    H     H_    0.953986 0.086673 0.596543 0.163013
H3    H     H_    0.127780 0.895135 0.657751 0.151570
H4    H     H_    0.913194 0.892634 0.657402 0.152393
H5    H     H_    0.452110 0.356753 0.844771 0.145106
H6    H     H_    0.471776 0.682050 0.761130 0.165221
H7    H     H_    0.605956 0.930991 0.852063 0.153742
H8    H     H_    0.631278 0.642769 0.157640 0.145445
H9    H     H_    0.428205 0.185424 0.972207 0.131852
H10   H     H_    0.431222 0.068793 0.148762 0.153918
H11   H     H_    0.504115 0.317980 0.238836 0.152234
H12   H     H_    0.076232 0.081369 0.334776 0.149017
H13   H     H_    0.491411 0.534594 0.796528 0.141234
H14   H     H_    0.591249 0.464779 0.206172 0.147180
H15   H     H_    0.637106 0.814298 0.029413 0.131092
H16   H     H_    0.828581 0.484589 0.636084 0.141356
H17   H     H_    0.260461 0.860368 0.325495 0.129971
H18   H     H_    0.214931 0.542974 0.306047 0.139653
H19   H     H_    0.840247 0.306631 0.685390 0.136150
H20   H     H_    0.754845 0.148865 0.659592 0.119730
H21   H     H_    0.423669 0.270446 0.464644 0.119300
H22   H     H_    0.862622 0.081528 0.335065 0.153697
H23   H     H_    0.717795 0.629052 0.546710 0.138953
H24   H     H_    0.324889 0.397101 0.388408 0.127343
H25   H     H_    0.191045 0.713356 0.278884 0.143181
H26   H     H_    0.836067 0.946239 0.377075 0.170421
H27   H     H_    0.080825 0.835554 0.569132 0.172409
H28   H     H_    0.868351 0.835175 0.567015 0.157118
H29   H     H_    0.164925 0.088109 0.595646 0.171707
H30   H     H_    0.143120 0.164918 0.462502 0.160917
H31   H     H_    0.931993 0.164247 0.463583 0.172126
N1    N     N_R   0.585360 0.204570 0.560800 -0.176583
N2    N     N_R   0.414550 0.795430 0.439160 -0.168481
O1    O     O_R   0.455060 0.022100 0.338110 -0.589462
O2    O     O_R   0.512640 0.160150 0.379180 -0.585444
O3    O     O_R   0.288900 0.930980 0.479450 -0.589864
O4    O     O_R   0.346480 0.069030 0.520520 -0.593555
O5    O     O_R   0.487360 0.839850 0.620820 -0.547961
O6    O     O_R   0.544940 0.977900 0.661890 -0.589251
O7    O     O_R   0.653520 0.930970 0.479480 -0.581918
O8    O     O_R   0.711100 0.069020 0.520550 -0.593696
N3    N     N_3   0.568461 0.710533 0.581456 -0.555421
H32   H     H_    0.565412 0.636618 0.636061 0.190903
H33   H     H_    0.662122 0.744313 0.568580 0.205439

loop_
_geom_bond_atom_site_label_1
_geom_bond_atom_site_label_2
_ccdc_geom_bond_type
C35   C36   A    
C25   H19   S    
C7    C8    A    
C45   C46   S    
C7    C11   A    
C12   O4    A    
C1    C5    S    
C36   C37   A    
C19   C21   A    
C30   C31   A    
C36   H18   S    
C24   H6    S    
C15   C16   A    
C6    C22   A    
C29   C33   A    
C12   O3    A    
C18   C19   A    
C42   C46   S    
Cu1   O1    S    
C20   C24   A    
C16   H5    S    
C8    H10   S    
C31   C32   A    
C23   O5    A    
C45   H30   S    
C9    C10   A    
C27   H21   S    
C18   H8    S    
C2    C34   S    
C43   H26   S    
C39   H25   S    
C41   N3    S    
C41   N2    A    
C23   O6    A    
C21   C22   A    
C44   C46   S    
C32   H23   S    
C4    C45   S    
C25   C29   A    
C3    C44   S    
Cu1   O5    S    
C14   C20   A    
C4    H31   S    
C12   C46   S    
C27   N1    A    
C42   H12   S    
C39   C40   A    
C25   C26   A    
C26   N1    A    
C4    H2    S    
C9    H11   S    
C44   H27   S    
C2    C4    S    
C5    C9    A    
C37   C38   A    
C17   H14   S    
C11   C16   A    
N3    H33   S    
Cu1   Cu2   S    
C2    C43   S    
C6    C24   A    
C17   C18   A    
C15   H13   S    
Cu2   O6    S    
C34   O7    A    
Cu1   O3    S    
C3    H28   S    
C38   C41   A    
C30   C35   A    
C44   H3    S    
C35   H24   S    
C43   H22   S    
Cu2   O8    S    
C42   C43   S    
C28   C29   A    
C14   C15   A    
C40   N2    A    
C10   C13   A    
C5    C8    A    
C3    H4    S    
Cu2   O2    S    
C22   H7    S    
C1    O2    A    
C31   C38   A    
C13   C17   A    
C40   H17   S    
C26   H20   S    
Cu1   O7    S    
Cu2   N1    S    
C19   C20   A    
C28   C30   A    
C2    C3    S    
C1    O1    A    
C34   O8    A    
C37   C39   A    
C32   C33   A    
N3    H32   S    
C33   H16   S    
C6    C23   S    
Cu1   N2    S    
C21   H15   S    
C10   C11   A    
C42   H1    S    
C27   C28   A    
Cu2   O4    S    
C45   H29   S    
C13   C14   A    
C7    H9    S    
