data_mof_unit_19126.cif
_audit_creation_date              2012-12-10T21:12:20-0500
_audit_creation_method            fapswitch 2.2
_symmetry_space_group_name_H-M    P1
_symmetry_Int_Tables_number       1
_space_group_crystal_system       triclinic
_cell_length_a                    13.133329
_cell_length_b                    16.737466
_cell_length_c                    17.490866
_cell_angle_alpha                 90.011495
_cell_angle_beta                  89.85383
_cell_angle_gamma                 71.805589
_cell_volume                      3652.57335215

loop_
_atom_site_label
_atom_site_type_symbol
_atom_type_description
_atom_site_fract_x
_atom_site_fract_y
_atom_site_fract_z
_atom_type_partial_charge
C1    C     C_R   0.496374 0.500790 0.646693 0.918268
C2    C     C_R   0.973536 0.467851 0.445281 -0.049325
C3    C     C_R   0.861823 0.492399 0.440892 -0.078849
C4    C     C_R   0.022313 0.530022 0.462411 -0.108689
C5    C     C_R   0.961947 0.616331 0.454296 -0.093315
C6    C     C_R   0.855263 0.639402 0.429292 0.363995
C7    C     C_R   0.806560 0.576356 0.418674 0.412125
C8    C     C_R   0.126894 0.509151 0.492470 0.396162
C9    C     C_R   0.114262 0.657055 0.496988 0.346402
C10   C     C_R   0.811110 0.431209 0.457636 -0.157196
C11   C     C_R   0.555231 0.435091 0.151239 0.442115
C12   C     C_R   0.701159 0.455738 0.486975 0.915001
C13   C     C_R   0.565291 0.440311 0.229618 -0.346942
C14   C     C_R   0.488631 0.500854 0.271715 -0.237159
C15   C     C_R   0.398900 0.557153 0.236814 0.331352
C16   C     C_R   0.383096 0.548273 0.158059 0.375450
C17   C     C_R   0.463903 0.490353 0.115499 -0.166581
C18   C     C_1   0.456125 0.492579 0.034855 0.045685
C19   C     C_1   0.455524 0.494595 0.967017 0.098623
C20   C     C_R   0.531850 0.427298 0.848621 0.458154
C21   C     C_R   0.540030 0.430094 0.769320 -0.345726
C22   C     C_R   0.483616 0.502445 0.728992 -0.274997
C23   C     C_R   0.498828 0.500129 0.353524 0.963505
C24   C     C_R   0.412845 0.572409 0.767582 0.346799
C25   C     C_R   0.402154 0.568601 0.846802 0.418363
C26   C     C_R   0.461619 0.496346 0.886404 -0.183090
C27   C     C_R   0.584003 0.150998 0.545911 -0.485548
C28   C     C_R   0.573178 0.237979 0.546332 0.517384
C29   C     C_R   0.436119 0.264375 0.452080 0.447933
C30   C     C_R   0.440453 0.177422 0.454667 0.282448
C31   C     C_R   0.518544 0.119947 0.499496 -0.039449
C32   C     C_1   0.527609 0.029768 0.499668 0.061033
C33   C     C_1   0.528804 0.956230 0.498648 0.056275
C34   C     C_R   0.295025 0.545368 0.503027 0.901626
C35   C     C_R   0.571505 0.811928 0.553761 -0.456599
C36   C     C_R   0.562966 0.729542 0.553014 0.545077
C37   C     C_R   0.446726 0.763929 0.445603 0.430364
C38   C     C_R   0.467698 0.842927 0.438384 0.260994
C39   C     C_R   0.523489 0.869507 0.496604 -0.043993
C40   C     C_R   0.008549 0.678572 0.472700 -0.128052
C41   C     C_R   0.177157 0.571646 0.499236 -0.236586
C42   C     C_R   0.868554 0.346054 0.448117 -0.309251
C43   C     C_R   0.977078 0.322326 0.427873 0.481181
C44   C     C_R   0.030750 0.382547 0.430453 -0.165910
H1    H     H_    0.634105 0.397346 0.257963 0.181537
H2    H     H_    0.591411 0.375966 0.739041 0.207447
H3    H     H_    0.643058 0.107838 0.581975 0.181437
H4    H     H_    0.617477 0.830321 0.597912 0.182883
H5    H     H_    0.962283 0.744638 0.470265 0.212844
H6    H     H_    0.828915 0.298561 0.454638 0.166366
H7    H     H_    0.115892 0.362857 0.418706 0.195368
N1    N     N_R   0.499970 0.292770 0.499970 -0.146719
N2    N     N_R   0.499980 0.707230 0.499990 -0.141291
O1    O     O_R   0.500000 0.433430 0.610870 -0.574035
O2    O     O_R   0.500010 0.566520 0.610900 -0.562650
O3    O     O_R   0.653610 0.400420 0.499960 -0.592978
O4    O     O_R   0.653620 0.533500 0.499990 -0.544752
O5    O     O_R   0.499990 0.433480 0.389100 -0.634031
O6    O     O_R   0.500000 0.566570 0.389130 -0.526401
O7    O     O_R   0.346380 0.466500 0.500010 -0.511978
O8    O     O_R   0.346390 0.599580 0.500040 -0.599224
Zn1   Zn    Zn3+2 0.500000 0.411140 0.499980 1.036023
Zn2   Zn    Zn3+2 0.500000 0.588860 0.500020 1.072847
O9    O     O_3   0.150845 0.720833 0.522167 -0.769263
H8    H     H_    0.202015 0.698811 0.564403 0.338343
O10   O     O_3   0.327728 0.617949 0.281094 -0.753519
H9    H     H_    0.279204 0.660484 0.247334 0.342966
O11   O     O_3   0.292283 0.598512 0.121141 -0.651716
C45   C     C_3   0.202707 0.572077 0.140079 0.049091
H10   H     H_    0.129438 0.624782 0.126176 0.176590
H11   H     H_    0.197703 0.559180 0.202251 0.150918
C46   C     C_3   0.201599 0.494748 0.093370 -0.363988
H12   H     H_    0.208886 0.507158 0.031622 0.230838
H13   H     H_    0.270650 0.439752 0.109974 0.210723
C47   C     C_3   0.098316 0.473222 0.106868 -0.949117
H14   H     H_    0.089757 0.459915 0.168378 0.267372
H15   H     H_    0.100313 0.416565 0.073102 0.270738
H16   H     H_    0.027888 0.526197 0.088565 0.264214
O12   O     O_3   0.585021 0.355380 0.889655 -0.640186
C48   C     C_3   0.697446 0.331858 0.878316 0.080386
H17   H     H_    0.735456 0.330405 0.935191 0.169597
H18   H     H_    0.724970 0.376501 0.842536 0.130031
C49   C     C_3   0.737142 0.243552 0.843636 -0.330568
H19   H     H_    0.716284 0.198503 0.882578 0.236363
H20   H     H_    0.697084 0.242771 0.787924 0.221178
C50   C     C_3   0.858215 0.215068 0.831201 -0.951753
H21   H     H_    0.880594 0.258136 0.790909 0.266991
H22   H     H_    0.884427 0.150700 0.806528 0.267992
H23   H     H_    0.900250 0.214023 0.886396 0.269186
O13   O     O_3   0.350729 0.643828 0.730551 -0.731641
H24   H     H_    0.334841 0.628566 0.678309 0.315604
O14   O     O_3   0.335487 0.636863 0.886046 -0.591001
C51   C     C_3   0.231449 0.629127 0.888500 0.123497
H25   H     H_    0.232986 0.566730 0.911698 0.108561
H26   H     H_    0.195835 0.636758 0.830170 0.162679
C52   C     C_3   0.160787 0.697813 0.940325 -0.295121
H27   H     H_    0.197612 0.692805 0.997945 0.263143
H28   H     H_    0.155203 0.760513 0.916293 0.232745
C53   C     C_3   0.048287 0.690444 0.947973 -0.989781
H29   H     H_    0.009110 0.696781 0.891101 0.272360
H30   H     H_    0.999227 0.741165 0.985942 0.270947
H31   H     H_    0.051790 0.628791 0.973291 0.268193
O15   O     O_3   0.637049 0.269077 0.592421 -0.731079
H32   H     H_    0.685332 0.222317 0.622502 0.309119
O16   O     O_3   0.364761 0.323755 0.406134 -0.597941
C54   C     C_3   0.364163 0.299845 0.328211 0.117814
H33   H     H_    0.320734 0.358032 0.296556 0.159674
H34   H     H_    0.315431 0.257197 0.319795 0.172017
C55   C     C_3   0.476126 0.263619 0.291437 -0.402697
H35   H     H_    0.526162 0.303953 0.305434 0.244744
H36   H     H_    0.517093 0.199545 0.313707 0.219748
C56   C     C_3   0.468002 0.257761 0.204711 -0.882085
H37   H     H_    0.421348 0.214989 0.189457 0.261755
H38   H     H_    0.549580 0.232592 0.179666 0.284679
H39   H     H_    0.428241 0.320873 0.179933 0.254357
O17   O     O_3   0.801145 0.723324 0.415031 -0.794523
H40   H     H_    0.724745 0.730712 0.404347 0.356502
O18   O     O_3   0.375063 0.146136 0.409852 -0.659600
C57   C     C_3   0.272453 0.164437 0.443638 0.129425
H41   H     H_    0.218520 0.156432 0.397747 0.228089
H42   H     H_    0.240905 0.230610 0.464316 0.166518
C58   C     C_3   0.270637 0.102729 0.508242 -0.374938
H43   H     H_    0.306989 0.037326 0.487512 0.248543
H44   H     H_    0.317689 0.113566 0.557623 0.213709
C59   C     C_3   0.156884 0.112982 0.535516 -0.896948
H45   H     H_    0.116546 0.178765 0.554179 0.280240
H46   H     H_    0.159662 0.070335 0.584629 0.256839
H47   H     H_    0.110034 0.095999 0.489018 0.277545
O19   O     O_3   0.617931 0.670350 0.605392 -0.707916
H48   H     H_    0.660497 0.695474 0.639000 0.317420
O20   O     O_3   0.378185 0.739337 0.397103 -0.579982
C60   C     C_3   0.280434 0.803185 0.379410 0.180560
H49   H     H_    0.224531 0.769812 0.359185 0.190434
H50   H     H_    0.291262 0.840851 0.329681 0.144808
C61   C     C_3   0.225530 0.861169 0.446646 -0.378371
H51   H     H_    0.238640 0.825871 0.501152 0.261833
H52   H     H_    0.260137 0.913151 0.453434 0.223761
C62   C     C_3   0.105582 0.901326 0.432893 -0.870108
H53   H     H_    0.092208 0.940001 0.380057 0.247629
H54   H     H_    0.069157 0.942612 0.481929 0.262474
H55   H     H_    0.065319 0.852370 0.427079 0.288504
O21   O     O_3   0.429501 0.896048 0.377133 -0.651078
C63   C     C_3   0.496433 0.867715 0.312630 0.101694
H56   H     H_    0.445266 0.885325 0.260978 0.165612
H57   H     H_    0.533821 0.797935 0.310270 0.138574
C64   C     C_3   0.582991 0.911375 0.309030 -0.341246
H58   H     H_    0.545002 0.980478 0.314901 0.254577
H59   H     H_    0.640174 0.889134 0.356942 0.232562
C65   C     C_3   0.644878 0.893075 0.233756 -0.937269
H60   H     H_    0.684216 0.824424 0.226757 0.263694
H61   H     H_    0.707588 0.924781 0.233498 0.270904
H62   H     H_    0.590039 0.917070 0.184869 0.265718
O22   O     O_3   0.177720 0.430702 0.522979 -0.746602
H63   H     H_    0.123449 0.412173 0.551148 0.327692
O23   O     O_3   0.032588 0.241026 0.407495 -0.829515
H64   H     H_    0.982480 0.207303 0.406752 0.330568
O24   O     O_3   0.709590 0.596802 0.380312 -0.647651
C66   C     C_3   0.725281 0.562910 0.305311 0.054560
H65   H     H_    0.644882 0.574199 0.280016 0.188836
H66   H     H_    0.764885 0.493585 0.305497 0.133675
C67   C     C_3   0.786265 0.606774 0.253571 -0.385275
H67   H     H_    0.747495 0.675877 0.256751 0.236152
H68   H     H_    0.870651 0.591859 0.272927 0.217567
C68   C     C_3   0.786740 0.578254 0.170654 -0.914995
H69   H     H_    0.826900 0.509356 0.166071 0.277448
H70   H     H_    0.831019 0.611040 0.134679 0.259229
H71   H     H_    0.703464 0.593630 0.148825 0.270679
O25   O     O_3   0.635911 0.375308 0.112686 -0.761852
H72   H     H_    0.615434 0.371708 0.058766 0.347848

loop_
_geom_bond_atom_site_label_1
_geom_bond_atom_site_label_2
_ccdc_geom_bond_type
O5    Zn1   S    
C61   C62   S    
C66   H66   S    
O24   C66   S    
C10   C42   A    
C9    O9    S    
N2    Zn2   S    
C2    C4    A    
C35   C36   A    
C4    C8    A    
C56   H38   S    
C67   H67   S    
C65   H60   S    
C61   H51   S    
C23   O6    A    
C33   C39   S    
C54   H34   S    
C27   C28   A    
C68   H69   S    
C21   H2    S    
C3    C7    A    
C65   H61   S    
C38   C39   A    
C50   H22   S    
C54   H33   S    
C63   H56   S    
C52   C53   S    
C11   C13   A    
O17   H40   S    
O7    Zn1   S    
C18   C19   T    
C45   H11   S    
C19   C26   S    
O18   C57   S    
C36   N2    A    
C66   C67   S    
O11   C45   S    
C49   H19   S    
C2    C44   A    
C16   C17   A    
C52   H28   S    
C59   H47   S    
C66   H65   S    
C16   O11   S    
C29   C30   A    
C37   N2    A    
O10   H9    S    
C1    C22   S    
C51   H26   S    
C61   H52   S    
C13   C14   A    
C34   O7    A    
C38   O21   S    
C29   O16   S    
C34   C41   S    
C46   C47   S    
C43   O23   S    
C35   H4    S    
C56   H37   S    
C67   H68   S    
O4    Zn2   S    
C64   H59   S    
C57   H42   S    
C27   C31   A    
C40   H5    S    
C8    C41   A    
C46   H13   S    
C65   H62   S    
C50   H21   S    
C46   H12   S    
O1    Zn1   S    
C25   C26   A    
C15   O10   S    
C62   H55   S    
C34   O8    A    
C37   O20   S    
O2    Zn2   S    
C14   C23   S    
C9    C40   A    
C45   C46   S    
C35   C39   A    
C47   H14   S    
C37   C38   A    
C64   C65   S    
C53   H29   S    
C30   C31   A    
C52   H27   S    
C53   H31   S    
O8    Zn2   S    
C17   C18   S    
C51   H25   S    
C24   C25   A    
C8    O22   S    
C47   H15   S    
C6    O17   S    
C12   O3    A    
C10   C12   S    
C42   H6    S    
C1    O1    A    
C7    O24   S    
C12   O4    A    
C44   H7    S    
C48   H18   S    
O25   H72   S    
C49   H20   S    
C51   C52   S    
C43   C44   A    
C59   H45   S    
C22   C24   A    
C55   C56   S    
C63   C64   S    
C58   H44   S    
O20   C60   S    
O15   H32   S    
C67   C68   S    
C48   C49   S    
C64   H58   S    
C57   C58   S    
C27   H3    S    
C63   H57   S    
C11   C17   A    
C25   O14   S    
C20   O12   S    
C53   H30   S    
O21   C63   S    
O6    Zn2   S    
C31   C32   S    
C48   H17   S    
C50   H23   S    
C24   O13   S    
C57   H41   S    
C6    C7    A    
C62   H54   S    
C30   O18   S    
O16   C54   S    
C9    C41   A    
C32   C33   T    
C58   C59   S    
C55   H36   S    
C2    C3    A    
O19   H48   S    
C3    C10   A    
N1    Zn1   S    
C36   O19   S    
O9    H8    S    
C13   H1    S    
C28   N1    A    
C28   O15   S    
O13   H24   S    
C5    C6    A    
C20   C26   A    
C60   C61   S    
C68   H70   S    
O14   C51   S    
C60   H49   S    
C23   O5    A    
O3    Zn1   S    
C68   H71   S    
C1    O2    A    
C45   H10   S    
C47   H16   S    
C62   H53   S    
O12   C48   S    
C11   O25   S    
C4    C5    A    
C49   C50   S    
C20   C21   A    
C60   H50   S    
C42   C43   A    
C5    C40   A    
C55   H35   S    
O23   H64   S    
C59   H46   S    
C14   C15   A    
C58   H43   S    
C21   C22   A    
C29   N1    A    
C56   H39   S    
C15   C16   A    
O22   H63   S    
C54   C55   S    
