data_mof_unit_28944.cif
_audit_creation_date              2012-12-10T17:42:42-0500
_audit_creation_method            fapswitch 2.2
_symmetry_space_group_name_H-M    P1
_symmetry_Int_Tables_number       1
_space_group_crystal_system       triclinic
_cell_length_a                    9.975807
_cell_length_b                    10.620225
_cell_length_c                    13.117555
_cell_angle_alpha                 93.701499
_cell_angle_beta                  71.067858
_cell_angle_gamma                 93.51992
_cell_volume                      1310.61593959

loop_
_atom_site_label
_atom_site_type_symbol
_atom_type_description
_atom_site_fract_x
_atom_site_fract_y
_atom_site_fract_z
_atom_type_partial_charge
C1    C     C_R   0.504543 0.739663 0.499891 0.938291
C2    C     C_R   0.381826 0.434528 0.810569 -0.225584
C3    C     C_R   0.666813 0.867030 0.301571 0.583916
C4    C     C_R   0.423187 0.480007 0.700462 0.919445
C5    C     C_R   0.706203 0.923830 0.202710 -0.218932
C6    C     C_R   0.649728 0.037734 0.194921 -0.210280
C7    C     C_R   0.563546 0.100601 0.287549 0.120846
C8    C     C_R   0.544555 0.054854 0.390522 -0.020418
C9    C     C_R   0.578826 0.930040 0.396068 -0.050591
C10   C     C_R   0.518175 0.872603 0.495554 -0.065158
C11   C     C_R   0.451089 0.941504 0.590471 -0.230441
C12   C     C_R   0.446220 0.424330 0.972714 0.047777
C13   C     C_R   0.442225 0.069544 0.587691 -0.184947
C14   C     C_R   0.488361 0.125824 0.488653 -0.027641
C15   C     C_R   0.827946 0.700708 0.600802 -0.113251
C16   C     C_R   0.498538 0.259967 0.492903 0.861805
C17   C     C_R   0.890733 0.815642 0.621005 -0.205379
C18   C     C_R   0.032987 0.821916 0.612748 -0.199419
C19   C     C_R   0.103080 0.709324 0.601425 0.222315
C20   C     C_R   0.055579 0.600341 0.551079 0.143798
C21   C     C_R   0.911797 0.598939 0.550340 0.159995
C22   C     C_R   0.942819 0.404159 0.452539 -0.076050
C23   C     C_R   0.486394 0.416844 0.859802 -0.005749
C24   C     C_R   0.085052 0.403911 0.453092 -0.072228
C25   C     C_R   0.578245 0.503801 0.296457 1.008657
C26   C     C_R   0.803560 0.487853 0.004823 0.741629
C27   C     C_R   0.623723 0.501166 0.179204 -0.161740
C28   C     C_R   0.238713 0.412865 0.869877 -0.196945
C29   C     C_R   0.199802 0.390212 0.979458 0.732599
C30   C     C_R   0.301162 0.403027 0.032021 -0.275693
C31   C     C_R   0.553297 0.451921 0.020793 -0.023621
C32   C     C_R   0.698704 0.452422 0.957046 -0.149141
C33   C     C_R   0.735266 0.415233 0.847800 0.644195
C34   C     C_R   0.629535 0.393083 0.800865 -0.271946
C35   C     C_R   0.519026 0.485412 0.129879 -0.204018
C36   C     C_R   0.766602 0.507043 0.116331 -0.210257
F1    F     F_    0.721501 0.754376 0.304187 -0.679627
F2    F     F_    0.872409 0.400112 0.785974 -0.630886
F3    F     F_    0.940555 0.506742 0.943836 -0.610243
F4    F     F_    0.063218 0.359530 0.036191 -0.647481
H1    H     H_    0.848860 0.526780 0.153123 0.227630
H2    H     H_    0.409778 0.496008 0.178431 0.189838
H3    H     H_    0.158434 0.411941 0.830812 0.264789
H4    H     H_    0.264603 0.390121 0.117801 0.176175
H5    H     H_    0.661646 0.356166 0.718165 0.204912
H6    H     H_    0.407922 0.896242 0.666705 0.162778
H7    H     H_    0.773034 0.875280 0.130744 0.190282
H8    H     H_    0.665143 0.072629 0.115979 0.197135
H9    H     H_    0.398818 0.124899 0.662490 0.144949
H10   H     H_    0.901731 0.325762 0.413051 0.160468
H11   H     H_    0.714805 0.692543 0.627643 0.195756
H12   H     H_    0.826799 0.897078 0.651538 0.173898
H13   H     H_    0.075255 0.908357 0.641622 0.181122
H14   H     H_    0.148847 0.324966 0.414993 0.173749
I1    I     I_    0.409932 0.209071 0.260155 -0.410357
I2    I     I_    0.145341 0.703722 0.749207 -0.269883
N1    N     N_R   0.856860 0.501200 0.500990 -0.118786
N2    N     N_R   0.142450 0.501280 0.501020 -0.112609
O1    O     O_R   0.385310 0.683220 0.500000 -0.623176
O2    O     O_R   0.614640 0.683250 0.500010 -0.590073
O3    O     O_R   0.328400 0.499950 0.653610 -0.577307
O4    O     O_R   0.557730 0.499970 0.653620 -0.650853
O5    O     O_R   0.385360 0.316750 0.499990 -0.600213
O6    O     O_R   0.614690 0.316780 0.500000 -0.634497
O7    O     O_R   0.442270 0.500030 0.346380 -0.623153
O8    O     O_R   0.671600 0.500050 0.346390 -0.567969
Zn1   Zn    Zn3+2 0.346880 0.499980 0.499990 0.997520
Zn2   Zn    Zn3+2 0.653120 0.500020 0.500010 0.980272

loop_
_geom_bond_atom_site_label_1
_geom_bond_atom_site_label_2
_ccdc_geom_bond_type
C19   I2    S    
O8    Zn2   S    
C21   N1    A    
C6    C7    A    
C3    C9    A    
C16   O5    A    
C15   H11   S    
C27   C36   A    
C25   C27   S    
C11   C13   A    
C9    C10   A    
O3    Zn1   S    
C28   H3    S    
C2    C4    S    
C19   C20   A    
O4    Zn2   S    
C22   H10   S    
C23   C34   A    
C30   H4    S    
C32   C33   A    
C3    C5    A    
C22   N1    A    
C12   C30   A    
C17   C18   A    
C7    C8    A    
C34   H5    S    
C13   C14   A    
C26   C32   A    
C5    H7    S    
C12   C23   A    
O2    Zn2   S    
C36   H1    S    
C29   C30   A    
C6    H8    S    
C27   C35   A    
C13   H9    S    
C7    I1    S    
O6    Zn2   S    
C17   H12   S    
C26   C36   A    
C28   C29   A    
C33   C34   A    
C31   C35   A    
C1    O1    A    
C12   C31   A    
C5    C6    A    
C26   F3    S    
O5    Zn1   S    
C29   F4    S    
C1    O2    A    
C2    C28   A    
C10   C11   A    
C1    C10   S    
N1    Zn2   S    
C24   H14   S    
C33   F2    S    
C4    O4    A    
N2    Zn1   S    
C15   C21   A    
C25   O7    A    
C20   C21   A    
C3    F1    S    
C24   N2    A    
C18   C19   A    
C22   C24   A    
C2    C23   A    
C15   C17   A    
C35   H2    S    
C11   H6    S    
C8    C14   A    
C16   O6    A    
C18   H13   S    
O1    Zn1   S    
C14   C16   S    
C20   N2    A    
C4    O3    A    
C25   O8    A    
C31   C32   A    
C8    C9    A    
O7    Zn1   S    
