data_mof_unit_41797.cif
_audit_creation_date              2012-12-10T19:33:10-0500
_audit_creation_method            fapswitch 2.2
_symmetry_space_group_name_H-M    P1
_symmetry_Int_Tables_number       1
_space_group_crystal_system       triclinic
_cell_length_a                    8.836129
_cell_length_b                    15.842732
_cell_length_c                    17.106132
_cell_angle_alpha                 96.42185
_cell_angle_beta                  94.084577
_cell_angle_gamma                 84.106029
_cell_volume                      2362.72772021

loop_
_atom_site_label
_atom_site_type_symbol
_atom_type_description
_atom_site_fract_x
_atom_site_fract_y
_atom_site_fract_z
_atom_type_partial_charge
C1    C     C_R   0.512319 0.488377 0.348871 0.822858
C2    C     C_R   0.488105 0.511573 0.651248 0.824703
C3    C     C_R   0.416720 0.756866 0.462638 0.479780
C4    C     C_R   0.549479 0.244091 0.549660 0.521744
C5    C     C_R   0.409682 0.847610 0.470590 0.180763
C6    C     C_R   0.521724 0.158077 0.552338 0.174708
C7    C     C_R   0.521873 0.889681 0.519146 0.136154
C8    C     C_R   0.457830 0.112051 0.484681 0.108394
C9    C     C_R   0.622146 0.840863 0.567838 0.230395
C10   C     C_R   0.389167 0.157464 0.423076 0.265383
C11   C     C_R   0.619588 0.751148 0.561639 -0.034207
C12   C     C_R   0.391627 0.249146 0.431262 -0.065483
C13   C     C_R   0.206054 0.521574 0.499630 0.828859
C14   C     C_R   0.793817 0.478247 0.498737 0.816785
C15   C     C_2   0.041946 0.532547 0.493396 -0.252669
C16   C     C_2   0.957842 0.466625 0.501917 -0.242697
C17   C     C_R   0.532732 0.480364 0.262394 -0.221001
C18   C     C_R   0.458950 0.518929 0.737059 -0.208119
C19   C     C_R   0.582846 0.547916 0.225720 -0.132100
C20   C     C_R   0.417371 0.447100 0.770434 -0.120393
C21   C     C_R   0.578521 0.543518 0.142800 -0.138531
C22   C     C_R   0.417202 0.447312 0.852478 -0.140365
C23   C     C_R   0.516583 0.474287 0.096707 0.202705
C24   C     C_R   0.438905 0.523364 0.901827 0.216984
C25   C     C_R   0.472440 0.406741 0.133169 0.398524
C26   C     C_R   0.450386 0.598887 0.868099 0.376494
C27   C     C_R   0.500396 0.405035 0.214234 -0.160678
C28   C     C_R   0.465294 0.596918 0.786673 -0.159542
Cu1   Cu    Cu3+1 0.492520 0.415770 0.496210 1.007941
Cu2   Cu    Cu3+1 0.507480 0.584230 0.503790 1.006082
N1    N     N_2   0.512777 0.466387 0.013472 -0.200321
N2    N     N_2   0.440558 0.528715 0.985260 -0.232137
N3    N     N_R   0.518730 0.710760 0.509500 -0.259747
N4    N     N_R   0.481270 0.289240 0.490500 -0.260164
N5    N     N_2   0.533457 0.980317 0.525295 -0.143803
N6    N     N_2   0.449215 0.021017 0.477599 -0.090904
O1    O     O_R   0.493000 0.421040 0.382520 -0.581997
O2    O     O_R   0.507000 0.578960 0.617480 -0.589332
O3    O     O_R   0.505640 0.563310 0.388930 -0.556995
O4    O     O_R   0.494360 0.436690 0.611070 -0.520369
O5    O     O_R   0.269980 0.445280 0.497530 -0.571503
O6    O     O_R   0.730020 0.554720 0.502470 -0.576880
O7    O     O_R   0.282610 0.587550 0.503940 -0.543445
O8    O     O_R   0.717390 0.412450 0.496060 -0.581725
C29   C     C_1   0.977198 0.615933 0.472660 0.336225
N7    N     N_1   0.927331 0.682517 0.456199 -0.311652
C30   C     C_1   0.023882 0.381903 0.518372 0.304595
N8    N     N_1   0.076840 0.314513 0.531031 -0.333647
C31   C     C_1   0.357106 0.376275 0.721205 0.345316
N9    N     N_1   0.306861 0.320510 0.681929 -0.304033
C32   C     C_1   0.651250 0.618262 0.271938 0.263518
N10   N     N_1   0.705767 0.674615 0.308405 -0.288450
C33   C     C_1   0.391924 0.369088 0.884154 0.293969
N11   N     N_1   0.373149 0.305519 0.907652 -0.290633
C34   C     C_1   0.640717 0.608710 0.104968 0.318856
N12   N     N_1   0.690576 0.660716 0.074884 -0.261470
O9    O     O_3   0.405737 0.339804 0.089389 -0.585627
C35   C     C_3   0.248111 0.364333 0.073996 0.087658
H1    H     H_    0.204163 0.316709 0.027633 0.192087
H2    H     H_    0.228007 0.427347 0.049922 0.142827
C36   C     C_3   0.155343 0.364358 0.146719 -0.405418
H3    H     H_    0.178463 0.301564 0.170509 0.235131
H4    H     H_    0.188881 0.414953 0.193093 0.226010
C37   C     C_3   0.984601 0.381327 0.126146 -0.878749
H5    H     H_    0.959497 0.443389 0.101154 0.259884
H6    H     H_    0.920764 0.383996 0.180118 0.261047
H7    H     H_    0.944771 0.329558 0.082742 0.262532
O10   O     O_3   0.460756 0.674460 0.916550 -0.581465
C38   C     C_3   0.311888 0.711848 0.931113 0.061276
H8    H     H_    0.242325 0.666047 0.953853 0.144942
H9    H     H_    0.253907 0.733772 0.875948 0.138651
C39   C     C_3   0.322003 0.788654 0.993112 -0.297334
H10   H     H_    0.379836 0.767234 0.048342 0.233117
H11   H     H_    0.390577 0.835377 0.971579 0.230480
C40   C     C_3   0.164177 0.832183 0.010909 -0.923834
H12   H     H_    0.105582 0.856026 0.956888 0.260896
H13   H     H_    0.175469 0.887113 0.056622 0.259708
H14   H     H_    0.094107 0.786784 0.033307 0.268553
C41   C     C_1   0.514523 0.322433 0.243552 0.350275
N13   N     N_1   0.529882 0.255475 0.265523 -0.320961
C42   C     C_1   0.474903 0.677639 0.756259 0.350648
N14   N     N_1   0.480261 0.743142 0.733204 -0.292603
O11   O     O_3   0.623332 0.286833 0.613852 -0.567470
C43   C     C_3   0.776615 0.252331 0.624778 0.102928
H15   H     H_    0.849619 0.299627 0.609035 0.169872
H16   H     H_    0.806866 0.191001 0.587879 0.131167
C44   C     C_3   0.813022 0.240107 0.711772 -0.306192
H17   H     H_    0.795490 0.302756 0.747939 0.217735
H18   H     H_    0.735037 0.196923 0.730861 0.252466
C45   C     C_3   0.977006 0.201928 0.726325 -0.937527
H19   H     H_    0.995290 0.137740 0.693007 0.250147
H20   H     H_    0.000662 0.195411 0.790108 0.261355
H21   H     H_    0.057689 0.244039 0.707816 0.277411
O12   O     O_3   0.305813 0.714930 0.416739 -0.578581
C46   C     C_3   0.307039 0.727867 0.336076 0.099280
H22   H     H_    0.362900 0.669651 0.304367 0.162738
H23   H     H_    0.369380 0.782443 0.324359 0.157503
C47   C     C_3   0.143191 0.739910 0.300992 -0.318685
H24   H     H_    0.082362 0.684201 0.310459 0.238048
H25   H     H_    0.082863 0.798211 0.330945 0.235474
C48   C     C_3   0.138922 0.748048 0.212744 -0.916759
H26   H     H_    0.196329 0.804430 0.201805 0.265454
H27   H     H_    0.018654 0.756210 0.189000 0.271979
H28   H     H_    0.196518 0.689733 0.181184 0.255113
O13   O     O_3   0.553679 0.121862 0.622497 -0.558623
C49   C     C_3   0.415154 0.111512 0.656222 0.142420
H29   H     H_    0.373726 0.048968 0.633826 0.156292
H30   H     H_    0.321621 0.161345 0.642573 0.114101
C50   C     C_3   0.440014 0.115412 0.745831 -0.373124
H31   H     H_    0.482405 0.177419 0.769496 0.230712
H32   H     H_    0.329077 0.111572 0.771444 0.183234
C51   C     C_3   0.552653 0.042247 0.770937 -0.707334
H33   H     H_    0.509765 0.979867 0.749034 0.268129
H34   H     H_    0.566515 0.046959 0.836250 0.222141
H35   H     H_    0.665718 0.045416 0.747529 0.276045
O14   O     O_3   0.287394 0.894543 0.435612 -0.550293
C52   C     C_3   0.160939 0.897301 0.482526 0.088834
H36   H     H_    0.192345 0.917342 0.545534 0.134094
H37   H     H_    0.118851 0.833080 0.478790 0.141350
C53   C     C_3   0.030048 0.959114 0.452817 -0.323849
H38   H     H_    0.033735 0.960705 0.388230 0.236016
H39   H     H_    0.919443 0.935845 0.463031 0.169449
C54   C     C_3   0.034977 0.049164 0.495054 -0.841604
H40   H     H_    0.029159 0.048614 0.559599 0.222246
H41   H     H_    0.935963 0.091132 0.473528 0.234230
H42   H     H_    0.141378 0.075808 0.483620 0.286598
O15   O     O_3   0.696471 0.882564 0.632706 -0.582297
C55   C     C_3   0.853171 0.882969 0.621601 0.065189
H43   H     H_    0.870392 0.943743 0.598502 0.175189
H44   H     H_    0.899706 0.828683 0.580063 0.122923
C56   C     C_3   0.940802 0.879300 0.701847 -0.321745
H45   H     H_    0.895057 0.932943 0.743816 0.225413
H46   H     H_    0.924093 0.818567 0.725411 0.235152
C57   C     C_3   0.111045 0.884879 0.696795 -0.936979
H47   H     H_    0.159662 0.832662 0.654305 0.260208
H48   H     H_    0.170273 0.878456 0.755604 0.269213
H49   H     H_    0.131035 0.947741 0.678594 0.241855
O16   O     O_3   0.332018 0.104497 0.358442 -0.566015
C58   C     C_3   0.228836 0.140110 0.301456 0.114341
H50   H     H_    0.222136 0.090437 0.250392 0.166269
H51   H     H_    0.271636 0.193105 0.275626 0.144809
C59   C     C_3   0.067294 0.158352 0.330692 -0.399397
H52   H     H_    0.024809 0.097039 0.340012 0.235783
H53   H     H_    0.067462 0.199304 0.387692 0.230182
C60   C     C_3   0.957509 0.200961 0.270802 -0.870463
H54   H     H_    0.992587 0.264179 0.261931 0.270177
H55   H     H_    0.841377 0.210298 0.293012 0.276178
H56   H     H_    0.954069 0.160433 0.213474 0.256565
C61   C     C_1   0.721915 0.702414 0.612908 0.428913
N15   N     N_1   0.804637 0.663669 0.654165 -0.328964
C62   C     C_1   0.289850 0.303196 0.384626 0.393620
N16   N     N_1   0.207567 0.347194 0.347724 -0.347112

loop_
_geom_bond_atom_site_label_1
_geom_bond_atom_site_label_2
_ccdc_geom_bond_type
C44   H17   S    
C48   H26   S    
C2    C18   S    
C46   H22   S    
C12   C62   S    
C43   C44   S    
C34   N12   T    
C56   C57   S    
C55   H43   S    
C57   H49   S    
C13   O5    A    
C42   N14   T    
O9    C35   S    
C46   C47   S    
C21   C34   S    
C54   H40   S    
C33   N11   T    
C9    O15   S    
C19   C21   A    
C24   C26   A    
C27   C41   S    
C38   H8    S    
C52   H37   S    
C58   C59   S    
C54   H41   S    
C49   H29   S    
C3    N3    A    
C35   H2    S    
C15   C16   D    
O14   C52   S    
Cu2   O2    S    
C36   H4    S    
C8    N6    S    
C38   H9    S    
C11   C61   S    
N5    N6    D    
O10   C38   S    
C30   N8    T    
C62   N16   T    
C18   C20   A    
C53   C54   S    
C1    O1    A    
C14   O6    A    
C35   C36   S    
C48   H27   S    
C59   C60   S    
C36   H3    S    
C25   O9    S    
C39   C40   S    
C16   C30   S    
C51   H34   S    
C51   H33   S    
C60   H55   S    
C53   H39   S    
C60   H54   S    
C22   C33   S    
C4    N4    A    
C32   N10   T    
C17   C27   A    
C37   H7    S    
C11   N3    A    
C18   C28   A    
C43   H15   S    
C4    C6    A    
C50   H31   S    
C52   C53   S    
C5    C7    A    
C54   H42   S    
C57   H48   S    
C3    C5    A    
C35   H1    S    
C29   N7    T    
Cu1   N4    S    
C23   N1    S    
C36   C37   S    
C40   H12   S    
C24   N2    S    
Cu1   Cu2   S    
C19   C32   S    
C20   C31   S    
C40   H13   S    
C2    O2    A    
C45   H20   S    
O11   C43   S    
C13   C15   S    
C9    C11   A    
C10   C12   A    
C39   H11   S    
C20   C22   A    
C31   N9    T    
C48   H28   S    
C47   H25   S    
C21   C23   A    
C5    O14   S    
C14   C16   S    
Cu2   O7    S    
C50   C51   S    
C15   C29   S    
C12   N4    A    
O15   C55   S    
C55   C56   S    
C13   O7    A    
C60   H56   S    
C53   H38   S    
C45   H21   S    
C14   O8    A    
C7    C9    A    
Cu2   N3    S    
Cu1   O5    S    
C28   C42   S    
C7    N5    S    
N1    N2    D    
Cu2   O6    S    
C38   C39   S    
C39   H10   S    
C56   H46   S    
C55   H44   S    
C6    C8    A    
C58   H50   S    
C46   H23   S    
C57   H47   S    
C25   C27   A    
C47   C48   S    
O13   C49   S    
C26   C28   A    
C26   O10   S    
C37   H5    S    
C50   H32   S    
Cu1   O8    S    
C61   N15   T    
C58   H51   S    
C45   H19   S    
C4    O11   S    
C49   H30   S    
Cu1   O4    S    
C17   C19   A    
C6    O13   S    
Cu2   O3    S    
C3    O12   S    
C22   C24   A    
C23   C25   A    
O12   C46   S    
C40   H14   S    
O16   C58   S    
C1    O3    A    
C41   N13   T    
C2    O4    A    
C1    C17   S    
C8    C10   A    
C47   H24   S    
C44   C45   S    
Cu1   O1    S    
C44   H18   S    
C59   H52   S    
C43   H16   S    
C10   O16   S    
C52   H36   S    
C51   H35   S    
C59   H53   S    
C56   H45   S    
C37   H6    S    
C49   C50   S    
