data_mof_unit_26393.cif
_audit_creation_date              2012-12-10T18:50:53-0500
_audit_creation_method            fapswitch 2.2
_symmetry_space_group_name_H-M    P1
_symmetry_Int_Tables_number       1
_space_group_crystal_system       triclinic
_cell_length_a                    10.716852
_cell_length_b                    9.837057
_cell_length_c                    15.744049
_cell_angle_alpha                 89.981118
_cell_angle_beta                  90.099648
_cell_angle_gamma                 90.025017
_cell_volume                      1659.7708466

loop_
_atom_site_label
_atom_site_type_symbol
_atom_type_description
_atom_site_fract_x
_atom_site_fract_y
_atom_site_fract_z
_atom_type_partial_charge
C1    C     C_R   0.259831 0.499980 0.499973 0.869630
C2    C     C_R   0.936067 0.621108 0.483382 -0.193467
C3    C     C_R   0.872547 0.500056 0.500248 -0.011275
C4    C     C_R   0.127398 0.499976 0.500058 -0.010241
C5    C     C_R   0.582329 0.071979 0.549354 -0.068524
C6    C     C_R   0.582336 0.928058 0.549346 -0.060353
C7    C     C_R   0.499974 0.500007 0.338208 0.903772
C8    C     C_R   0.417567 0.928024 0.450645 -0.068844
C9    C     C_R   0.417571 0.071945 0.450643 -0.070858
C10   C     C_R   0.740112 0.500022 0.500116 0.860050
C11   C     C_R   0.500085 0.499946 0.661792 0.906897
C12   C     C_3   0.594184 0.373539 0.951604 0.190681
C13   C     C_3   0.562929 0.629484 0.048888 -0.468168
C14   C     C_3   0.368358 0.485350 0.048920 -0.448881
C15   C     C_3   0.369727 0.475680 0.951246 0.545788
C16   C     C_3   0.554239 0.634000 0.951091 0.512121
C17   C     C_1   0.501819 0.499426 0.750616 -0.150204
C18   C     C_3   0.503370 0.496606 0.082593 0.124690
C19   C     C_3   0.506395 0.493763 0.917547 -0.025527
C20   C     C_3   0.734839 0.405749 0.928911 -0.383368
C21   C     C_3   0.829770 0.292054 0.945157 -0.825715
C22   C     C_3   0.556548 0.234036 0.907893 -0.336139
C23   C     C_3   0.578616 0.371683 0.051079 -0.422822
C24   C     C_3   0.578021 0.102944 0.959138 -0.809354
C25   C     C_1   0.503827 0.497465 0.825866 -0.007159
C26   C     C_1   0.501980 0.498753 0.174042 -0.029779
C27   C     C_1   0.500902 0.499804 0.249330 -0.192163
C28   C     C_R   0.063885 0.378950 0.517011 -0.190021
C29   C     C_R   0.063891 0.621062 0.483265 -0.187223
C30   C     C_R   0.936052 0.378998 0.517136 -0.193574
F1    F     F_    0.475002 0.738495 0.926575 -0.606179
F2    F     F_    0.290694 0.573501 0.917370 -0.597756
H1    H     H_    0.351705 0.873451 0.411207 0.123963
H2    H     H_    0.528536 0.279647 0.073139 0.189566
H3    H     H_    0.112582 0.284901 0.530654 0.159318
H4    H     H_    0.112581 0.715089 0.469529 0.153267
H5    H     H_    0.887354 0.284979 0.530881 0.153345
H6    H     H_    0.887389 0.715166 0.469735 0.156833
H7    H     H_    0.648139 0.126554 0.588836 0.123274
H8    H     H_    0.648159 0.873511 0.588815 0.130521
H9    H     H_    0.828268 0.258674 0.012407 0.247700
H10   H     H_    0.813485 0.204225 0.902408 0.264546
H11   H     H_    0.924959 0.330994 0.931529 0.252556
H12   H     H_    0.351719 0.126495 0.411199 0.127534
H13   H     H_    0.742326 0.434125 0.860780 0.193403
H14   H     H_    0.768723 0.493917 0.966269 0.189899
H15   H     H_    0.663575 0.106934 0.998409 0.256509
H16   H     H_    0.497117 0.082832 0.001300 0.251821
H17   H     H_    0.585885 0.015362 0.914965 0.278639
H18   H     H_    0.457701 0.231892 0.888108 0.179298
H19   H     H_    0.607666 0.224466 0.846764 0.206677
H20   H     H_    0.514727 0.719520 0.076386 0.221167
H21   H     H_    0.313392 0.575609 0.069356 0.229691
H22   H     H_    0.321681 0.393808 0.075819 0.135811
H23   H     H_    0.662364 0.635285 0.069038 0.136650
H24   H     H_    0.329286 0.376617 0.932516 0.051524
H25   H     H_    0.646704 0.660039 0.923837 0.054504
H26   H     H_    0.670765 0.369823 0.083633 0.187939
N1    N     N_R   0.499970 0.857200 0.499980 -0.080464
N2    N     N_R   0.499970 0.142800 0.499980 -0.079728
O1    O     O_R   0.316750 0.614620 0.499990 -0.625017
O2    O     O_R   0.316750 0.385380 0.499990 -0.629363
O3    O     O_R   0.499990 0.614720 0.377140 -0.615460
O4    O     O_R   0.499990 0.385280 0.377140 -0.613218
O5    O     O_R   0.683220 0.614710 0.500000 -0.631395
O6    O     O_R   0.683220 0.385290 0.500000 -0.629594
O7    O     O_R   0.499980 0.614620 0.622860 -0.595643
O8    O     O_R   0.499980 0.385380 0.622860 -0.622159
Zn1   Zn    Zn3+2 0.499980 0.653120 0.500000 0.960589
Zn2   Zn    Zn3+2 0.499980 0.346880 0.500000 0.949463

loop_
_geom_bond_atom_site_label_1
_geom_bond_atom_site_label_2
_ccdc_geom_bond_type
C8    C9    A    
C3    C30   A    
O4    Zn2   S    
C23   H26   S    
C13   H20   S    
C14   C18   S    
C4    C29   A    
C18   C26   S    
N2    Zn2   S    
C22   H18   S    
C1    C4    S    
C17   C25   T    
C15   H24   S    
C9    N2    A    
C28   C30   A    
C2    C3    A    
C15   F2    S    
C3    C10   S    
C30   H5    S    
C1    O2    A    
C16   F1    S    
C15   C19   S    
C16   H25   S    
O7    Zn1   S    
C29   H4    S    
C7    O3    A    
C26   C27   T    
O6    Zn2   S    
C13   C18   S    
N1    Zn1   S    
C2    C29   A    
C21   H9    S    
C12   C19   S    
O3    Zn1   S    
C14   H22   S    
C11   O7    A    
C6    H8    S    
C8    H1    S    
C10   O6    A    
C8    N1    A    
C16   C19   S    
C5    C6    A    
C19   C25   S    
C22   C24   S    
C7    O4    A    
C10   O5    A    
C12   C20   S    
C18   C23   S    
C24   H16   S    
C12   C22   S    
C14   H21   S    
C7    C27   S    
C11   O8    A    
O2    Zn2   S    
O8    Zn2   S    
C20   H13   S    
C13   C16   S    
O1    Zn1   S    
C24   H17   S    
O5    Zn1   S    
C5    H7    S    
C2    H6    S    
C14   C15   S    
C11   C17   S    
C9    H12   S    
C12   C23   S    
C5    N2    A    
C4    C28   A    
C20   C21   S    
C21   H11   S    
C24   H15   S    
C6    N1    A    
C23   H2    S    
C20   H14   S    
C21   H10   S    
C28   H3    S    
C22   H19   S    
C13   H23   S    
C1    O1    A    
