data_mof_unit_50754.cif
_audit_creation_date              2012-10-26T20:21:14-0400
_audit_creation_method            fapswitch 2.2
_symmetry_space_group_name_H-M    P1
_symmetry_Int_Tables_number       1
_space_group_crystal_system       triclinic
_cell_length_a                    9.528223
_cell_length_b                    10.783213
_cell_length_c                    15.485991
_cell_angle_alpha                 90.073506
_cell_angle_beta                  74.470379
_cell_angle_gamma                 90.002804
_cell_volume                      1533.01678386

loop_
_atom_site_label
_atom_site_type_symbol
_atom_type_description
_atom_site_fract_x
_atom_site_fract_y
_atom_site_fract_z
_atom_type_partial_charge
C1    C     C_R   0.000477 0.262514 0.498911 0.573850
C2    C     C_R   0.095190 0.064208 0.428280 0.053170
C3    C     C_R   0.999782 0.871391 0.500649 -0.016820
C4    C     C_R   0.000256 0.128617 0.499386 -0.016634
C5    C     C_R   0.548098 0.429813 0.560118 0.025693
C6    C     C_R   0.451896 0.570206 0.439897 0.025840
C7    C     C_R   0.399346 0.429914 0.560133 0.025199
C8    C     C_R   0.600649 0.570097 0.439879 0.024917
C9    C     C_R   0.918261 0.497834 0.672076 0.565651
C10   C     C_R   0.081728 0.500746 0.327844 0.565733
C11   C     C_R   0.872594 0.484192 0.769767 0.021178
C12   C     C_R   0.999526 0.737487 0.501100 0.574468
C13   C     C_R   0.126646 0.502850 0.229544 0.021836
C14   C     C_R   0.917162 0.414384 0.908169 -0.133053
C15   C     C_R   0.074762 0.537789 0.087153 -0.131489
C16   C     C_R   0.968455 0.440103 0.817057 -0.127757
C17   C     C_R   0.026985 0.528730 0.180060 -0.125882
C18   C     C_R   0.726380 0.504742 0.814562 -0.101268
C19   C     C_R   0.273219 0.482408 0.185171 -0.098786
C20   C     C_R   0.670438 0.474801 0.905562 0.042640
C21   C     C_R   0.323570 0.487037 0.091265 0.041724
C22   C     C_R   0.769433 0.431456 0.952706 0.052352
C23   C     C_R   0.574849 0.421394 0.089074 -0.124102
C24   C     C_R   0.222008 0.518366 0.042556 0.052443
C25   C     C_R   0.519596 0.486782 0.950777 0.041143
C26   C     C_R   0.472361 0.465495 0.044868 0.038640
C27   C     C_1   0.811239 0.132870 0.645250 0.246809
C28   C     C_1   0.188961 0.867123 0.354874 0.247300
C29   C     C_R   0.413997 0.516443 0.904759 -0.119771
C30   C     C_R   0.720081 0.404244 0.043548 -0.127751
C31   C     C_R   0.268295 0.531150 0.949943 -0.126893
C32   C     C_R   0.905202 0.065194 0.571035 -0.037489
C33   C     C_R   0.094898 0.934814 0.429033 -0.037108
C34   C     C_R   0.904932 0.935796 0.571785 0.052960
Cu1   Cu    Cu3+1 0.140660 0.500020 0.500000 0.988158
Cu2   Cu    Cu3+1 0.859340 0.499980 0.500000 0.988104
H1    H     H_    0.794532 0.369600 0.079982 0.120259
H2    H     H_    0.439098 0.526023 0.833071 0.110824
H3    H     H_    0.582987 0.373311 0.608201 0.132208
H4    H     H_    0.416997 0.626734 0.391835 0.132616
H5    H     H_    0.322328 0.373637 0.608247 0.112643
H6    H     H_    0.677662 0.626387 0.391775 0.114271
H7    H     H_    0.191497 0.554398 0.911972 0.116263
H8    H     H_    0.346840 0.466562 0.225875 0.133459
H9    H     H_    0.658661 0.544775 0.776410 0.137374
H10   H     H_    0.913164 0.545304 0.213201 0.126855
H11   H     H_    0.081840 0.422625 0.783302 0.123416
H12   H     H_    0.992531 0.378870 0.943558 0.117244
H13   H     H_    0.996818 0.561797 0.050221 0.117727
H14   H     H_    0.545970 0.395255 0.158676 0.122250
I1    I     I_    0.766357 0.838626 0.683267 -0.331232
I2    I     I_    0.234081 0.161311 0.316866 -0.336859
N1    N     N_R   0.352080 0.500030 0.499980 -0.226802
N2    N     N_R   0.647920 0.499970 0.500020 -0.227008
N3    N     N_1   0.736416 0.187138 0.704453 -0.284540
N4    N     N_1   0.263856 0.812816 0.295723 -0.285310
O1    O     O_R   0.118740 0.319660 0.500000 -0.481681
O2    O     O_R   0.881260 0.680340 0.500000 -0.481187
O3    O     O_R   0.881170 0.319630 0.500010 -0.495499
O4    O     O_R   0.118830 0.680370 0.499990 -0.494852
O5    O     O_R   0.055570 0.500030 0.629830 -0.509956
O6    O     O_R   0.944430 0.499970 0.370170 -0.510769
O7    O     O_R   0.818000 0.500000 0.629840 -0.498074
O8    O     O_R   0.182000 0.500000 0.370160 -0.498645

loop_
_geom_bond_atom_site_label_1
_geom_bond_atom_site_label_2
_ccdc_geom_bond_type
C29   H2    S    
C2    C4    A    
C21   C26   A    
C18   H9    S    
C11   C18   A    
C15   C17   A    
Cu1   O8    S    
C1    O1    A    
Cu1   N1    S    
Cu2   O7    S    
C11   C16   A    
C31   H7    S    
C27   N3    T    
C18   C20   A    
Cu1   Cu2   S    
C13   C17   A    
Cu1   O1    S    
Cu2   O3    S    
C12   O2    A    
C1    C4    S    
C15   H13   S    
C28   N4    T    
C24   C31   A    
Cu1   O5    S    
C10   O6    A    
C17   H10   S    
C9    C11   S    
C14   C22   A    
C34   I1    S    
C4    C32   A    
C2    I2    S    
C14   H12   S    
C9    O5    A    
C2    C33   A    
C15   C24   A    
C19   C21   A    
C1    O3    A    
C8    H6    S    
C28   C33   S    
Cu2   O2    S    
C7    H5    S    
C25   C29   A    
C13   C19   A    
C14   C16   A    
C21   C24   A    
Cu2   N2    S    
C20   C25   A    
C7    N1    A    
C6    N1    A    
C12   O4    A    
C23   C30   A    
C5    N2    A    
C6    H4    S    
C27   C32   S    
C19   H8    S    
C16   H11   S    
C29   C31   A    
C23   C26   A    
C8    N2    A    
C5    C7    A    
C5    H3    S    
C3    C33   A    
C23   H14   S    
C6    C8    A    
C3    C12   S    
C22   C30   A    
C3    C34   A    
C25   C26   A    
C9    O7    A    
C10   O8    A    
C30   H1    S    
C20   C22   A    
Cu1   O4    S    
Cu2   O6    S    
C10   C13   S    
C32   C34   A    
