data_mof_unit_15974.cif
_audit_creation_date              2012-12-11T14:15:06-0500
_audit_creation_method            fapswitch 2.2
_symmetry_space_group_name_H-M    P1
_symmetry_Int_Tables_number       1
_space_group_crystal_system       triclinic
_cell_length_a                    24.511781
_cell_length_b                    17.271044
_cell_length_c                    15.555899
_cell_angle_alpha                 89.71222
_cell_angle_beta                  129.046456
_cell_angle_gamma                 90.380262
_cell_volume                      5114.41495741

loop_
_atom_site_label
_atom_site_type_symbol
_atom_type_description
_atom_site_fract_x
_atom_site_fract_y
_atom_site_fract_z
_atom_type_partial_charge
C1    C     C_R   0.349820 0.360562 0.243880 -0.231767
C2    C     C_R   0.649981 0.360808 0.755884 -0.227646
C3    C     C_R   0.849820 0.860562 0.243880 -0.231767
C4    C     C_R   0.149981 0.860808 0.755884 -0.227646
C5    C     C_R   0.409093 0.639410 0.592751 -0.159118
C6    C     C_R   0.584442 0.645022 0.407540 -0.165954
C7    C     C_R   0.909092 0.139410 0.592751 -0.159118
C8    C     C_R   0.084442 0.145022 0.407540 -0.165954
C9    C     C_R   0.354625 0.679511 0.500027 0.104772
C10   C     C_R   0.634008 0.689270 0.499573 0.107540
C11   C     C_R   0.854625 0.179511 0.500027 0.104772
C12   C     C_R   0.134008 0.189270 0.499573 0.107540
C13   C     C_R   0.352225 0.624419 0.134706 -0.027210
C14   C     C_R   0.647643 0.623930 0.865472 -0.029231
C15   C     C_R   0.852225 0.124419 0.134706 -0.027210
C16   C     C_R   0.147643 0.123930 0.865472 -0.029231
C17   C     C_2   0.644599 0.798946 0.411469 -0.133653
C18   C     C_2   0.349053 0.793325 0.586016 -0.151346
C19   C     C_2   0.144599 0.298946 0.411469 -0.133652
C20   C     C_2   0.849053 0.293325 0.586016 -0.151346
C21   C     C_2   0.659643 0.766333 0.502472 -0.179657
C22   C     C_2   0.319685 0.747430 0.497526 -0.169750
C23   C     C_2   0.159643 0.266333 0.502472 -0.179657
C24   C     C_2   0.819685 0.247430 0.497526 -0.169750
C25   C     C_2   0.194430 0.351365 0.417724 -0.073056
C26   C     C_2   0.805919 0.346565 0.593396 -0.066305
C27   C     C_2   0.694430 0.851365 0.417724 -0.073057
C28   C     C_2   0.305919 0.846565 0.593396 -0.066305
C29   C     C_2   0.263510 0.346894 0.502710 -0.176143
C30   C     C_2   0.743989 0.371854 0.502451 -0.156553
C31   C     C_2   0.763510 0.846894 0.502710 -0.176142
C32   C     C_2   0.243989 0.871854 0.502451 -0.156552
C33   C     C_2   0.642685 0.243100 0.847716 -0.109155
C34   C     C_2   0.357604 0.242414 0.154411 -0.110540
C35   C     C_2   0.142685 0.743100 0.847716 -0.109154
C36   C     C_2   0.857604 0.742414 0.154411 -0.110541
C37   C     C_2   0.696545 0.205542 0.865956 -0.140548
C38   C     C_2   0.303156 0.204747 0.135177 -0.139468
C39   C     C_2   0.196545 0.705542 0.865956 -0.140549
C40   C     C_2   0.803156 0.704747 0.135177 -0.139468
C41   C     C_2   0.306695 0.650696 0.019573 -0.112124
C42   C     C_2   0.692971 0.649927 0.980654 -0.111261
C43   C     C_2   0.806695 0.150696 0.019573 -0.112124
C44   C     C_2   0.192971 0.149927 0.980654 -0.111261
C45   C     C_R   0.617870 0.408367 0.410184 0.117909
C46   C     C_R   0.384185 0.401049 0.591083 0.111746
C47   C     C_R   0.117870 0.908367 0.410184 0.117908
C48   C     C_R   0.884185 0.901049 0.591083 0.111746
C49   C     C_2   0.237025 0.652722 0.959804 -0.132922
C50   C     C_2   0.762711 0.652078 0.041199 -0.133408
C51   C     C_2   0.737025 0.152722 0.959804 -0.132922
C52   C     C_2   0.262711 0.152078 0.041199 -0.133408
C53   C     C_R   0.688925 0.402052 0.592631 0.658621
C54   C     C_R   0.312570 0.395496 0.408524 0.670219
C55   C     C_R   0.188925 0.902052 0.592631 0.658621
C56   C     C_R   0.812570 0.895496 0.408524 0.670218
C57   C     C_R   0.559914 0.357131 0.756406 0.707406
C58   C     C_R   0.440663 0.356784 0.245478 0.704703
C59   C     C_R   0.059914 0.857131 0.756406 0.707406
C60   C     C_R   0.940663 0.856784 0.245478 0.704703
C61   C     C_R   0.382249 0.315930 0.214215 -0.051010
C62   C     C_R   0.617945 0.316350 0.787073 -0.051571
C63   C     C_R   0.882248 0.815930 0.214214 -0.051010
C64   C     C_R   0.117945 0.816350 0.787073 -0.051571
C65   C     C_R   0.686142 0.391349 0.502453 -0.105485
C66   C     C_R   0.317409 0.378836 0.499701 -0.106021
C67   C     C_R   0.186142 0.891349 0.502453 -0.105485
C68   C     C_R   0.817409 0.878836 0.499701 -0.106021
C69   C     C_R   0.333221 0.638541 0.407496 -0.100773
C70   C     C_R   0.659519 0.644836 0.591819 -0.089652
C71   C     C_R   0.833221 0.138541 0.407496 -0.100773
C72   C     C_R   0.159519 0.144836 0.591819 -0.089652
C73   C     C_R   0.422446 0.606523 0.196686 0.665536
C74   C     C_R   0.577138 0.606695 0.802689 0.671421
C75   C     C_R   0.922446 0.106523 0.196686 0.665536
C76   C     C_R   0.077138 0.106695 0.802689 0.671421
C77   C     C_R   0.667770 0.604410 0.802720 -0.240867
C78   C     C_R   0.332395 0.605201 0.198155 -0.233232
C79   C     C_R   0.167770 0.104410 0.802720 -0.240867
C80   C     C_R   0.832395 0.105201 0.198155 -0.233232
H1    H     H_    0.301794 0.347344 0.229651 0.205916
H2    H     H_    0.697474 0.347849 0.768422 0.194979
H3    H     H_    0.801794 0.847344 0.229651 0.205916
H4    H     H_    0.197474 0.847849 0.768422 0.194979
H5    H     H_    0.699973 0.790730 0.583735 0.131290
H6    H     H_    0.265831 0.754322 0.423020 0.135562
H7    H     H_    0.199973 0.290730 0.583735 0.131290
H8    H     H_    0.765831 0.254322 0.423020 0.135563
H9    H     H_    0.175040 0.384501 0.344262 0.203235
H10   H     H_    0.821445 0.354024 0.675106 0.201742
H11   H     H_    0.675040 0.884501 0.344262 0.203235
H12   H     H_    0.321445 0.854024 0.675106 0.201742
H13   H     H_    0.283453 0.312806 0.575752 0.145657
H14   H     H_    0.731267 0.366440 0.422334 0.132550
H15   H     H_    0.783453 0.812806 0.575752 0.145657
H16   H     H_    0.231267 0.866440 0.422334 0.132550
H17   H     H_    0.211738 0.627306 0.990700 0.141640
H18   H     H_    0.788183 0.626992 0.010847 0.142361
H19   H     H_    0.711738 0.127306 0.990700 0.141640
H20   H     H_    0.288183 0.126992 0.010847 0.142361
H21   H     H_    0.718391 0.223800 0.826287 0.142168
H22   H     H_    0.280857 0.222962 0.173885 0.146235
H23   H     H_    0.218391 0.723800 0.826287 0.142168
H24   H     H_    0.780857 0.722962 0.173885 0.146235
H25   H     H_    0.331369 0.676880 0.987896 0.160517
H26   H     H_    0.668131 0.675873 0.011767 0.161648
H27   H     H_    0.831369 0.176880 0.987896 0.160517
H28   H     H_    0.168131 0.175873 0.011767 0.161648
H29   H     H_    0.621696 0.224687 0.888747 0.166418
H30   H     H_    0.379085 0.224024 0.114393 0.166031
H31   H     H_    0.121696 0.724687 0.888747 0.166418
H32   H     H_    0.879085 0.724024 0.114393 0.166031
H33   H     H_    0.290848 0.652658 0.321996 0.107227
H34   H     H_    0.698670 0.662042 0.677069 0.105653
H35   H     H_    0.790848 0.152657 0.321996 0.107227
H36   H     H_    0.198670 0.162042 0.677069 0.105653
H37   H     H_    0.720765 0.600521 0.830963 0.150060
H38   H     H_    0.279582 0.601910 0.170864 0.144578
H39   H     H_    0.220765 0.100521 0.830963 0.150060
H40   H     H_    0.779582 0.101910 0.170864 0.144578
H41   H     H_    0.435907 0.653617 0.678288 0.173401
H42   H     H_    0.554071 0.662088 0.322164 0.166785
H43   H     H_    0.935907 0.153617 0.678288 0.173400
H44   H     H_    0.054071 0.162088 0.322164 0.166785
H45   H     H_    0.601219 0.777908 0.329715 0.142881
H46   H     H_    0.402404 0.783193 0.660793 0.141844
H47   H     H_    0.101219 0.277908 0.329715 0.142881
H48   H     H_    0.902404 0.283193 0.660793 0.141844
N1    N     N_R   0.389060 0.424180 0.294540 -0.071062
N2    N     N_R   0.610940 0.424180 0.705460 -0.069877
N3    N     N_R   0.889060 0.924180 0.294540 -0.071062
N4    N     N_R   0.110940 0.924180 0.705460 -0.069877
N5    N     N_R   0.579670 0.423790 0.443360 -0.100948
N6    N     N_R   0.420330 0.423790 0.556640 -0.105050
N7    N     N_R   0.079670 0.923790 0.443360 -0.100948
N8    N     N_R   0.920330 0.923790 0.556640 -0.105050
N9    N     N_R   0.625470 0.423490 0.556600 -0.116675
N10   N     N_R   0.374530 0.423490 0.443400 -0.119054
N11   N     N_R   0.125470 0.923490 0.556600 -0.116675
N12   N     N_R   0.874530 0.923490 0.443400 -0.119054
N13   N     N_R   0.555250 0.423100 0.705420 -0.120903
N14   N     N_R   0.444750 0.423100 0.294580 -0.120686
N15   N     N_R   0.055250 0.923100 0.705420 -0.120903
N16   N     N_R   0.944750 0.923100 0.294580 -0.120686
N17   N     N_R   0.375210 0.577180 0.443400 -0.042949
N18   N     N_R   0.624790 0.577180 0.556600 -0.039269
N19   N     N_R   0.875210 0.077180 0.443400 -0.042949
N20   N     N_R   0.124790 0.077180 0.556600 -0.039269
N21   N     N_R   0.445430 0.577570 0.294580 -0.112459
N22   N     N_R   0.554570 0.577570 0.705420 -0.112506
N23   N     N_R   0.945430 0.077570 0.294580 -0.112460
N24   N     N_R   0.054570 0.077570 0.705420 -0.112506
N25   N     N_R   0.611620 0.576500 0.705460 -0.070091
N26   N     N_R   0.388380 0.576500 0.294540 -0.069702
N27   N     N_R   0.111620 0.076500 0.705460 -0.070091
N28   N     N_R   0.888380 0.076500 0.294540 -0.069702
N29   N     N_R   0.421010 0.576890 0.556640 -0.054251
N30   N     N_R   0.578990 0.576890 0.443360 -0.055726
N31   N     N_R   0.921010 0.076890 0.556640 -0.054251
N32   N     N_R   0.078990 0.076890 0.443360 -0.055726
Ni1   Ni    Ni4+2 0.383200 0.500680 0.370150 0.241247
Ni2   Ni    Ni4+2 0.616800 0.500680 0.629850 0.250584
Ni3   Ni    Ni4+2 0.883200 0.000680 0.370150 0.241247
Ni4   Ni    Ni4+2 0.116800 0.000680 0.629850 0.250584
Ni5   Ni    Ni4+2 0.512440 0.500680 0.370150 0.238100
Ni6   Ni    Ni4+2 0.487560 0.500680 0.629850 0.237261
Ni7   Ni    Ni4+2 0.012440 0.000680 0.370150 0.238100
Ni8   Ni    Ni4+2 0.987560 0.000680 0.629850 0.237261
C81   C     C_3   0.595366 0.432049 0.298029 -0.268323
C82   C     C_3   0.638487 0.499850 0.303321 -0.386172
C83   C     C_3   0.608266 0.526998 0.187448 -0.765121
H49   H     H_    0.609035 0.479025 0.140921 0.255494
H50   H     H_    0.553442 0.547287 0.141247 0.303702
H51   H     H_    0.640400 0.575732 0.193735 0.245600
H52   H     H_    0.638777 0.549031 0.348759 0.231662
H53   H     H_    0.693812 0.483191 0.347323 0.210885
H54   H     H_    0.599306 0.381191 0.258769 0.209223
H55   H     H_    0.539725 0.450930 0.244869 0.244874
C84   C     C_3   0.403694 0.425596 0.700608 -0.255662
C85   C     C_3   0.352373 0.485216 0.686860 -0.389809
C86   C     C_3   0.381020 0.520829 0.797860 -0.788304
H56   H     H_    0.390765 0.474981 0.856384 0.261932
H57   H     H_    0.430763 0.552572 0.834130 0.299363
H58   H     H_    0.342202 0.562280 0.785591 0.244929
H59   H     H_    0.342697 0.532123 0.629797 0.225997
H60   H     H_    0.301272 0.457097 0.651164 0.217566
H61   H     H_    0.404961 0.373815 0.744508 0.215021
H62   H     H_    0.456906 0.452296 0.751962 0.242877
C87   C     C_3   0.095366 0.932049 0.298029 -0.268323
C88   C     C_3   0.138487 0.999850 0.303321 -0.386171
C89   C     C_3   0.108266 0.026998 0.187448 -0.765122
H63   H     H_    0.109035 0.979025 0.140920 0.255495
H64   H     H_    0.053442 0.047287 0.141248 0.303703
H65   H     H_    0.140400 0.075732 0.193736 0.245600
H66   H     H_    0.138778 0.049031 0.348759 0.231661
H67   H     H_    0.193812 0.983191 0.347322 0.210886
H68   H     H_    0.099306 0.881191 0.258769 0.209223
H69   H     H_    0.039725 0.950930 0.244869 0.244873
C90   C     C_3   0.903694 0.925596 0.700608 -0.255661
C91   C     C_3   0.852373 0.985216 0.686860 -0.389810
C92   C     C_3   0.881020 0.020829 0.797860 -0.788304
H70   H     H_    0.890765 0.974982 0.856384 0.261932
H71   H     H_    0.930763 0.052573 0.834130 0.299363
H72   H     H_    0.842202 0.062280 0.785591 0.244929
H73   H     H_    0.842696 0.032123 0.629796 0.225997
H74   H     H_    0.801272 0.957097 0.651165 0.217566
H75   H     H_    0.904961 0.873815 0.744508 0.215021
H76   H     H_    0.956906 0.952296 0.751962 0.242876
F1    F     F_    0.748070 0.417423 0.696756 -0.734320
F2    F     F_    0.252082 0.403676 0.303541 -0.738900
F3    F     F_    0.248070 0.917423 0.696756 -0.734320
F4    F     F_    0.752082 0.903676 0.303541 -0.738900
F5    F     F_    0.514690 0.332378 0.772605 -0.747094
F6    F     F_    0.487738 0.331024 0.234166 -0.745140
F7    F     F_    0.014690 0.832378 0.772605 -0.747094
F8    F     F_    0.987738 0.831024 0.234166 -0.745140
F9    F     F_    0.456456 0.597616 0.154620 -0.745277
F10   F     F_    0.542500 0.597932 0.843870 -0.745817
F11   F     F_    0.956456 0.097616 0.154620 -0.745277
F12   F     F_    0.042500 0.097932 0.843870 -0.745818

loop_
_geom_bond_atom_site_label_1
_geom_bond_atom_site_label_2
_ccdc_geom_bond_type
C87   H69   S    
C15   C75   A    
C40   H24   S    
C80   H40   S    
N5    N9    A    
C88   C89   S    
C69   N17   A    
C92   H70   S    
N26   Ni1   S    
C19   C23   D    
N8    N12   A    
N19   N31   A    
C89   H64   S    
C57   C62   A    
C4    N4    A    
C82   H53   S    
C86   H56   S    
C70   H34   S    
N12   Ni3   S    
N7    N11   A    
C83   H50   S    
C12   C23   S    
C69   H33   S    
C59   C64   A    
C91   H73   S    
C41   H25   S    
C60   C63   A    
C3    N3    A    
C14   C74   A    
N11   Ni4   S    
C78   H38   S    
C9    C69   A    
N2    Ni2   S    
C46   C66   A    
C77   H37   S    
C37   C51   S    
N9    Ni2   S    
C56   N12   A    
C11   C71   A    
C9    C22   S    
N32   Ni7   S    
C7    N31   A    
C82   C83   S    
C76   N24   A    
C1    H1    S    
N22   Ni6   S    
C16   C76   A    
C5    H41   S    
C11   C24   S    
C55   N11   A    
N31   Ni8   S    
N20   N32   A    
C14   C77   A    
C81   H54   S    
N2    N13   A    
C77   N25   A    
C20   C24   D    
N28   Ni3   S    
C75   N23   A    
C91   C92   S    
N22   N25   A    
C79   H39   S    
C36   H32   S    
C47   C67   A    
N6    Ni6   S    
C27   H11   S    
C35   C64   S    
C70   N18   A    
C75   F11   S    
C8    C12   A    
C36   C63   S    
C53   C65   A    
C16   C44   S    
C88   H67   S    
C14   C42   S    
C47   N7    A    
C44   C52   D    
C58   C61   A    
C86   H57   S    
C12   C72   A    
C1    N1    A    
C59   N15   A    
C90   C91   S    
C23   H7    S    
N18   N30   A    
C84   H61   S    
C25   C29   D    
C92   H71   S    
C24   H8    S    
C3    H3    S    
N7    Ni7   S    
C28   C32   D    
C41   C49   D    
C6    N30   A    
C80   N28   A    
C82   H52   S    
C44   H28   S    
C10   C21   S    
C51   H19   S    
C31   C68   S    
C83   H51   S    
C21   H5    S    
C50   H18   S    
C48   C90   S    
C27   C31   D    
C89   H63   S    
C17   C27   S    
C81   C82   S    
C36   C40   D    
C18   C28   S    
C85   H59   S    
C7    H43   S    
C29   H13   S    
C33   C62   S    
C84   H62   S    
N16   Ni7   S    
C72   N20   A    
C79   N27   A    
C52   H20   S    
C34   C61   S    
C33   C37   D    
C29   C66   S    
C78   N26   A    
N20   Ni4   S    
C47   C87   S    
N17   Ni1   S    
C35   C39   D    
N21   N26   A    
N4    Ni4   S    
C5    C9    A    
N5    Ni5   S    
C46   N6    A    
N18   Ni2   S    
C58   N14   A    
C7    C11   A    
C15   C80   A    
C4    H4    S    
N24   N27   A    
N3    Ni3   S    
C71   H35   S    
C74   F10   S    
C90   H75   S    
N13   Ni6   S    
N21   Ni5   S    
C28   H12   S    
C43   H27   S    
N23   N28   A    
C48   C68   A    
C39   H23   S    
C73   F9    S    
C83   H49   S    
C71   N19   A    
C85   H60   S    
C88   H66   S    
C42   C50   D    
C32   C67   S    
C54   C66   A    
C10   C70   A    
C31   H15   S    
C17   H45   S    
C13   C73   A    
C26   C30   D    
C5    N29   A    
C45   C65   A    
C34   H30   S    
C92   H72   S    
C53   N9    A    
C2    H2    S    
C33   H29   S    
N24   Ni8   S    
C8    N32   A    
C58   F6    S    
C81   H55   S    
C35   H31   S    
C85   C86   S    
C86   H58   S    
C87   H68   S    
C53   F1    S    
C72   H36   S    
C13   C78   A    
C91   H74   S    
C73   N21   A    
C34   C38   D    
C45   N5    A    
C46   C84   S    
C48   N8    A    
C8    H44   S    
C57   F5    S    
C1    C61   A    
N29   Ni6   S    
N6    N10   A    
C55   C67   A    
C39   C49   S    
C20   H48   S    
C13   C41   S    
N1    N14   A    
C3    C63   A    
N27   Ni4   S    
C26   H10   S    
C56   F4    S    
N8    Ni8   S    
N17   N29   A    
C4    C64   A    
C25   H9    S    
C57   N13   A    
N25   Ni2   S    
C16   C79   A    
C18   C22   D    
C60   F8    S    
C89   H65   S    
C15   C43   S    
C32   H16   S    
C56   C68   A    
C18   H46   S    
N14   Ni5   S    
C37   H21   S    
C43   C51   D    
C54   N10   A    
C20   C26   S    
N4    N15   A    
N23   Ni7   S    
N1    Ni1   S    
C19   H47   S    
C90   H76   S    
C2    N2    A    
C74   N22   A    
N10   Ni1   S    
C59   F7    S    
C22   H6    S    
C38   H22   S    
C87   C88   S    
C19   C25   S    
C17   C21   D    
N15   Ni8   S    
C30   C65   S    
C6    C10   A    
N3    N16   A    
C55   F3    S    
C84   C85   S    
C42   H26   S    
C40   C50   S    
C54   F2    S    
C38   C52   S    
C30   H14   S    
C6    H42   S    
C76   F12   S    
N19   Ni3   S    
C60   N16   A    
C45   C81   S    
C2    C62   A    
N30   Ni5   S    
C49   H17   S    
