data_mof_unit_5415.cif
_audit_creation_date              2012-12-10T20:44:02-0500
_audit_creation_method            fapswitch 2.2
_symmetry_space_group_name_H-M    P1
_symmetry_Int_Tables_number       1
_space_group_crystal_system       triclinic
_cell_length_a                    17.598424
_cell_length_b                    10.748441
_cell_length_c                    9.893831
_cell_angle_alpha                 88.839483
_cell_angle_beta                  89.618453
_cell_angle_gamma                 90.173139
_cell_volume                      1871.03906252

loop_
_atom_site_label
_atom_site_type_symbol
_atom_type_description
_atom_site_fract_x
_atom_site_fract_y
_atom_site_fract_z
_atom_type_partial_charge
C1    C     C_R   0.500641 0.260245 0.500940 0.925259
C2    C     C_R   0.885614 0.474624 0.497488 0.137810
C3    C     C_1   0.965394 0.467892 0.497042 -0.044393
C4    C     C_1   0.032769 0.464803 0.497473 0.087334
C5    C     C_R   0.149573 0.491247 0.620860 0.166214
C6    C     C_R   0.228003 0.510011 0.620825 0.413678
C7    C     C_R   0.270212 0.492970 0.500854 -0.305826
C8    C     C_R   0.232426 0.467011 0.380144 -0.298495
C9    C     C_R   0.154078 0.451576 0.378349 0.462549
C10   C     C_R   0.112942 0.465077 0.499472 -0.146966
C11   C     C_R   0.539616 0.061336 0.603455 0.151099
C12   C     C_R   0.353332 0.499858 0.500402 0.938628
C13   C     C_R   0.505528 0.128506 0.498937 -0.210882
C14   C     C_R   0.481292 0.068138 0.383245 -0.316685
C15   C     C_R   0.481353 0.939966 0.379383 0.440223
C16   C     C_R   0.506938 0.872095 0.493076 -0.210207
C17   C     C_R   0.541189 0.933571 0.599468 0.019349
C18   C     C_3   0.525137 0.919207 0.746793 -0.499344
C19   C     C_3   0.521101 0.059374 0.750902 0.096543
C20   C     C_R   0.439412 0.453136 0.073037 0.194886
C21   C     C_R   0.558052 0.551939 0.069958 -0.143332
C22   C     C_R   0.558163 0.551624 0.926279 -0.115215
C23   C     C_R   0.500407 0.739937 0.498472 0.914859
C24   C     C_R   0.438425 0.456571 0.930265 0.190232
C25   C     C_3   0.407874 0.328242 0.923765 -0.572988
C26   C     C_3   0.414124 0.320350 0.076580 0.275953
C27   C     C_R   0.646376 0.499458 0.499553 0.864427
C28   C     C_R   0.847003 0.481075 0.620535 -0.131746
C29   C     C_R   0.768508 0.490606 0.621366 -0.180934
C30   C     C_R   0.728841 0.493749 0.498700 -0.035518
C31   C     C_R   0.768508 0.487843 0.375376 -0.187016
C32   C     C_R   0.847023 0.478225 0.374984 -0.163176
H1    H     H_    0.877541 0.478931 0.715348 0.163017
H2    H     H_    0.469160 0.874057 0.766590 0.188608
H3    H     H_    0.574056 0.877860 0.801988 0.230244
H4    H     H_    0.462558 0.091715 0.772000 0.108805
H5    H     H_    0.605269 0.593207 0.122417 0.148743
H6    H     H_    0.605570 0.592359 0.870945 0.148401
H7    H     H_    0.348681 0.326864 0.885180 0.238447
H8    H     H_    0.447876 0.266225 0.872309 0.203801
H9    H     H_    0.739070 0.494940 0.717645 0.165483
H10   H     H_    0.459953 0.257879 0.114790 0.102779
H11   H     H_    0.739046 0.489979 0.279587 0.160968
H12   H     H_    0.877575 0.473813 0.279706 0.146114
H13   H     H_    0.263561 0.458407 0.286181 0.258740
H14   H     H_    0.456981 0.119405 0.299296 0.182515
N1    N     N_R   0.499490 0.499140 0.142800 -0.137355
N2    N     N_R   0.499490 0.499180 0.857150 -0.102282
O1    O     O_R   0.500010 0.316790 0.614690 -0.603270
O2    O     O_R   0.500000 0.316760 0.385350 -0.618173
O3    O     O_R   0.389120 0.500020 0.614710 -0.574917
O4    O     O_R   0.389110 0.499990 0.385370 -0.598970
O5    O     O_R   0.500000 0.683240 0.614650 -0.634734
O6    O     O_R   0.499990 0.683210 0.385310 -0.589379
O7    O     O_R   0.610890 0.500010 0.614630 -0.614300
O8    O     O_R   0.610880 0.499980 0.385290 -0.632716
Zn1   Zn    Zn3+2 0.500010 0.500020 0.653130 0.975012
Zn2   Zn    Zn3+2 0.499990 0.499980 0.346870 0.976660
O9    O     O_3   0.443580 0.882850 0.276034 -0.604086
C33   C     C_3   0.492086 0.880080 0.162416 0.143653
H15   H     H_    0.545302 0.828212 0.185909 0.152061
H16   H     H_    0.506944 0.975699 0.125137 0.148128
C34   C     C_3   0.450877 0.813569 0.051375 -0.828754
H17   H     H_    0.408813 0.877637 0.004733 0.232868
H18   H     H_    0.492211 0.783354 0.974362 0.208239
H19   H     H_    0.421092 0.729817 0.092885 0.279687
Br1   Br    Br    0.601163 0.133427 0.857104 -0.554162
O10   O     O_3   0.343455 0.305434 0.143000 -0.589485
C35   C     C_3   0.319487 0.179672 0.138221 0.114236
H20   H     H_    0.366091 0.111967 0.118862 0.132600
H21   H     H_    0.277329 0.170274 0.056013 0.154015
C36   C     C_3   0.282033 0.142816 0.272115 -0.811894
H22   H     H_    0.233324 0.204671 0.292184 0.252223
H23   H     H_    0.261522 0.045145 0.268666 0.224463
H24   H     H_    0.323183 0.151340 0.355932 0.250596
Br2   Br    Br    0.093123 0.507428 0.787334 -0.512595
O11   O     O_3   0.262804 0.547931 0.737771 -0.561934
C37   C     C_3   0.264212 0.679407 0.735850 0.168186
H25   H     H_    0.205589 0.717512 0.743116 0.166953
H26   H     H_    0.292250 0.717661 0.642396 0.110022
C38   C     C_3   0.309012 0.723724 0.855867 -0.810448
H27   H     H_    0.368868 0.692698 0.846229 0.255776
H28   H     H_    0.307467 0.826921 0.857985 0.189593
H29   H     H_    0.284178 0.685222 0.951452 0.279558
O12   O     O_3   0.119013 0.435825 0.254596 -0.573783
C39   C     C_3   0.082173 0.318653 0.250147 0.098821
H30   H     H_    0.020726 0.330120 0.272506 0.153944
H31   H     H_    0.105583 0.247968 0.322629 0.112047
C40   C     C_3   0.089373 0.268229 0.108155 -0.739883
H32   H     H_    0.150144 0.261396 0.078840 0.263549
H33   H     H_    0.062974 0.174417 0.104337 0.197497
H34   H     H_    0.060031 0.331098 0.035180 0.289747

loop_
_geom_bond_atom_site_label_1
_geom_bond_atom_site_label_2
_ccdc_geom_bond_type
C8    C9    A    
C22   N2    A    
C34   H18   S    
C11   C13   A    
C12   O3    A    
C38   H27   S    
N2    Zn1   S    
C14   H14   S    
O11   C37   S    
C11   C19   S    
C31   H11   S    
C33   C34   S    
C33   H16   S    
C28   C29   A    
C19   H4    S    
C25   H8    S    
O6    Zn2   S    
C30   C31   A    
C39   H31   S    
C15   C16   A    
C22   H6    S    
O1    Zn1   S    
C2    C32   A    
C18   C19   S    
C35   H21   S    
C8    H13   S    
C12   O4    A    
C20   C24   A    
C16   C17   A    
C19   Br1   S    
O3    Zn1   S    
C40   H33   S    
C1    O2    A    
C9    O12   S    
C34   H19   S    
O9    C33   S    
C13   C14   A    
C27   C30   S    
C36   H24   S    
C9    C10   A    
C38   H28   S    
C23   O5    A    
C7    C12   S    
O2    Zn2   S    
C7    C8    A    
C24   C25   S    
C36   H23   S    
O5    Zn1   S    
C39   H30   S    
O10   C35   S    
C6    O11   S    
C25   C26   S    
O12   C39   S    
C33   H15   S    
C24   N2    A    
C35   C36   S    
C29   C30   A    
C31   C32   A    
C17   C18   S    
C32   H12   S    
C40   H34   S    
C18   H2    S    
O4    Zn2   S    
C28   H1    S    
C16   C23   S    
O7    Zn1   S    
C1    C13   S    
C4    C10   S    
C3    C4    T    
C38   H29   S    
C26   H10   S    
C23   O6    A    
C18   H3    S    
C11   C17   A    
C29   H9    S    
C27   O8    A    
C15   O9    S    
C36   H22   S    
C39   C40   S    
C6    C7    A    
C27   O7    A    
C26   O10   S    
C5    Br2   S    
C2    C3    S    
C5    C10   A    
C25   H7    S    
N1    Zn2   S    
C37   H25   S    
C37   C38   S    
C5    C6    A    
C20   C26   S    
O8    Zn2   S    
C37   H26   S    
C35   H20   S    
C20   N1    A    
C34   H17   S    
C21   H5    S    
C14   C15   A    
C2    C28   A    
C40   H32   S    
C21   C22   A    
C1    O1    A    
C21   N1    A    
