data_mof_unit_36508.cif
_audit_creation_date              2012-12-10T18:59:59-0500
_audit_creation_method            fapswitch 2.2
_symmetry_space_group_name_H-M    P1
_symmetry_Int_Tables_number       1
_space_group_crystal_system       triclinic
_cell_length_a                    10.795644
_cell_length_b                    10.698673
_cell_length_c                    9.852591
_cell_angle_alpha                 90.092998
_cell_angle_beta                  91.058568
_cell_angle_gamma                 90.145813
_cell_volume                      1137.76556308

loop_
_atom_site_label
_atom_site_type_symbol
_atom_type_description
_atom_site_fract_x
_atom_site_fract_y
_atom_site_fract_z
_atom_type_partial_charge
C1    C     C_R   0.500092 0.259959 0.499879 0.868190
C2    C     C_R   0.535600 0.064351 0.618259 -0.191436
C3    C     C_R   0.499787 0.872487 0.500161 -0.008378
C4    C     C_R   0.500213 0.127512 0.499839 -0.008378
C5    C     C_R   0.529652 0.605681 0.072592 -0.016562
C6    C     C_R   0.470348 0.394318 0.927408 -0.016560
C7    C     C_R   0.529766 0.605608 0.928933 -0.084978
C8    C     C_R   0.470234 0.394392 0.071067 -0.084979
C9    C     C_R   0.259925 0.501753 0.498400 0.882032
C10   C     C_R   0.740075 0.498246 0.501600 0.882030
C11   C     C_R   0.201768 0.676264 0.072011 -0.225083
C12   C     C_R   0.499908 0.740041 0.500120 0.868191
C13   C     C_R   0.798226 0.323734 0.927986 -0.225084
C14   C     C_R   0.154571 0.657686 0.201641 -0.062664
C15   C     C_R   0.845424 0.342311 0.798357 -0.062667
C16   C     C_R   0.111700 0.539064 0.239535 0.085709
C17   C     C_R   0.888300 0.460932 0.760465 0.085708
C18   C     C_R   0.116149 0.439614 0.146882 -0.229320
C19   C     C_R   0.883855 0.560381 0.853119 -0.229321
C20   C     C_R   0.163836 0.458329 0.017738 0.643362
C21   C     C_R   0.836166 0.541667 0.982262 0.643362
C22   C     C_R   0.206067 0.576819 0.980008 -0.222504
C23   C     C_R   0.872630 0.497100 0.504211 -0.111213
C24   C     C_R   0.793930 0.423179 0.019991 -0.222502
C25   C     C_R   0.931199 0.515522 0.380719 -0.221192
C26   C     C_R   0.068801 0.484474 0.619281 -0.221193
C27   C     C_R   0.127370 0.502897 0.495789 -0.111212
C28   C     C_R   0.942059 0.480869 0.625435 0.015366
C29   C     C_R   0.057941 0.519127 0.374565 0.015365
C30   C     C_R   0.464668 0.063715 0.381576 -0.189096
C31   C     C_R   0.535332 0.936285 0.618425 -0.189096
C32   C     C_R   0.464401 0.935649 0.381741 -0.191437
F1    F     F_    0.169964 0.361024 0.929892 -0.704537
F2    F     F_    0.830041 0.638972 0.070109 -0.704537
H1    H     H_    0.243160 0.591643 0.880068 0.165606
H2    H     H_    0.917179 0.652174 0.825005 0.153777
H3    H     H_    0.878340 0.528936 0.287735 0.220787
H4    H     H_    0.121660 0.471060 0.712264 0.220786
H5    H     H_    0.436080 0.112441 0.289940 0.148257
H6    H     H_    0.563920 0.887559 0.710061 0.148256
H7    H     H_    0.435645 0.886401 0.290183 0.147159
H8    H     H_    0.564356 0.113599 0.709817 0.147158
H9    H     H_    0.553999 0.690247 0.127118 0.153809
H10   H     H_    0.446002 0.309753 0.872882 0.153810
H11   H     H_    0.756837 0.408355 0.119930 0.165606
H12   H     H_    0.554337 0.690064 0.875658 0.135867
H13   H     H_    0.445663 0.309936 0.124342 0.135867
H14   H     H_    0.235177 0.767654 0.042900 0.153753
H15   H     H_    0.764813 0.232346 0.957096 0.153752
H16   H     H_    0.151182 0.735263 0.272227 0.127855
H17   H     H_    0.848810 0.264736 0.727769 0.127854
H18   H     H_    0.082828 0.347821 0.174998 0.153776
N1    N     N_R   0.499970 0.499970 0.857200 -0.095276
N2    N     N_R   0.500030 0.500030 0.142800 -0.095276
O1    O     O_R   0.499990 0.316750 0.614620 -0.629908
O2    O     O_R   0.500010 0.683250 0.385380 -0.629908
O3    O     O_R   0.499990 0.316780 0.385290 -0.637788
O4    O     O_R   0.500010 0.683220 0.614710 -0.637788
O5    O     O_R   0.316760 0.500000 0.614660 -0.616218
O6    O     O_R   0.683240 0.500000 0.385340 -0.616218
O7    O     O_R   0.316760 0.500020 0.385330 -0.613069
O8    O     O_R   0.683240 0.499980 0.614670 -0.613068
Zn1   Zn    Zn3+2 0.500000 0.499980 0.653120 0.957697
Zn2   Zn    Zn3+2 0.500000 0.500020 0.346880 0.957697

loop_
_geom_bond_atom_site_label_1
_geom_bond_atom_site_label_2
_ccdc_geom_bond_type
C26   C27   A    
O7    Zn2   S    
C2    C4    A    
C32   H7    S    
O2    Zn2   S    
O8    Zn1   S    
C3    C12   S    
C1    O3    A    
C10   C23   S    
C27   C29   A    
C5    C7    A    
C11   C22   A    
C10   O6    A    
O6    Zn2   S    
C1    C4    S    
C12   O4    A    
C9    O5    A    
C23   C25   A    
C5    H9    S    
C8    H13   S    
C18   H18   S    
C10   O8    A    
C23   C28   A    
C3    C31   A    
C22   H1    S    
N1    Zn1   S    
C11   H14   S    
C12   O2    A    
N2    Zn2   S    
C2    H8    S    
C9    O7    A    
C24   H11   S    
C6    C8    A    
C16   C18   A    
C17   C19   A    
C20   C22   A    
C30   H5    S    
C1    O1    A    
C15   H17   S    
C19   H2    S    
C13   C15   A    
C25   C29   A    
C3    C32   A    
C11   C14   A    
C14   C16   A    
O5    Zn1   S    
C14   H16   S    
C6    N1    A    
C30   C32   A    
C7    H12   S    
C5    N2    A    
C31   H6    S    
C9    C27   S    
O3    Zn2   S    
C20   F1    S    
C18   C20   A    
C21   C24   A    
C8    N2    A    
O4    Zn1   S    
C15   C17   A    
C7    N1    A    
C26   H4    S    
C6    H10   S    
C21   F2    S    
C13   H15   S    
C25   H3    S    
C16   C29   S    
C17   C28   S    
C26   C28   A    
C4    C30   A    
C13   C24   A    
C2    C31   A    
C19   C21   A    
O1    Zn1   S    
