data_mof_unit_18869.cif
_audit_creation_date              2012-12-10T20:44:06-0500
_audit_creation_method            fapswitch 2.2
_symmetry_space_group_name_H-M    P1
_symmetry_Int_Tables_number       1
_space_group_crystal_system       triclinic
_cell_length_a                    17.460258
_cell_length_b                    10.681454
_cell_length_c                    9.919638
_cell_angle_alpha                 89.352052
_cell_angle_beta                  90.023085
_cell_angle_gamma                 91.4564
_cell_volume                      1849.30592585

loop_
_atom_site_label
_atom_site_type_symbol
_atom_type_description
_atom_site_fract_x
_atom_site_fract_y
_atom_site_fract_z
_atom_type_partial_charge
C1    C     C_R   0.503541 0.259946 0.500596 0.913260
C2    C     C_R   0.115582 0.570098 0.498842 0.138061
C3    C     C_R   0.523536 0.062049 0.622192 0.137294
C4    C     C_R   0.353445 0.503862 0.499948 0.898552
C5    C     C_R   0.518985 0.129019 0.501171 -0.121313
C6    C     C_R   0.532758 0.067359 0.379412 -0.125416
C7    C     C_R   0.532264 0.937563 0.378025 -0.209935
C8    C     C_R   0.519323 0.871338 0.498985 -0.106135
C9    C     C_R   0.523762 0.934196 0.620799 0.133323
C10   C     C_3   0.474866 0.920902 0.743627 -0.448594
C11   C     C_3   0.474446 0.062375 0.745462 -0.481771
C12   C     C_R   0.886484 0.558021 0.492832 0.072434
C13   C     C_R   0.437268 0.457207 0.071380 -0.065461
C14   C     C_R   0.557886 0.557299 0.070801 0.454979
C15   C     C_R   0.558015 0.556971 0.928045 0.424081
C16   C     C_R   0.503823 0.739898 0.499322 0.860099
C17   C     C_R   0.436659 0.459642 0.929106 0.027720
C18   C     C_3   0.398340 0.334373 0.920264 0.131109
C19   C     C_3   0.401174 0.328215 0.074289 0.741739
C20   C     C_R   0.646521 0.499999 0.499802 0.897633
C21   C     C_R   0.843152 0.611104 0.594022 -0.136834
C22   C     C_R   0.764654 0.588662 0.597140 -0.221244
C23   C     C_1   0.966973 0.572673 0.494869 -0.010582
C24   C     C_R   0.729451 0.513044 0.499004 -0.129044
C25   C     C_R   0.773844 0.458370 0.397676 0.404068
C26   C     C_R   0.852496 0.481555 0.395438 -0.183463
C27   C     C_1   0.035029 0.576530 0.496802 -0.040802
C28   C     C_R   0.152612 0.547441 0.620905 -0.150367
C29   C     C_R   0.230492 0.524862 0.621418 -0.173064
C30   C     C_R   0.271193 0.523685 0.499456 -0.060369
C31   C     C_R   0.233512 0.549680 0.377560 -0.127613
C32   C     C_R   0.155638 0.572162 0.377333 -0.140828
Cl1   Cl    Cl    0.310262 0.322049 0.156902 -0.549710
Cl2   Cl    Cl    0.734377 0.356134 0.276167 -0.571553
H1    H     H_    0.870031 0.669013 0.670550 0.162477
H2    H     H_    0.121050 0.544760 0.715009 0.154324
H3    H     H_    0.258561 0.508302 0.716891 0.223814
H4    H     H_    0.264036 0.553212 0.282610 0.197470
H5    H     H_    0.126463 0.588771 0.282579 0.151278
H6    H     H_    0.538252 0.117804 0.284761 0.218630
H7    H     H_    0.596232 0.655039 0.217691 0.357538
H8    H     H_    0.596715 0.655021 0.779475 0.358433
H9    H     H_    0.304819 0.256061 0.857158 0.353568
H10   H     H_    0.500199 0.244990 0.078088 0.290930
H11   H     H_    0.536137 0.890281 0.282318 0.179094
H12   H     H_    0.417596 0.877364 0.722721 0.211896
H13   H     H_    0.506248 0.879322 0.830090 0.215333
H14   H     H_    0.416721 0.100263 0.725638 0.207517
H15   H     H_    0.506058 0.101039 0.833552 0.208883
H16   H     H_    0.434145 0.267582 0.866995 0.092383
H17   H     H_    0.731298 0.632519 0.674603 0.207459
H18   H     H_    0.887286 0.438411 0.319196 0.177111
N1    N     N_R   0.499490 0.499140 0.142800 -0.199372
N2    N     N_R   0.499490 0.499180 0.857150 -0.212384
O1    O     O_R   0.500010 0.316790 0.614690 -0.623232
O2    O     O_3   0.617268 0.620012 0.863845 -0.715962
O3    O     O_3   0.324208 0.343488 0.867866 -0.723450
O4    O     O_3   0.449785 0.235429 0.124024 -0.762544
O5    O     O_R   0.500000 0.316760 0.385350 -0.555355
O6    O     O_R   0.389120 0.500020 0.614710 -0.587855
O7    O     O_R   0.389110 0.499990 0.385370 -0.583838
O8    O     O_R   0.500000 0.683240 0.614650 -0.648378
O9    O     O_R   0.499990 0.683210 0.385310 -0.653994
O10   O     O_R   0.610890 0.500010 0.614630 -0.617900
O11   O     O_R   0.610880 0.499980 0.385290 -0.570571
O12   O     O_3   0.616901 0.620822 0.133851 -0.680481
Zn1   Zn    Zn3+2 0.500010 0.500020 0.653130 0.968821
Zn2   Zn    Zn3+2 0.499990 0.499980 0.346870 1.018105

loop_
_geom_bond_atom_site_label_1
_geom_bond_atom_site_label_2
_ccdc_geom_bond_type
C19   O4    S    
C20   O10   A    
O1    Zn1   S    
O10   Zn1   S    
C10   H12   S    
C6    C7    A    
C3    C9    A    
C16   O9    A    
C23   C27   T    
O5    Zn2   S    
C9    C10   S    
C18   O3    S    
C31   C32   A    
O7    Zn2   S    
C31   H4    S    
C13   C17   A    
C25   Cl2   S    
O11   Zn2   S    
C15   O2    S    
C4    O6    A    
C14   C15   A    
C17   C18   S    
C14   O12   S    
C4    C30   S    
C7    C8    A    
C8    C16   S    
C21   C22   A    
C14   N1    A    
C12   C23   S    
C18   H16   S    
C11   H14   S    
C29   C30   A    
C16   O8    A    
O8    Zn1   S    
C21   H1    S    
C7    H11   S    
C22   C24   A    
C28   C29   A    
C12   C26   A    
C13   N1    A    
C1    O5    A    
C2    C27   S    
C1    O1    A    
C5    C6    A    
C1    C5    S    
C3    C11   S    
C10   C11   S    
C13   C19   S    
H7    O12   S    
C11   H15   S    
C12   C21   A    
C15   N2    A    
C20   O11   A    
C6    H6    S    
C24   C25   A    
C28   H2    S    
C2    C32   A    
C18   C19   S    
C19   Cl1   S    
C32   H5    S    
C29   H3    S    
C10   H13   S    
N1    Zn2   S    
H9    O3    S    
C30   C31   A    
C22   H17   S    
C2    C28   A    
N2    Zn1   S    
H8    O2    S    
C25   C26   A    
O9    Zn2   S    
C4    O7    A    
C26   H18   S    
C17   N2    A    
C20   C24   S    
O6    Zn1   S    
H10   O4    S    
C8    C9    A    
C3    C5    A    
