data_mof_unit_18981.cif
_audit_creation_date              2012-12-10T17:03:41-0500
_audit_creation_method            fapswitch 2.2
_symmetry_space_group_name_H-M    P1
_symmetry_Int_Tables_number       1
_space_group_crystal_system       triclinic
_cell_length_a                    10.090008
_cell_length_b                    10.759925
_cell_length_c                    12.969085
_cell_angle_alpha                 89.477544
_cell_angle_beta                  72.954664
_cell_angle_gamma                 89.878446
_cell_volume                      1346.11780556

loop_
_atom_site_label
_atom_site_type_symbol
_atom_type_description
_atom_site_fract_x
_atom_site_fract_y
_atom_site_fract_z
_atom_type_partial_charge
C1    C     C_R   0.499769 0.736975 0.501461 0.868632
C2    C     C_R   0.455018 0.382587 0.972126 -0.058470
C3    C     C_R   0.494012 0.388631 0.859299 0.001399
C4    C     C_R   0.555489 0.421521 0.022378 0.065895
C5    C     C_R   0.694845 0.442553 0.958807 0.069310
C6    C     C_R   0.735100 0.403281 0.851524 -0.213009
C7    C     C_R   0.634987 0.367789 0.803670 0.139774
C8    C     C_R   0.518431 0.452512 0.130871 -0.311096
C9    C     C_R   0.751172 0.525399 0.114966 0.107139
C10   C     C_R   0.391299 0.415586 0.808097 -0.179144
C11   C     C_2   0.619369 0.064495 0.474512 0.309760
C12   C     C_R   0.427292 0.474293 0.699742 0.894546
C13   C     C_2   0.516848 0.134679 0.458268 0.289741
C14   C     C_2   0.614831 0.931755 0.456314 0.334123
C15   C     C_2   0.500141 0.869213 0.511142 0.265437
C16   C     C_2   0.083760 0.406361 0.471858 -0.005211
C17   C     C_2   0.945726 0.419016 0.449411 0.289878
C18   C     C_R   0.503648 0.263342 0.490880 0.814296
C19   C     C_R   0.574983 0.502886 0.296052 0.906758
C20   C     C_R   0.789992 0.500633 0.004269 0.056991
C21   C     C_R   0.616799 0.494780 0.178768 -0.105039
C22   C     C_R   0.253840 0.385721 0.862561 -0.255641
C23   C     C_R   0.217775 0.342463 0.969224 0.136656
C24   C     C_R   0.317044 0.342768 0.026313 0.391105
H1    H     H_    0.132947 0.315749 0.461731 0.108593
H2    H     H_    0.843049 0.396870 0.804990 0.165121
H3    H     H_    0.411621 0.446456 0.179145 0.217932
H4    H     H_    0.177292 0.388797 0.819399 0.179604
N1    N     N_2   0.148270 0.498670 0.498870 -0.062361
N2    N     N_2   0.852610 0.498640 0.498840 0.060734
O1    O     O_R   0.386950 0.680940 0.500020 -0.643317
O2    O     O_R   0.613110 0.680900 0.499980 -0.570618
O3    O     O_R   0.330780 0.500000 0.653640 -0.603385
O4    O     O_R   0.556930 0.499960 0.653610 -0.642344
O5    O     O_R   0.386890 0.319100 0.500020 -0.639335
O6    O     O_R   0.613050 0.319060 0.499980 -0.589008
O7    O     O_R   0.443070 0.500040 0.346390 -0.637214
O8    O     O_R   0.669220 0.500000 0.346360 -0.570037
Zn1   Zn    Zn3+2 0.349000 0.500030 0.500020 0.943534
Zn2   Zn    Zn3+2 0.651000 0.499970 0.499980 1.007139
N3    N     N_3   0.845281 0.587092 0.161837 -0.405370
H5    H     H_    0.871287 0.673258 0.123381 0.212273
H6    H     H_    0.935687 0.534271 0.147468 0.193940
O9    O     O_3   0.426731 0.083566 0.407087 -0.769143
H7    H     H_    0.365798 0.149240 0.392107 0.345371
O10   O     O_3   0.726409 0.872410 0.385566 -0.776051
H8    H     H_    0.797547 0.935892 0.352117 0.336715
O11   O     O_3   0.389947 0.929279 0.583151 -0.774059
H9    H     H_    0.319561 0.866683 0.619992 0.337889
N4    N     N_3   0.112164 0.615363 0.468627 -0.319135
H10   H     H_    0.113201 0.676247 0.530679 0.229616
H11   H     H_    0.191509 0.643612 0.400704 0.204768
N5    N     N_3   0.915521 0.338500 0.372053 -0.423505
H12   H     H_    0.990325 0.354546 0.298111 0.172657
H13   H     H_    0.927785 0.246957 0.395176 0.200616
O12   O     O_3   0.870868 0.548298 0.588379 -0.719435
H14   H     H_    0.787494 0.599602 0.619254 0.375438
N6    N     N_3   0.923545 0.540770 0.938867 -0.470661
H15   H     H_    0.977011 0.462554 0.902667 0.195320
H16   H     H_    0.910005 0.600091 0.878452 0.204028
O13   O     O_3   0.279791 0.290595 0.128343 -0.814851
H17   H     H_    0.363425 0.251473 0.139904 0.340646
N7    N     N_3   0.080816 0.295497 0.017848 -0.452219
H18   H     H_    0.037424 0.343574 0.089385 0.204602
H19   H     H_    0.089027 0.202102 0.038047 0.221907
N8    N     N_3   0.675686 0.287983 0.711827 -0.405788
H20   H     H_    0.738241 0.337622 0.646456 0.261568
H21   H     H_    0.588653 0.254632 0.692805 0.219426
O14   O     O_3   0.719137 0.112316 0.517003 -0.806447
H22   H     H_    0.779429 0.043280 0.527344 0.341020

loop_
_geom_bond_atom_site_label_1
_geom_bond_atom_site_label_2
_ccdc_geom_bond_type
N4    H11   S    
C23   C24   A    
C11   O14   S    
C6    C7    A    
C1    C15   S    
C19   O8    A    
C11   C13   D    
C18   O5    A    
C9    C20   A    
C9    N3    S    
O13   H17   S    
O6    Zn2   S    
C4    C8    A    
N7    H19   S    
N1    Zn1   S    
C23   N7    S    
C2    C3    A    
C16   N1    D    
N2    Zn2   S    
C14   O10   S    
C3    C10   A    
O3    Zn1   S    
N5    H12   S    
C10   C22   A    
C7    N8    S    
O8    Zn2   S    
C17   N2    D    
N3    H6    S    
C9    C21   A    
C6    H2    S    
N2    O12   S    
C13   C18   S    
C24   O13   S    
O4    Zn2   S    
C5    C6    A    
C10   C12   S    
C22   C23   A    
O11   H9    S    
C19   C21   S    
O1    Zn1   S    
N4    H10   S    
C15   O11   S    
C3    C7    A    
N1    N4    S    
O2    Zn2   S    
C13   O9    S    
C2    C24   A    
O5    Zn1   S    
C11   C14   S    
O14   H22   S    
N6    H15   S    
N8    H21   S    
N5    H13   S    
N6    H16   S    
N7    H18   S    
C2    C4    A    
C17   N5    S    
C1    O1    A    
C20   N6    S    
N8    H20   S    
O12   H14   S    
O7    Zn1   S    
N3    H5    S    
C16   H1    S    
C5    C20   A    
C8    H3    S    
O10   H8    S    
C16   C17   S    
C22   H4    S    
C19   O7    A    
C12   O4    A    
C12   O3    A    
C14   C15   D    
C18   O6    A    
C1    O2    A    
O9    H7    S    
C4    C5    A    
C8    C21   A    
