data_mof_unit_9636.cif
_audit_creation_date              2012-12-10T20:21:42-0500
_audit_creation_method            fapswitch 2.2
_symmetry_space_group_name_H-M    P1
_symmetry_Int_Tables_number       1
_space_group_crystal_system       triclinic
_cell_length_a                    19.321515
_cell_length_b                    18.510081
_cell_length_c                    8.909819
_cell_angle_alpha                 89.99928
_cell_angle_beta                  90.014041
_cell_angle_gamma                 89.833168
_cell_volume                      3186.5190789

loop_
_atom_site_label
_atom_site_type_symbol
_atom_type_description
_atom_site_fract_x
_atom_site_fract_y
_atom_site_fract_z
_atom_type_partial_charge
C1    C     C_R   0.365656 0.500118 0.499880 0.889375
C2    C     C_R   0.634344 0.499882 0.499996 0.889376
C3    C     C_R   0.463488 0.725863 0.607473 0.526494
C4    C     C_R   0.463497 0.274341 0.392497 0.526643
C5    C     C_R   0.536497 0.725661 0.392527 0.526638
C6    C     C_R   0.536518 0.274136 0.607502 0.526494
C7    C     C_R   0.464238 0.802234 0.610544 -0.401108
C8    C     C_R   0.464249 0.197966 0.389478 -0.401457
C9    C     C_R   0.535746 0.802036 0.389508 -0.401468
C10   C     C_R   0.535770 0.197765 0.610572 -0.401114
C11   C     C_R   0.499994 0.841129 0.500043 0.087416
C12   C     C_R   0.500008 0.158871 0.500041 0.087415
C13   C     C_R   0.436724 0.961884 0.493187 0.142004
C14   C     C_R   0.563277 0.038116 0.493234 0.142004
C15   C     C_R   0.563273 0.961492 0.506953 0.142208
C16   C     C_R   0.436729 0.038508 0.506904 0.142209
C17   C     C_R   0.500005 0.077381 0.500065 0.051494
C18   C     C_R   0.499997 0.922620 0.500067 0.051494
C19   C     C_R   0.499999 0.500000 0.218509 0.935827
C20   C     C_R   0.500000 0.500000 0.781491 0.935980
C21   C     C_1   0.500000 0.500000 0.065350 -0.152536
C22   C     C_1   0.500000 0.500000 0.934650 -0.152579
C23   C     C_R   0.745385 0.433654 0.501429 -0.212039
C24   C     C_R   0.254615 0.566341 0.501288 -0.212044
C25   C     C_R   0.254216 0.435189 0.496691 -0.194513
C26   C     C_R   0.745785 0.564814 0.496937 -0.194507
C27   C     C_R   0.817288 0.432266 0.500614 0.203149
C28   C     C_R   0.182712 0.567728 0.500476 0.203139
C29   C     C_R   0.182241 0.435008 0.496033 0.203462
C30   C     C_R   0.817760 0.564994 0.496280 0.203472
C31   C     C_R   0.853431 0.498397 0.498049 0.298217
C32   C     C_R   0.146569 0.501601 0.497875 0.298257
C33   C     C_R   0.709591 0.499481 0.499537 -0.124186
C34   C     C_R   0.290410 0.500518 0.499362 -0.124197
C35   C     C_R   0.963629 0.500079 0.635636 0.263418
C36   C     C_R   0.036376 0.499983 0.360064 0.263553
C37   C     C_R   0.036439 0.499858 0.635590 0.263404
C38   C     C_R   0.963556 0.500070 0.360109 0.263539
C39   C     C_R   0.071398 0.501616 0.497814 -0.102948
C40   C     C_R   0.928602 0.498379 0.497900 -0.102945
H1    H     H_    0.717461 0.382939 0.503546 0.187971
H2    H     H_    0.282539 0.617053 0.503448 0.187983
H3    H     H_    0.281998 0.384251 0.495091 0.182034
H4    H     H_    0.718004 0.615756 0.495376 0.182019
H5    H     H_    0.436482 0.831210 0.697455 0.164583
H6    H     H_    0.436495 0.169145 0.302556 0.164660
H7    H     H_    0.563495 0.830857 0.302608 0.164663
H8    H     H_    0.563531 0.168789 0.697504 0.164586
N1    N     N_R   0.500000 0.689440 0.500000 -0.115784
N2    N     N_R   0.500000 0.310560 0.500000 -0.115780
O1    O     O_R   0.398180 0.560840 0.499960 -0.600689
O2    O     O_R   0.601820 0.439160 0.500040 -0.600688
O3    O     O_R   0.601820 0.560840 0.500040 -0.600458
O4    O     O_R   0.398180 0.439160 0.499960 -0.600457
O5    O     O_R   0.500000 0.560800 0.285330 -0.572501
O6    O     O_R   0.500000 0.439200 0.714670 -0.572409
O7    O     O_R   0.500000 0.560800 0.714670 -0.572405
O8    O     O_R   0.500000 0.439200 0.285330 -0.572509
Zn1   Zn    Zn3+2 0.500000 0.581210 0.500000 1.042612
Zn2   Zn    Zn3+2 0.500000 0.418790 0.500000 1.042617
C41   C     C_3   0.852774 0.359473 0.502556 -0.856573
H9    H     H_    0.837424 0.329589 0.605299 0.243784
H10   H     H_    0.836548 0.327882 0.402681 0.240933
H11   H     H_    0.910013 0.362983 0.501219 0.238044
C42   C     C_3   0.147225 0.640517 0.502478 -0.856621
H12   H     H_    0.163415 0.672118 0.402614 0.240958
H13   H     H_    0.089986 0.637007 0.501172 0.238046
H14   H     H_    0.162611 0.670386 0.605219 0.243783
C43   C     C_3   0.144247 0.363893 0.493603 -0.888065
H15   H     H_    0.180446 0.317166 0.492769 0.235650
H16   H     H_    0.110957 0.359259 0.594657 0.251696
H17   H     H_    0.111465 0.360537 0.391526 0.254030
C44   C     C_3   0.855755 0.636112 0.493919 -0.888034
H18   H     H_    0.819557 0.682842 0.493159 0.235642
H19   H     H_    0.889078 0.640715 0.594969 0.251692
H20   H     H_    0.888503 0.639499 0.391827 0.254023
O9    O     O_3   0.925131 0.503692 0.766186 -0.747399
H21   H     H_    0.952400 0.529161 0.843860 0.346725
O10   O     O_3   0.074887 0.496551 0.229515 -0.747800
H22   H     H_    0.047694 0.471027 0.151792 0.346668
O11   O     O_3   0.075001 0.496191 0.766086 -0.747375
H23   H     H_    0.047776 0.470673 0.843737 0.346736
O12   O     O_3   0.924981 0.503556 0.229612 -0.747779
H24   H     H_    0.952130 0.529128 0.151914 0.346681
O13   O     O_3   0.426187 0.686797 0.711176 -0.732759
H25   H     H_    0.402534 0.720723 0.780516 0.315116
O14   O     O_3   0.426212 0.313615 0.288697 -0.732504
H26   H     H_    0.402565 0.279820 0.219346 0.315294
O15   O     O_3   0.573777 0.686387 0.288757 -0.732490
H27   H     H_    0.597420 0.720183 0.219426 0.315296
O16   O     O_3   0.573823 0.313202 0.711237 -0.732762
H28   H     H_    0.597482 0.279275 0.780595 0.315117
C45   C     C_3   0.368560 0.922890 0.469702 -0.886999
H29   H     H_    0.375318 0.868489 0.419792 0.248267
H30   H     H_    0.340887 0.917659 0.578289 0.238256
H31   H     H_    0.335520 0.953017 0.389113 0.246906
C46   C     C_3   0.631440 0.077110 0.469801 -0.886997
H32   H     H_    0.624680 0.131515 0.419901 0.248265
H33   H     H_    0.659124 0.082333 0.578407 0.238257
H34   H     H_    0.664472 0.046987 0.389225 0.246903
C47   C     C_3   0.631433 0.922075 0.530436 -0.887287
H35   H     H_    0.664472 0.951991 0.611043 0.246960
H36   H     H_    0.624669 0.867710 0.580322 0.248258
H37   H     H_    0.659111 0.916684 0.421852 0.238219
C48   C     C_3   0.368571 0.077925 0.530333 -0.887286
H38   H     H_    0.375339 0.132286 0.580240 0.248259
H39   H     H_    0.340891 0.083326 0.421723 0.238216
H40   H     H_    0.335533 0.048005 0.610900 0.246964

loop_
_geom_bond_atom_site_label_1
_geom_bond_atom_site_label_2
_ccdc_geom_bond_type
C15   C18   A    
O14   H26   S    
C11   C18   S    
C45   H29   S    
O5    Zn1   S    
C38   O12   S    
C41   H11   S    
C24   H2    S    
C44   H18   S    
C20   O6    A    
C5    N1    A    
C25   H3    S    
C46   H32   S    
C3    N1    A    
C26   H4    S    
C4    O14   S    
O4    Zn2   S    
O9    H21   S    
C7    C11   A    
C48   H39   S    
C47   H35   S    
C13   C18   A    
C7    H5    S    
C35   C37   A    
C29   C32   A    
C3    C7    A    
C30   C31   A    
O7    Zn1   S    
C3    O13   S    
O8    Zn2   S    
C6    O16   S    
C31   C40   S    
C41   H10   S    
C32   C39   S    
C43   H16   S    
O2    Zn2   S    
C16   C17   A    
C23   C33   A    
C12   C17   S    
C23   C27   A    
C27   C41   S    
C4    C8    A    
C25   C34   A    
C47   H36   S    
C21   C22   T    
C25   C29   A    
C44   H19   S    
C14   C17   A    
C37   O11   S    
C43   H15   S    
C10   C12   A    
C46   H33   S    
C1    C34   S    
O11   H23   S    
C29   C43   S    
C19   O8    A    
O3    Zn1   S    
C48   H40   S    
C27   C31   A    
C28   C32   A    
O16   H28   S    
C30   C44   S    
C42   H13   S    
O13   H25   S    
C35   O9    S    
C6    N2    A    
O6    Zn2   S    
C13   C45   S    
C43   H17   S    
C1    O4    A    
C5    C9    A    
C9    C11   A    
C26   C33   A    
O12   H24   S    
C8    C12   A    
C42   H14   S    
C15   C47   S    
C1    O1    A    
C2    O2    A    
C16   C48   S    
C36   O10   S    
C2    C33   S    
C20   C22   S    
C9    H7    S    
C45   H31   S    
C10   H8    S    
C44   H20   S    
O1    Zn1   S    
C46   H34   S    
C14   C46   S    
C19   O5    A    
C19   C21   S    
C36   C39   A    
C24   C28   A    
C2    O3    A    
N1    Zn1   S    
C6    C10   A    
C26   C30   A    
C47   H37   S    
C48   H38   S    
C23   H1    S    
N2    Zn2   S    
C36   C38   A    
C28   C42   S    
O15   H27   S    
C37   C39   A    
C38   C40   A    
C35   C40   A    
C41   H9    S    
C24   C34   A    
O10   H22   S    
C45   H30   S    
C42   H12   S    
C13   C16   A    
C4    N2    A    
C14   C15   A    
C8    H6    S    
C20   O7    A    
C5    O15   S    
