data_mof_unit_27523.cif
_audit_creation_date              2013-03-05T16:10:12-0500
_audit_creation_method            fapswitch 2.2
_symmetry_space_group_name_H-M    P1
_symmetry_Int_Tables_number       1
_space_group_crystal_system       triclinic
_cell_length_a                    15.102559
_cell_length_b                    7.261686
_cell_length_c                    13.111644
_cell_angle_alpha                 90.073708
_cell_angle_beta                  100.334998
_cell_angle_gamma                 89.969432
_cell_volume                      1414.62340384

loop_
_atom_site_label
_atom_site_type_symbol
_atom_site_description
_atom_site_fract_x
_atom_site_fract_y
_atom_site_fract_z
_atom_type_partial_charge
O1    O     O_R   0.648180 0.355050 0.151550 -0.575512
O2    O     O_R   0.351820 0.644950 0.848450 -0.575028
O3    O     O_R   0.851820 0.855050 0.348450 -0.576156
O4    O     O_R   0.148180 0.144950 0.651550 -0.577147
O5    O     O_R   0.835240 0.681980 0.154280 -0.586550
O6    O     O_R   0.164760 0.318020 0.845720 -0.590399
O7    O     O_R   0.664760 0.181980 0.345720 -0.585413
O8    O     O_R   0.335240 0.818020 0.654280 -0.585043
H1    H     H_    0.643155 0.994280 0.855860 0.200671
H2    H     H_    0.356866 0.010236 0.144263 0.199031
H3    H     H_    0.856922 0.499045 0.644136 0.200407
H4    H     H_    0.142782 0.479719 0.355714 0.200282
C1    C     C_R   0.858885 0.515429 0.127189 0.985890
C2    C     C_R   0.141107 0.484565 0.872789 0.987237
C3    C     C_R   0.641191 0.015653 0.372902 0.985987
C4    C     C_R   0.358876 0.984374 0.627167 0.985841
O9    O     O_R   0.647870 0.684600 0.139630 -0.575515
O10   O     O_R   0.352130 0.315400 0.860370 -0.576832
O11   O     O_R   0.852130 0.184600 0.360370 -0.575136
O12   O     O_R   0.147870 0.815400 0.639630 -0.573858
O13   O     O_R   0.663110 0.857440 0.333700 -0.585657
O14   O     O_R   0.336890 0.142560 0.666300 -0.585808
O15   O     O_R   0.836890 0.357440 0.166300 -0.584320
O16   O     O_R   0.163110 0.642560 0.833700 -0.580832
C5    C     C_R   0.613830 0.516323 0.114957 1.054548
C6    C     C_R   0.386168 0.483687 0.885046 1.054021
C7    C     C_R   0.886180 0.016359 0.385043 1.054990
C8    C     C_R   0.113829 0.983610 0.614942 1.054913
H5    H     H_    0.491147 0.993996 0.767779 0.137981
H6    H     H_    0.508878 0.012584 0.232345 0.137428
H7    H     H_    0.008912 0.500079 0.732214 0.137871
H8    H     H_    0.991021 0.496573 0.267725 0.138399
O17   O     O_3   0.755220 0.522230 0.313690 -0.283023
O18   O     O_3   0.244780 0.477770 0.686310 -0.283327
O19   O     O_3   0.744780 0.022230 0.186310 -0.282763
O20   O     O_3   0.255220 0.977770 0.813690 -0.282679
V1    V     V_3+5 0.749030 0.796100 0.238190 1.236696
V2    V     V_3+5 0.250970 0.203900 0.761810 1.234722
V3    V     V_3+5 0.750970 0.296100 0.261810 1.238392
V4    V     V_3+5 0.249030 0.703900 0.738190 1.239433
C9    C     C_1   0.966613 0.005617 0.466022 -0.125636
C10   C     C_1   0.033404 0.994264 0.533948 -0.126050
C11   C     C_1   0.533415 0.505614 0.033945 -0.125280
C12   C     C_1   0.466626 0.494473 0.965995 -0.126073
C13   C     C_R   0.542270 0.996319 0.719668 -0.220035
C14   C     C_R   0.457771 0.008166 0.280440 -0.217597
C15   C     C_R   0.957791 0.501143 0.780338 -0.220093
C16   C     C_R   0.042114 0.493259 0.219591 -0.220329
C17   C     C_R   0.630254 0.996539 0.771917 -0.120942
C18   C     C_R   0.369791 0.007375 0.228196 -0.118608
C19   C     C_R   0.869810 0.500739 0.728086 -0.119088
C20   C     C_R   0.129965 0.483267 0.271791 -0.120848
C21   C     C_R   0.700968 0.996435 0.717352 -0.019632
C22   C     C_R   0.299105 0.003193 0.282735 -0.013937
C23   C     C_R   0.799099 0.498791 0.782642 -0.020163
C24   C     C_R   0.200709 0.481435 0.217288 -0.011653
C25   C     C_R   0.682917 0.000666 0.608201 0.307473
C26   C     C_R   0.317169 0.997227 0.391844 0.304041
C27   C     C_R   0.817137 0.502367 0.891814 0.307315
C28   C     C_R   0.182806 0.488484 0.108163 0.299817
C29   C     C_R   0.592414 0.002292 0.551503 -0.083187
C30   C     C_R   0.407662 0.997557 0.448567 -0.083594
C31   C     C_R   0.907639 0.503899 0.948523 -0.082867
C32   C     C_R   0.092334 0.493514 0.051444 -0.080924
C33   C     C_R   0.520946 0.997482 0.609863 0.104232
C34   C     C_R   0.479114 0.004169 0.390225 0.103873
C35   C     C_R   0.979108 0.500263 0.890146 0.102966
C36   C     C_R   0.020864 0.497764 0.109815 0.103615
C37   C     C_R   0.570753 0.007046 0.440301 -0.241677
C38   C     C_R   0.429318 0.993212 0.559774 -0.241467
C39   C     C_R   0.929292 0.505943 0.059755 -0.241409
C40   C     C_R   0.070712 0.494043 0.940215 -0.240265
N1    N     N_3   0.207580 0.007921 0.228101 -0.169279
H9    H     H_    0.205472 0.028792 0.148789 0.139237
H10   H     H_    0.179317 0.878474 0.235521 0.148118
N2    N     N_3   0.792382 0.985599 0.771966 -0.174983
H11   H     H_    0.794204 0.967497 0.851438 0.138004
H12   H     H_    0.823289 0.111864 0.763575 0.159206
N3    N     N_3   0.292152 0.474280 0.272079 -0.166410
H13   H     H_    0.294046 0.458245 0.351700 0.141226
H14   H     H_    0.322005 0.601346 0.262439 0.143381
N4    N     N_3   0.707758 0.486029 0.727983 -0.175231
H15   H     H_    0.706045 0.468616 0.648456 0.138374
H16   H     H_    0.676032 0.611320 0.736730 0.159180
N5    N     N_R   0.758613 0.999752 0.557633 0.193669
O21   O     O_R   0.804210 0.151460 0.557129 -0.474119
O22   O     O_R   0.797685 0.843100 0.546843 -0.454431
N6    N     N_R   0.241450 0.993770 0.442336 0.194228
O23   O     O_R   0.198307 0.839191 0.444012 -0.469640
O24   O     O_R   0.199816 0.147947 0.451684 -0.458366
N7    N     N_R   0.741456 0.499401 0.942386 0.193828
O25   O     O_R   0.703835 0.341553 0.953898 -0.453150
O26   O     O_R   0.694492 0.649525 0.942287 -0.475315
N8    N     N_R   0.258621 0.496232 0.057852 0.193045
O27   O     O_R   0.290977 0.657274 0.041485 -0.465173
O28   O     O_R   0.310646 0.352582 0.062971 -0.461119

loop_
_geom_bond_atom_site_label_1
_geom_bond_atom_site_label_2
_geom_bond_distance
_ccdc_geom_bond_type
C26   C30   1.433965 A    
O5    V1    2.025549 S    
N1    H10   1.044430 S    
N1    H9    1.045910 S    
O10   C6    1.342502 A    
C5    C11   1.465019 S    
C6    C12   1.465039 S    
N5    O21   1.300149 A    
C30   C38   1.436336 A    
O17   V3    1.773373 S    
C24   N3    1.438763 S    
O18   V4    1.773373 S    
C32   C36   1.431110 A    
O19   V1    1.774929 S    
N2    H12   1.043948 S    
C14   C34   1.417878 A    
C23   C27   1.408493 A    
C22   C26   1.408188 A    
O12   V4    1.988126 S    
C17   C21   1.388004 A    
C34   C37   1.421590 A    
O6    C2    1.326706 A    
C33   C38   1.421665 A    
O14   V2    2.007846 S    
C1    O15   1.323853 A    
C35   C40   1.421655 A    
C9    C10   1.222809 T    
C2    O16   1.323808 A    
O4    C8    1.334933 A    
O6    V2    2.025549 S    
O11   C7    1.342514 A    
O5    C1    1.326798 A    
O7    C3    1.326510 A    
O8    C4    1.326719 A    
H7    C15   1.081223 S    
O1    C5    1.335034 A    
H8    C16   1.081198 S    
C15   C35   1.417850 A    
H4    C20   1.082866 S    
N5    O22   1.300416 A    
C3    C37   1.501336 S    
C31   C35   1.431057 A    
C30   C34   1.431175 A    
H1    C17   1.082915 S    
N2    H11   1.045893 S    
N7    O25   1.300533 A    
N3    H14   1.044914 S    
C21   C25   1.408387 A    
C15   C19   1.381408 A    
C1    C39   1.501414 S    
C24   C28   1.408659 A    
H5    C13   1.081255 S    
C11   C12   1.222783 T    
O2    V4    1.969468 S    
N7    O26   1.300135 A    
C22   N1    1.438638 S    
C7    C9    1.465051 S    
C13   C17   1.381440 A    
C4    C38   1.501406 S    
O2    C6    1.334971 A    
C18   C22   1.387782 A    
C16   C36   1.417798 A    
C23   N4    1.438895 S    
N8    O28   1.300139 A    
C31   C39   1.436327 A    
O11   V3    1.988125 S    
N6    O24   1.300159 A    
N4    H16   1.043790 S    
C13   C33   1.417840 A    
C21   N2    1.438846 S    
O9    V1    1.987436 S    
O20   V2    1.774930 S    
H2    C18   1.082874 S    
C27   N7    1.420760 S    
C29   C37   1.436342 A    
C4    O14   1.323719 A    
C2    C40   1.501182 S    
H6    C14   1.081281 S    
O4    V2    1.969022 S    
C26   N6    1.420682 S    
C25   C29   1.434024 A    
O12   C8    1.342297 A    
C14   C18   1.381377 A    
C27   C31   1.434056 A    
C28   C32   1.434129 A    
O9    C5    1.342443 A    
O3    C7    1.334716 A    
O10   V2    1.987435 S    
C3    O13   1.323957 A    
C36   C39   1.421714 A    
O15   V3    2.008867 S    
C8    C10   1.465038 S    
O16   V4    2.008870 S    
C25   N5    1.420742 S    
C19   C23   1.387966 A    
C32   C40   1.436212 A    
N8    O27   1.300509 A    
H3    C19   1.082928 S    
O1    V3    1.969471 S    
N3    H13   1.045866 S    
C29   C33   1.431143 A    
C16   C20   1.381387 A    
O13   V1    2.007847 S    
N6    O23   1.300393 A    
O3    V1    1.969021 S    
N4    H15   1.045905 S    
O7    V3    2.027275 S    
O8    V4    2.027273 S    
C20   C24   1.387908 A    
C28   N8    1.421443 S    
