data_mof_unit_49957.cif
_audit_creation_date              2012-12-10T16:47:59-0500
_audit_creation_method            fapswitch 2.2
_symmetry_space_group_name_H-M    P1
_symmetry_Int_Tables_number       1
_space_group_crystal_system       triclinic
_cell_length_a                    7.797658
_cell_length_b                    8.572231
_cell_length_c                    10.682415
_cell_angle_alpha                 91.203993
_cell_angle_beta                  86.652397
_cell_angle_gamma                 93.319551
_cell_volume                      711.522315068

loop_
_atom_site_label
_atom_site_type_symbol
_atom_type_description
_atom_site_fract_x
_atom_site_fract_y
_atom_site_fract_z
_atom_type_partial_charge
Br1   Br    Br    0.961924 0.685822 0.651994 -0.396454
C1    C     C_R   0.545388 0.794485 0.496972 0.959021
C2    C     C_2   0.569399 0.957854 0.495581 -0.362434
C3    C     C_3   0.198618 0.518393 0.103520 -0.276786
C4    C     C_3   0.791026 0.196919 0.926646 -0.249734
C5    C     C_2   0.430659 0.042160 0.505443 -0.363120
C6    C     C_R   0.503824 0.499676 0.737028 0.950497
C7    C     C_R   0.454621 0.205513 0.503345 0.960012
C8    C     C_R   0.494646 0.490798 0.262280 0.814095
C9    C     C_2   0.625401 0.433549 0.060287 -0.423726
C10   C     C_2   0.479693 0.451874 0.130867 0.322040
C11   C     C_2   0.620061 0.411875 0.924880 0.613168
C12   C     C_2   0.516463 0.504591 0.868601 -0.333608
H1    H     H_    0.751570 0.448699 0.098400 0.146144
H2    H     H_    0.892992 0.248917 0.985726 0.169187
H3    H     H_    0.851369 0.109723 0.862536 0.204491
H4    H     H_    0.440259 0.589337 0.919888 0.122923
H5    H     H_    0.700717 0.008226 0.486279 0.192940
H6    H     H_    0.299351 0.991773 0.514869 0.198511
H7    H     H_    0.012655 0.382355 0.405947 0.152567
H8    H     H_    0.256673 0.639736 0.113111 0.139972
H9    H     H_    0.112070 0.488830 0.186829 0.183696
H10   H     H_    0.117433 0.516249 0.021511 0.195471
H11   H     H_    0.687439 0.133484 0.984863 0.158984
N1    N     N_2   0.950320 0.457950 0.466680 -0.122883
N2    N     N_2   0.049680 0.542050 0.533320 0.059415
O1    O     O_R   0.389250 0.738570 0.508180 -0.603708
O2    O     O_3   0.724732 0.312102 0.853596 -0.583650
O3    O     O_R   0.678390 0.711630 0.486820 -0.589573
O4    O     O_R   0.355470 0.513470 0.691600 -0.596024
O5    O     O_R   0.644610 0.486520 0.670240 -0.530742
O6    O     O_R   0.321610 0.288370 0.513180 -0.633264
O7    O     O_R   0.610750 0.261430 0.491820 -0.610580
O8    O     O_R   0.355390 0.513480 0.329760 -0.631610
O9    O     O_R   0.644530 0.486530 0.308400 -0.653000
O10   O     O_3   0.321376 0.403909 0.083445 -0.607888
Zn1   Zn    Zn3+2 0.306940 0.517990 0.514260 1.012242
Zn2   Zn    Zn3+2 0.693060 0.482010 0.485740 1.013407

loop_
_geom_bond_atom_site_label_1
_geom_bond_atom_site_label_2
_ccdc_geom_bond_type
O3    Zn2   S    
C3    O10   S    
N2    Zn1   S    
C1    O1    A    
C5    H6    S    
N1    Zn2   S    
O8    Zn1   S    
C3    H9    S    
O7    Zn2   S    
O5    Zn2   S    
C12   H4    S    
C2    C5    D    
C1    C2    S    
C6    O4    A    
O6    Zn1   S    
C3    H8    S    
C8    C10   S    
Br1   N2    S    
C4    H11   S    
C9    C11   S    
O1    Zn1   S    
C1    O3    A    
C10   O10   S    
C11   O2    S    
C7    O7    A    
C9    H1    S    
C8    O8    A    
C4    H2    S    
C6    O5    A    
H7    N1    S    
C4    O2    S    
C6    C12   S    
O9    Zn2   S    
C11   C12   D    
C2    H5    S    
C9    C10   D    
C8    O9    A    
C3    H10   S    
C4    H3    S    
C5    C7    S    
N1    N2    D    
O4    Zn1   S    
C7    O6    A    
