data_mof_unit_41812.cif
_audit_creation_date              2012-12-11T16:20:16-0500
_audit_creation_method            fapswitch 2.2
_symmetry_space_group_name_H-M    P1
_symmetry_Int_Tables_number       1
_space_group_crystal_system       triclinic
_cell_length_a                    6.921443
_cell_length_b                    34.322627
_cell_length_c                    38.302846
_cell_angle_alpha                 99.636923
_cell_angle_beta                  89.730468
_cell_angle_gamma                 90.324651
_cell_volume                      8970.68957794

loop_
_atom_site_label
_atom_site_type_symbol
_atom_type_description
_atom_site_fract_x
_atom_site_fract_y
_atom_site_fract_z
_atom_type_partial_charge
O1    O     O_R   0.494320 0.461440 0.460990 -0.540996
O2    O     O_R   0.821450 0.462560 0.532500 -0.508487
O3    O     O_R   0.994330 0.538560 0.539010 -0.543627
C1    C     C_R   0.652097 0.453417 0.543478 0.768338
O4    O     O_R   0.823870 0.456770 0.460860 -0.536344
O5    O     O_R   0.996760 0.532730 0.466860 -0.543351
C2    C     C_R   0.654939 0.446012 0.447855 0.721663
O6    O     O_R   0.491880 0.467270 0.533140 -0.535197
O7    O     O_3   0.661650 0.524930 0.502050 -0.381619
V1    V     V_3+5 0.935500 0.495380 0.499620 1.496819
O8    O     O_R   0.326630 0.537440 0.467500 -0.545212
C3    C     C_R   0.158202 0.546143 0.456220 0.719782
O9    O     O_R   0.324210 0.543230 0.539140 -0.546562
C4    C     C_R   0.155188 0.553967 0.552158 0.697616
V2    V     V_3+5 0.435810 0.504620 0.500380 1.445507
O10   O     O_3   0.159790 0.475070 0.497950 -0.343824
C5    C     C_R   0.999147 0.834815 0.791678 0.709146
N1    N     N_R   0.036080 0.825081 0.824308 -0.552695
C6    C     C_R   0.084734 0.787359 0.827799 0.573240
C7    C     C_R   0.100286 0.757683 0.797821 0.010679
C8    C     C_R   0.068264 0.767180 0.763838 -0.075375
C9    C     C_R   0.016830 0.806187 0.760327 -0.190561
C10   C     C_R   0.148807 0.718798 0.801181 -0.143199
C11   C     C_R   0.164301 0.689480 0.771385 -0.144377
C12   C     C_R   0.132683 0.698273 0.737381 0.014437
C13   C     C_R   0.085932 0.737308 0.733470 -0.066049
C14   C     C_R   0.058603 0.746391 0.699293 -0.200215
C15   C     C_R   0.025415 0.786243 0.695621 0.379579
C16   C     C_R   0.990202 0.815082 0.725710 0.335208
C17   C     C_R   0.146798 0.668804 0.707136 0.570757
N2    N     N_R   0.111755 0.677576 0.674181 -0.561401
C18   C     C_R   0.065396 0.715237 0.669817 0.603689
O11   O     O_2   0.947160 0.872180 0.789901 -0.472743
O12   O     O_2   0.120054 0.778650 0.860240 -0.525487
H1    H     H_    0.174461 0.710792 0.826936 0.169028
H2    H     H_    0.201082 0.659833 0.775136 0.169383
O13   O     O_2   0.192594 0.631516 0.710704 -0.521367
O14   O     O_2   0.023961 0.722318 0.637091 -0.503019
C19   C     C_R   0.302411 0.631085 0.631232 -0.090351
H3    H     H_    0.433717 0.642260 0.644668 0.116673
C20   C     C_R   0.313397 0.601206 0.601471 -0.192263
H4    H     H_    0.454041 0.589790 0.592654 0.125598
C21   C     C_R   0.144645 0.586112 0.583543 -0.056171
C22   C     C_R   0.964942 0.601860 0.596158 -0.194710
H5    H     H_    0.832013 0.591082 0.583095 0.127956
C23   C     C_R   0.954447 0.631862 0.625785 -0.082527
H6    H     H_    0.814920 0.643549 0.635019 0.116067
C24   C     C_R   0.122937 0.646645 0.643581 0.375525
C25   C     C_R   0.881349 0.854980 0.880596 -0.190685
H7    H     H_    0.771914 0.832015 0.876548 0.152526
C26   C     C_R   0.870501 0.884536 0.910473 -0.243030
H8    H     H_    0.752709 0.883918 0.929041 0.144162
C27   C     C_R   0.009989 0.914672 0.916284 -0.098899
C28   C     C_R   0.159154 0.915090 0.891335 -0.293057
H9    H     H_    0.261183 0.939375 0.895313 0.140129
C29   C     C_R   0.171889 0.885327 0.860892 0.463960
C30   C     C_R   0.029408 0.855415 0.855498 0.297729
C31   C     C_R   0.012127 0.865816 0.182575 0.587612
O15   O     O_2   0.002529 0.905393 0.192381 -0.514060
N3    N     N_R   0.014727 0.849718 0.147344 -0.548012
C32   C     C_R   0.024925 0.809621 0.136781 0.573594
C33   C     C_R   0.174435 0.879665 0.100498 -0.176638
C34   C     C_R   0.171617 0.904078 0.074452 0.365716
C35   C     C_R   0.838558 0.921033 0.090349 -0.265685
C36   C     C_R   0.841995 0.896011 0.115672 -0.087606
C37   C     C_R   0.010162 0.875310 0.121026 0.327776
C38   C     C_R   0.032935 0.800078 0.198390 -0.044298
C39   C     C_R   0.021745 0.841363 0.208664 -0.041975
C40   C     C_R   0.020710 0.857385 0.244683 -0.122551
C41   C     C_R   0.033602 0.784141 0.162039 -0.034070
C42   C     C_R   0.003188 0.925873 0.069668 -0.151699
H10   H     H_    0.706895 0.936980 0.087226 0.186922
H11   H     H_    0.713683 0.892803 0.131248 0.141029
H12   H     H_    0.009915 0.889002 0.253379 0.173406
C43   C     C_R   0.149024 0.573474 0.430013 -0.114794
C44   C     C_R   0.069066 0.766347 0.286821 0.034904
C45   C     C_R   0.055136 0.707875 0.239546 0.034380
C46   C     C_R   0.068739 0.724641 0.276009 0.071459
C47   C     C_R   0.090904 0.781380 0.323362 -0.169208
C48   C     C_R   0.106751 0.756437 0.348354 -0.117863
C49   C     C_R   0.101682 0.715421 0.338121 -0.035533
C50   C     C_R   0.082432 0.699383 0.301976 -0.043837
C51   C     C_R   0.076909 0.658013 0.291872 -0.051008
C52   C     C_R   0.090476 0.633594 0.317918 0.697876
N4    N     N_R   0.111873 0.649807 0.352883 -0.541974
C53   C     C_R   0.116905 0.689966 0.363305 0.610282
C54   C     C_R   0.968588 0.619793 0.401095 -0.100226
C55   C     C_R   0.978439 0.594336 0.425975 -0.188079
C56   C     C_R   0.309379 0.578626 0.408475 -0.232355
C57   C     C_R   0.298295 0.603489 0.382961 0.427869
C58   C     C_R   0.126911 0.624259 0.379126 0.303511
O16   O     O_2   0.137450 0.705257 0.397910 -0.515369
C59   C     C_R   0.049382 0.791531 0.260941 0.034404
C60   C     C_R   0.043979 0.774808 0.224390 0.066838
C61   C     C_R   0.049952 0.733135 0.213512 0.035791
C62   C     C_R   0.034064 0.833122 0.270272 -0.169925
H13   H     H_    0.852859 0.591269 0.442294 0.147713
H14   H     H_    0.836974 0.635987 0.398739 0.186094
H15   H     H_    0.123379 0.769607 0.375929 0.171706
H16   H     H_    0.099872 0.812480 0.333696 0.125505
H17   H     H_    0.029039 0.848098 0.297288 0.126080
O17   O     O_2   0.025718 0.794388 0.101938 -0.529059
C63   C     C_R   0.044212 0.743207 0.151638 -0.128367
H18   H     H_    0.305099 0.863814 0.104580 0.134357
H19   H     H_    0.046814 0.730135 0.123860 0.168968
C64   C     C_R   0.046383 0.666158 0.230470 -0.168195
C65   C     C_R   0.057091 0.641881 0.256084 -0.104373
O18   O     O_2   0.081991 0.593958 0.308360 -0.484180
C66   C     C_R   0.052257 0.718226 0.176712 -0.171477
H20   H     H_    0.028162 0.651058 0.203706 0.124181
H21   H     H_    0.442270 0.562819 0.410992 0.160478
H22   H     H_    0.050046 0.610172 0.247581 0.175097
H23   H     H_    0.063823 0.687236 0.166157 0.123988
C67   C     C_R   0.440555 0.326721 0.649289 0.640896
O19   O     O_2   0.304331 0.324571 0.623937 -0.502870
N5    N     N_R   0.593430 0.352320 0.649334 -0.546570
C68   C     C_R   0.733676 0.354648 0.674784 0.603920
C69   C     C_R   0.461939 0.404081 0.618364 -0.064307
C70   C     C_R   0.477365 0.428235 0.592477 -0.201890
C71   C     C_R   0.786514 0.398485 0.573709 0.342652
C72   C     C_R   0.768800 0.374249 0.599612 -0.099886
C73   C     C_R   0.607783 0.376977 0.622252 0.281042
C74   C     C_R   0.569237 0.303975 0.701384 -0.051344
C75   C     C_R   0.425981 0.302127 0.675219 -0.103464
C76   C     C_R   0.268917 0.276506 0.675880 -0.147678
C77   C     C_R   0.723636 0.330653 0.701234 -0.061335
C78   C     C_R   0.639926 0.426221 0.569964 -0.146551
H24   H     H_    0.880794 0.352972 0.602105 0.192562
H25   H     H_    0.150986 0.276651 0.657386 0.203658
C79   C     C_R   0.512497 0.073014 0.929246 -0.143959
C80   C     C_R   0.420403 0.221260 0.748356 0.075511
C81   C     C_R   0.666577 0.261733 0.783787 0.059483
C82   C     C_R   0.539393 0.228799 0.778733 0.071521
C83   C     C_R   0.323964 0.184451 0.741258 -0.082956
C84   C     C_R   0.321115 0.158686 0.765790 -0.126380
C85   C     C_R   0.420529 0.168111 0.797849 -0.046776
C86   C     C_R   0.532083 0.202982 0.804198 -0.046043
C87   C     C_R   0.637224 0.211919 0.835911 -0.026745
C88   C     C_R   0.629153 0.185859 0.860654 0.583170
N6    N     N_R   0.520048 0.152012 0.853989 -0.549952
C89   C     C_R   0.416262 0.142847 0.823303 0.605604
C90   C     C_R   0.678670 0.102106 0.883229 -0.122972
C91   C     C_R   0.677853 0.075904 0.907652 0.332389
C92   C     C_R   0.351325 0.096741 0.925053 -0.204547
C93   C     C_R   0.353311 0.122427 0.900314 -0.075654
C94   C     C_R   0.517161 0.125361 0.879368 0.307217
O20   O     O_2   0.310556 0.109259 0.817288 -0.508019
C95   C     C_R   0.410195 0.249806 0.725364 -0.002456
C96   C     C_R   0.558236 0.279134 0.727539 -0.018131
C97   C     C_R   0.694284 0.283978 0.755799 0.005575
C98   C     C_R   0.257532 0.251064 0.700668 0.374824
H26   H     H_    0.805003 0.104151 0.866811 0.169135
H27   H     H_    0.242292 0.131088 0.759294 0.179817
H28   H     H_    0.258058 0.174030 0.715952 0.188213
O21   O     O_2   0.881353 0.380512 0.674853 -0.528922
C99   C     C_R   0.867380 0.332373 0.726901 -0.216286
H29   H     H_    0.362637 0.449080 0.590492 0.165528
H30   H     H_    0.336826 0.406729 0.635670 0.162088
H31   H     H_    0.993989 0.350530 0.725023 0.164984
C100  C     C_R   0.757657 0.271587 0.817055 -0.127630
C101  C     C_R   0.745149 0.246944 0.842432 -0.148063
O22   O     O_2   0.729293 0.194324 0.891146 -0.527254
C102  C     C_R   0.854196 0.310205 0.754598 0.440659
H32   H     H_    0.832455 0.299213 0.824788 0.144571
H33   H     H_    0.223085 0.095719 0.941170 0.188970
H34   H     H_    0.820387 0.255578 0.867283 0.165442
H35   H     H_    0.227574 0.140302 0.897599 0.150179
C103  C     C_R   0.494789 0.167472 0.207291 0.580835
N7    N     N_R   0.532967 0.176816 0.174457 -0.542048
C104  C     C_R   0.582907 0.214688 0.170766 0.599294
C105  C     C_R   0.600512 0.244559 0.200701 -0.036704
C106  C     C_R   0.562471 0.235316 0.234529 -0.014666
C107  C     C_R   0.508132 0.196526 0.237936 -0.036352
C108  C     C_R   0.655691 0.283341 0.197626 -0.148307
C109  C     C_R   0.672782 0.312497 0.227706 -0.131667
C110  C     C_R   0.634195 0.303670 0.261619 -0.030557
C111  C     C_R   0.578357 0.264951 0.265011 -0.014734
C112  C     C_R   0.538120 0.255812 0.298810 -0.035195
C113  C     C_R   0.483183 0.217013 0.301872 -0.132458
C114  C     C_R   0.468710 0.187732 0.271830 -0.136034
C115  C     C_R   0.648992 0.332657 0.292289 0.577107
N8    N     N_R   0.608562 0.323404 0.325062 -0.562390
C116  C     C_R   0.553873 0.285791 0.328725 0.582317
O23   O     O_2   0.442678 0.130243 0.210305 -0.516145
O24   O     O_2   0.616036 0.223465 0.138253 -0.533500
H36   H     H_    0.686413 0.291290 0.171963 0.164007
H37   H     H_    0.715887 0.342003 0.224267 0.173996
O25   O     O_2   0.701440 0.369874 0.289303 -0.511242
O26   O     O_2   0.515942 0.277321 0.361221 -0.506541
H38   H     H_    0.451385 0.209105 0.327509 0.177926
H39   H     H_    0.426361 0.158185 0.275276 0.175825
C117  C     C_R   0.452978 0.368129 0.374322 -0.078397
H40   H     H_    0.313153 0.356346 0.365260 0.118873
C118  C     C_R   0.464110 0.397917 0.404099 -0.175962
H41   H     H_    0.331415 0.408386 0.417460 0.136482
C119  C     C_R   0.644049 0.413910 0.416437 -0.055613
C120  C     C_R   0.812472 0.399198 0.398135 -0.172794
H42   H     H_    0.953287 0.410812 0.406745 0.129423
C121  C     C_R   0.800845 0.369545 0.368193 -0.074482
H43   H     H_    0.931881 0.358753 0.354410 0.119939
C122  C     C_R   0.621029 0.353797 0.356065 0.376265
C123  C     C_R   0.377798 0.146765 0.117875 0.482357
C124  C     C_R   0.372731 0.116591 0.087808 -0.304998
H44   H     H_    0.266020 0.117501 0.067447 0.130347
C125  C     C_R   0.508038 0.085797 0.083398 -0.098509
C126  C     C_R   0.651240 0.085598 0.109184 -0.202975
H45   H     H_    0.757294 0.062186 0.106450 0.143882
C127  C     C_R   0.657001 0.115230 0.139084 -0.200765
H46   H     H_    0.767982 0.114408 0.158775 0.152390
C128  C     C_R   0.522822 0.146206 0.143494 0.291652
O27   O     O_R   0.662230 0.032770 0.966890 -0.504289
O28   O     O_R   0.330090 0.043230 0.039150 -0.543853
O29   O     O_R   0.157350 0.967260 0.033130 -0.512404
C129  C     C_R   0.498820 0.053889 0.052099 0.721676
O30   O     O_R   0.332650 0.037450 0.967510 -0.534231
O31   O     O_R   0.159930 0.961430 0.960980 -0.538031
C130  C     C_R   0.502214 0.045744 0.955773 0.757666
O32   O     O_R   0.659640 0.038600 0.039040 -0.542800
O33   O     O_3   0.492510 0.975090 0.997960 -0.373412
V3    V     V_3+5 0.218600 0.004620 0.000380 1.484047
O34   O     O_R   0.830050 0.956730 0.960830 -0.544829
C131  C     C_R   0.999060 0.946204 0.947840 0.758922
O35   O     O_R   0.827490 0.962520 0.032470 -0.552076
C132  C     C_R   0.995982 0.953479 0.043520 0.714650
V4    V     V_3+5 0.718310 0.995320 0.999580 1.455815
O36   O     O_3   0.994270 0.024900 0.002040 -0.355377
O37   O     O_3   0.308127 0.885967 0.834069 -0.553936
C133  C     C_3   0.492664 0.899571 0.846533 0.078267
H47   H     H_    0.601040 0.878975 0.832295 0.176929
H48   H     H_    0.515889 0.899048 0.875210 0.095003
C134  C     C_3   0.531353 0.940662 0.837354 -0.294544
H49   H     H_    0.533521 0.938634 0.808084 0.245116
H50   H     H_    0.414172 0.961280 0.848046 0.203468
C135  C     C_3   0.723930 0.957421 0.852313 -0.696010
H51   H     H_    0.721722 0.961163 0.881681 0.234288
H52   H     H_    0.749504 0.986713 0.844430 0.266355
H53   H     H_    0.844011 0.937465 0.841845 0.259625
O38   O     O_3   0.336715 0.907228 0.054629 -0.567088
C136  C     C_3   0.341818 0.875080 0.026258 0.088919
H54   H     H_    0.234896 0.879896 0.005774 0.110356
H55   H     H_    0.309039 0.846400 0.035188 0.130885
C137  C     C_3   0.544017 0.872182 0.009837 -0.298623
H56   H     H_    0.580046 0.900010 0.000031 0.212888
H57   H     H_    0.651277 0.867904 0.030349 0.203796
C138  C     C_3   0.557887 0.837681 0.979130 -0.825188
H58   H     H_    0.519178 0.809505 0.988134 0.250770
H59   H     H_    0.708292 0.835319 0.968831 0.233380
H60   H     H_    0.459481 0.842404 0.957402 0.235944
Cl1   Cl    Cl    0.500726 0.608245 0.356050 -0.631847
Cl2   Cl    Cl    0.991876 0.391485 0.546004 -0.600773
O39   O     O_3   0.023155 0.797752 0.662592 -0.526996
C139  C     C_3   0.215261 0.800282 0.649907 0.161584
H61   H     H_    0.208508 0.796542 0.620561 0.168349
H62   H     H_    0.310483 0.776255 0.656126 0.105167
C140  C     C_3   0.306809 0.840652 0.663847 -0.350860
H63   H     H_    0.213446 0.864455 0.656935 0.248806
H64   H     H_    0.320246 0.844623 0.693115 0.230331
C141  C     C_3   0.507799 0.844203 0.648080 -0.698699
H65   H     H_    0.604464 0.821040 0.655206 0.267291
H66   H     H_    0.570481 0.873624 0.658719 0.272137
H67   H     H_    0.499493 0.841103 0.618790 0.222812
Cl3   Cl    Cl    0.885734 0.046684 0.908744 -0.690308
Cl4   Cl    Cl    0.031607 0.227263 0.702607 -0.656425
Cl5   Cl    Cl    0.913777 0.861962 0.717764 -0.559778
O40   O     O_3   0.014101 0.307963 0.776026 -0.562422
C142  C     C_3   0.082016 0.345772 0.792232 0.041940
H68   H     H_    0.079404 0.346819 0.821372 0.134907
H69   H     H_    0.991755 0.371047 0.787101 0.103997
C143  C     C_3   0.291325 0.351131 0.780973 -0.286213
H70   H     H_    0.380855 0.327725 0.789513 0.198012
H71   H     H_    0.300386 0.348125 0.751710 0.196957
C144  C     C_3   0.372280 0.391376 0.797483 -0.822260
H72   H     H_    0.287540 0.415373 0.788750 0.243181
H73   H     H_    0.524827 0.393848 0.788948 0.228862
H74   H     H_    0.367703 0.394857 0.826833 0.232108
O41   O     O_3   0.255035 0.179015 0.121351 -0.546534
C145  C     C_3   0.058192 0.167529 0.117981 0.104185
H75   H     H_    0.980408 0.182462 0.141912 0.151328
H76   H     H_    0.032093 0.135260 0.116916 0.067278
C146  C     C_3   0.968805 0.180649 0.085319 -0.308378
H77   H     H_    0.033315 0.163822 0.060817 0.167282
H78   H     H_    0.811512 0.173895 0.084898 0.188087
C147  C     C_3   0.997919 0.224807 0.085255 -0.569728
H79   H     H_    0.944921 0.242461 0.110383 0.239176
H80   H     H_    0.916823 0.233585 0.062887 0.195613
H81   H     H_    0.153411 0.231515 0.081896 0.241986

loop_
_geom_bond_atom_site_label_1
_geom_bond_atom_site_label_2
_ccdc_geom_bond_type
C106  C111  A    
C32   C41   A    
C118  C119  A    
C105  C106  A    
C74   C96   A    
C138  H59   S    
C82   C86   A    
C59   C60   A    
C9    C16   A    
C54   C58   A    
C87   C101  A    
C147  H80   S    
N8    C122  S    
C81   C97   A    
C65   H22   S    
C90   C94   A    
O2    C1    A    
C6    C7    A    
C44   C47   A    
C1    O6    A    
C80   C83   A    
C34   O38   S    
C133  H48   S    
C49   C50   A    
N4    C58   S    
C71   C78   A    
C36   H11   S    
C74   C75   A    
C19   C20   A    
N2    C18   A    
N4    C53   A    
C71   C72   A    
C36   C37   A    
C97   C102  A    
C124  C125  A    
C13   C14   A    
C85   C89   A    
C135  H52   S    
C55   H13   S    
C19   C24   A    
C51   C52   A    
C100  H32   S    
C8    C9    A    
C15   C16   A    
C71   Cl2   S    
N5    C73   S    
O30   C130  A    
C93   C94   A    
C17   N2    A    
O29   C132  A    
C126  C127  A    
O28   C129  A    
C104  C105  A    
C120  H42   S    
C31   N3    A    
V2    O10   S    
O34   V4    S    
C16   Cl5   S    
C25   C30   A    
N5    C68   A    
N1    C6    A    
C20   H4    S    
C35   C42   A    
C90   H26   S    
C120  C121  A    
C108  C109  A    
C76   C98   A    
O9    C4    A    
C69   C70   A    
O8    V2    S    
O29   V3    S    
C136  H54   S    
C99   C102  A    
C127  H46   S    
C103  O23   S    
C68   O21   S    
C38   C60   A    
C137  H57   S    
C10   C11   A    
C146  C147  S    
O1    V2    S    
C18   O14   S    
C126  H45   S    
C136  C137  S    
C79   C92   A    
O40   C142  S    
C138  H60   S    
O32   V4    S    
C112  C116  A    
C29   O37   S    
C145  H76   S    
C98   Cl4   S    
C54   H14   S    
C67   C75   A    
C140  H64   S    
C40   C62   A    
C118  H41   S    
C140  C141  S    
N3    C37   S    
C121  H43   S    
C143  H70   S    
C102  O40   S    
C147  H81   S    
C20   C21   A    
C103  C107  A    
C5    O11   S    
C123  C128  A    
C116  O26   S    
O7    V1    S    
C133  H47   S    
C105  C108  A    
C8    C13   A    
C22   C23   A    
C67   O19   S    
C33   H18   S    
C88   O22   S    
C144  H73   S    
C40   H12   S    
C110  C115  A    
O27   C130  A    
C57   Cl1   S    
C28   C29   A    
C56   C57   A    
C75   C76   A    
C137  C138  S    
C90   C91   A    
C123  C124  A    
C33   C37   A    
C44   C46   A    
C38   C39   A    
N7    C104  A    
C112  C113  A    
C47   H16   S    
C84   C85   A    
C95   C98   A    
C62   H17   S    
C11   C12   A    
O35   C132  A    
O39   C139  S    
C61   C66   A    
C117  C122  A    
N6    C94   S    
O33   V3    S    
O4    C2    A    
C89   O20   S    
C41   C63   A    
C119  C120  A    
C74   C77   A    
O28   V3    S    
C107  C114  A    
C25   C26   A    
C12   C13   A    
C45   C46   A    
C45   C61   A    
O33   V4    S    
C26   H8    S    
C17   O13   S    
N3    C32   A    
C26   C27   A    
C135  H53   S    
C117  C118  A    
C115  N8    A    
C79   C130  S    
C141  H66   S    
C21   C22   A    
C69   C73   A    
C33   C34   A    
C44   C59   A    
O34   C131  A    
O31   V3    S    
C46   C50   A    
N1    C30   S    
C50   C51   A    
O37   C133  S    
C7    C10   A    
C70   H29   S    
C7    C8    A    
C5    N1    A    
V3    O36   S    
C80   C95   A    
C63   H19   S    
C91   Cl3   S    
C81   C100  A    
C64   C65   A    
C52   N4    A    
C79   C91   A    
C121  C122  A    
C72   C73   A    
O3    C4    A    
C142  H69   S    
C72   H24   S    
C139  C140  S    
C123  O41   S    
C110  C111  A    
C34   C42   A    
C125  C129  S    
C25   H7    S    
C59   C62   A    
C10   H1    S    
N2    C24   S    
C134  H50   S    
O9    V2    S    
C129  O32   A    
C147  H79   S    
C87   C88   A    
C145  H75   S    
C47   C48   A    
C3    C43   S    
C141  H67   S    
C29   C30   A    
C144  H72   S    
C140  H63   S    
O2    V1    S    
C19   H3    S    
C106  C107  A    
C45   C64   A    
C139  H62   S    
C93   H35   S    
C31   C39   A    
C12   C17   A    
C125  C126  A    
C23   H6    S    
C103  N7    A    
C42   C132  S    
C1    C78   S    
V4    O36   S    
C14   C18   A    
O1    C2    A    
C39   C40   A    
C99   H31   S    
C22   H5    S    
C49   C53   A    
C146  H78   S    
C48   C49   A    
C80   C82   A    
C114  H39   S    
C84   H27   S    
O5    V1    S    
C28   H9    S    
C67   N5    A    
C88   N6    A    
O35   V4    S    
C27   C28   A    
C83   C84   A    
C66   H23   S    
O6    V2    S    
C86   C87   A    
C56   H21   S    
C5    C9    A    
C11   H2    S    
C63   C66   A    
C92   H33   S    
C92   C93   A    
C127  C128  A    
C117  H40   S    
C38   C41   A    
C143  H71   S    
C141  H65   S    
C27   C131  S    
C15   O39   S    
C146  H77   S    
C48   H15   S    
C109  C110  A    
C53   O16   S    
C96   C97   A    
C35   C36   A    
O27   V4    S    
O5    C3    A    
C57   C58   A    
C83   H28   S    
C113  H38   S    
C142  C143  S    
C144  H74   S    
N6    C89   A    
N7    C128  S    
C137  H56   S    
C104  O24   S    
O38   C136  S    
O30   V3    S    
C52   O18   S    
C51   C65   A    
C81   C82   A    
C134  C135  S    
C6    O12   S    
C95   C96   A    
C35   H10   S    
O7    V2    S    
C60   C61   A    
C100  C101  A    
C31   O15   S    
C143  C144  S    
O31   C131  A    
C69   H30   S    
C142  H68   S    
C43   C56   A    
C101  H34   S    
C109  H37   S    
C113  C114  A    
C23   C24   A    
C76   H25   S    
C43   C55   A    
O4    V1    S    
O41   C145  S    
C54   C55   A    
C64   H20   S    
C111  C112  A    
C135  H51   S    
C145  C146  S    
C134  H49   S    
O3    V1    S    
C136  H55   S    
C139  H61   S    
C68   C77   A    
V1    O10   S    
C124  H44   S    
C115  O25   S    
C2    C119  S    
C138  H58   S    
C32   O17   S    
C133  C134  S    
C108  H36   S    
C85   C86   A    
N8    C116  A    
O8    C3    A    
C77   C99   A    
C4    C21   S    
C14   C15   A    
C70   C78   A    
