data_mof_unit_51333.cif
_audit_creation_date              2012-12-10T18:55:13-0500
_audit_creation_method            fapswitch 2.2
_symmetry_space_group_name_H-M    P1
_symmetry_Int_Tables_number       1
_space_group_crystal_system       triclinic
_cell_length_a                    10.877121
_cell_length_b                    9.767592
_cell_length_c                    27.633788
_cell_angle_alpha                 90.000585
_cell_angle_beta                  90.083244
_cell_angle_gamma                 89.999679
_cell_volume                      2935.90117883

loop_
_atom_site_label
_atom_site_type_symbol
_atom_type_description
_atom_site_fract_x
_atom_site_fract_y
_atom_site_fract_z
_atom_type_partial_charge
C1    C     C_R   0.259537 0.498132 0.503202 0.887930
C2    C     C_R   0.740462 0.498130 0.496798 0.887948
C3    C     C_R   0.492260 0.572760 0.101800 -0.054820
C4    C     C_R   0.507744 0.572831 0.898201 -0.054817
C5    C     C_R   0.379771 0.550073 0.125671 -0.019954
C6    C     C_R   0.620224 0.550115 0.874328 -0.019950
C7    C     C_R   0.270719 0.545184 0.099010 -0.141846
C8    C     C_R   0.729277 0.545170 0.900988 -0.141846
C9    C     C_R   0.601509 0.582441 0.128938 -0.019079
C10   C     C_R   0.398497 0.582571 0.871064 -0.019087
C11   C     C_R   0.504371 0.501588 0.352975 -0.098852
C12   C     C_R   0.495632 0.501597 0.647025 -0.098838
C13   C     C_R   0.388928 0.592463 0.973001 0.045350
C14   C     C_R   0.611085 0.592400 0.027002 0.045352
C15   C     C_R   0.615510 0.580953 0.975998 0.045979
C16   C     C_R   0.384499 0.580979 0.024004 0.045979
C17   C     C_R   0.504165 0.583231 0.949223 0.070439
C18   C     C_R   0.495844 0.583194 0.050780 0.070438
C19   C     C_R   0.281751 0.609779 0.944701 -0.220978
C20   C     C_R   0.718267 0.609652 0.055303 -0.220975
C21   C     C_R   0.286789 0.605587 0.894558 -0.141067
C22   C     C_R   0.713225 0.605427 0.105447 -0.141063
C23   C     C_R   0.504962 0.499971 0.405890 0.867650
C24   C     C_R   0.495038 0.499972 0.594110 0.867662
C25   C     C_R   0.272659 0.561547 0.049120 -0.218456
C26   C     C_R   0.727344 0.561501 0.950879 -0.218457
C27   C     C_R   0.064358 0.360107 0.502730 0.045638
C28   C     C_R   0.940658 0.612794 0.490779 0.054536
C29   C     C_R   0.935640 0.360105 0.497277 0.045509
C30   C     C_R   0.059336 0.612804 0.509200 0.054507
C31   C     C_R   0.873638 0.489632 0.493262 -0.152947
C32   C     C_R   0.126359 0.489639 0.506735 -0.152919
C33   C     C_R   0.475561 0.072044 0.541477 -0.094319
C34   C     C_R   0.523994 0.927836 0.458491 -0.109815
C35   C     C_R   0.524438 0.072042 0.458523 -0.094315
C36   C     C_R   0.476004 0.927838 0.541509 -0.109794
C37   C     C_R   0.379663 0.529734 0.175798 0.500355
C38   C     C_R   0.620321 0.529795 0.824201 0.500353
C39   C     C_R   0.596411 0.567368 0.179167 0.487163
C40   C     C_R   0.403585 0.567514 0.820835 0.487140
C41   C     C_R   0.546527 0.402572 0.273589 0.137935
C42   C     C_R   0.453433 0.402650 0.726418 0.137890
C43   C     C_R   0.567085 0.402699 0.324342 0.060036
C44   C     C_R   0.432906 0.402727 0.675663 0.060041
C45   C     C_R   0.437728 0.606986 0.330780 -0.262121
C46   C     C_R   0.562280 0.607002 0.669217 -0.262115
C47   C     C_R   0.432669 0.616811 0.281062 -0.140135
C48   C     C_R   0.567327 0.616860 0.718933 -0.140114
C49   C     C_R   0.486199 0.516098 0.252362 0.264535
C50   C     C_R   0.513771 0.516181 0.747638 0.264549
H1    H     H_    0.456189 0.126385 0.574614 0.128227
H2    H     H_    0.542579 0.873177 0.425316 0.146126
H3    H     H_    0.543812 0.126382 0.425386 0.128241
H4    H     H_    0.457417 0.873182 0.574683 0.146135
H5    H     H_    0.192607 0.628666 0.960353 0.140183
H6    H     H_    0.807418 0.628516 0.039654 0.140177
N1    N     N_R   0.487311 0.536740 0.201193 -0.351909
N2    N     N_R   0.512673 0.536845 0.798806 -0.351908
N3    N     N_R   0.500000 0.857200 0.500000 -0.076088
N4    N     N_R   0.500000 0.142800 0.500000 -0.068294
O1    O     O_R   0.316770 0.614620 0.500000 -0.612493
O2    O     O_R   0.683230 0.385380 0.500000 -0.631521
O3    O     O_R   0.683230 0.614620 0.500000 -0.612477
O4    O     O_R   0.316770 0.385380 0.500000 -0.631510
O5    O     O_R   0.500030 0.614650 0.428760 -0.623140
O6    O     O_R   0.499970 0.385350 0.571240 -0.639071
O7    O     O_R   0.499970 0.614650 0.571240 -0.623147
O8    O     O_R   0.500030 0.385350 0.428760 -0.639070
O9    O     O_2   0.273416 0.501941 0.198983 -0.568895
O10   O     O_2   0.726559 0.501970 0.801014 -0.568897
O11   O     O_2   0.300257 0.581237 0.794128 -0.577688
O12   O     O_2   0.699742 0.581041 0.205874 -0.577704
Zn1   Zn    Zn3+2 0.500000 0.653120 0.500000 0.938216
Zn2   Zn    Zn3+2 0.500000 0.346880 0.500000 0.917187
H7    H     H_    0.391034 0.684282 0.352072 0.169976
H8    H     H_    0.608989 0.684276 0.647921 0.169974
H9    H     H_    0.386224 0.703112 0.264548 0.152517
H10   H     H_    0.613783 0.703163 0.735442 0.152519
H11   H     H_    0.183133 0.527489 0.116560 0.187705
H12   H     H_    0.816857 0.527454 0.883436 0.187708
C51   C     C_3   0.331390 0.312818 0.654424 -0.472771
C52   C     C_3   0.204336 0.371279 0.667156 -0.307141
C53   C     C_3   0.101229 0.281804 0.647168 -0.917028
H13   H     H_    0.107042 0.276913 0.607198 0.251569
H14   H     H_    0.107530 0.176699 0.662261 0.270108
H15   H     H_    0.010831 0.326258 0.657172 0.263125
H16   H     H_    0.192792 0.380346 0.706899 0.250355
H17   H     H_    0.195534 0.475501 0.651592 0.216838
H18   H     H_    0.334996 0.305763 0.614664 0.218027
H19   H     H_    0.339971 0.205885 0.667473 0.207001
C54   C     C_3   0.668635 0.312840 0.345581 -0.472753
C55   C     C_3   0.795664 0.371297 0.332808 -0.307019
C56   C     C_3   0.898799 0.282039 0.352885 -0.917204
H20   H     H_    0.893037 0.277563 0.392866 0.251601
H21   H     H_    0.892496 0.176774 0.337925 0.270099
H22   H     H_    0.989177 0.326410 0.342802 0.263169
H23   H     H_    0.807231 0.380087 0.293056 0.250308
H24   H     H_    0.804403 0.475639 0.348278 0.216945
H25   H     H_    0.665077 0.305869 0.385345 0.218052
H26   H     H_    0.660049 0.205884 0.332556 0.206943
C57   C     C_3   0.418212 0.279711 0.757458 -0.410782
C58   C     C_3   0.508893 0.161439 0.749417 -0.372725
C59   C     C_3   0.470614 0.033923 0.777561 -0.840704
H27   H     H_    0.466935 0.056400 0.816936 0.266283
H28   H     H_    0.378956 0.997888 0.765167 0.267563
H29   H     H_    0.538546 0.950893 0.771392 0.246999
H30   H     H_    0.602051 0.193451 0.761590 0.246734
H31   H     H_    0.514483 0.134915 0.710396 0.218234
H32   H     H_    0.419564 0.304795 0.796565 0.209323
H33   H     H_    0.323013 0.245789 0.749744 0.213921
C60   C     C_3   0.581696 0.279590 0.242560 -0.410783
C61   C     C_3   0.491009 0.161346 0.250636 -0.372710
C62   C     C_3   0.529223 0.033796 0.222495 -0.840746
H34   H     H_    0.532854 0.056237 0.183116 0.266286
H35   H     H_    0.620888 0.997747 0.234872 0.267564
H36   H     H_    0.461282 0.950793 0.228686 0.246984
H37   H     H_    0.397839 0.193364 0.238483 0.246728
H38   H     H_    0.485480 0.134861 0.289662 0.218223
H39   H     H_    0.580302 0.304627 0.203450 0.209325
H40   H     H_    0.676894 0.245654 0.250262 0.213887
H41   H     H_    0.202021 0.617181 0.874328 0.189465
H42   H     H_    0.797996 0.616975 0.125677 0.189465
H43   H     H_    0.185308 0.551975 0.030965 0.139308
H44   H     H_    0.814693 0.551885 0.969033 0.139311
C63   C     C_3   0.131504 0.220509 0.504313 -0.364022
C64   C     C_3   0.167945 0.174594 0.452745 -0.299967
C65   C     C_3   0.205660 0.024822 0.451311 -0.905305
H45   H     H_    0.248615 0.000583 0.415903 0.252988
H46   H     H_    0.271662 0.001802 0.480689 0.279079
H47   H     H_    0.123486 0.959899 0.455784 0.242023
H48   H     H_    0.089690 0.188911 0.427414 0.206036
H49   H     H_    0.244800 0.236984 0.438455 0.255102
H50   H     H_    0.209106 0.217037 0.530198 0.206966
H51   H     H_    0.076860 0.139822 0.522235 0.185951
C66   C     C_3   0.893205 0.740871 0.464834 -0.411789
C67   C     C_3   0.852676 0.710503 0.412655 -0.322103
C68   C     C_3   0.827537 0.842545 0.384704 -0.889245
H52   H     H_    0.758663 0.906196 0.403933 0.252391
H53   H     H_    0.913672 0.902550 0.380594 0.261002
H54   H     H_    0.791542 0.817381 0.348145 0.261523
H55   H     H_    0.926281 0.652598 0.393696 0.223084
H56   H     H_    0.767802 0.647533 0.412501 0.222210
H57   H     H_    0.818843 0.791550 0.485308 0.231213
H58   H     H_    0.967159 0.817854 0.462060 0.190490
C69   C     C_3   0.868496 0.220506 0.495685 -0.364041
C70   C     C_3   0.832040 0.174573 0.547249 -0.299939
C71   C     C_3   0.794315 0.024802 0.548674 -0.905266
H59   H     H_    0.751341 0.000556 0.584077 0.252987
H60   H     H_    0.728328 0.001797 0.519289 0.279073
H61   H     H_    0.876485 0.959871 0.544203 0.242027
H62   H     H_    0.910290 0.188872 0.572583 0.206003
H63   H     H_    0.755187 0.236965 0.561540 0.255104
H64   H     H_    0.790901 0.217043 0.469796 0.206973
H65   H     H_    0.923143 0.139822 0.477762 0.185979
C72   C     C_3   0.106785 0.740919 0.535122 -0.411781
C73   C     C_3   0.147296 0.710640 0.587310 -0.322091
C74   C     C_3   0.172409 0.842731 0.615237 -0.889266
H66   H     H_    0.241281 0.906360 0.595999 0.252402
H67   H     H_    0.086264 0.902730 0.619329 0.261023
H68   H     H_    0.208394 0.817633 0.651802 0.261516
H69   H     H_    0.073691 0.652758 0.606275 0.223059
H70   H     H_    0.232178 0.647682 0.587481 0.222211
H71   H     H_    0.181155 0.791559 0.514643 0.231225
H72   H     H_    0.032836 0.817915 0.537876 0.190485

loop_
_geom_bond_atom_site_label_1
_geom_bond_atom_site_label_2
_ccdc_geom_bond_type
C63   H51   S    
C30   C32   A    
C38   O10   S    
C56   H20   S    
C40   O11   S    
C5    C37   A    
C35   H3    S    
C28   C66   S    
C8    C26   A    
C14   C18   A    
C60   C61   S    
C20   H6    S    
C36   N3    A    
C46   H8    S    
C69   C70   S    
C55   H24   S    
C66   C67   S    
C47   C49   A    
C68   H53   S    
C64   C65   S    
C26   H44   S    
C10   C40   A    
C73   C74   S    
C71   H60   S    
C70   C71   S    
C37   O9    S    
C29   C69   S    
C61   H37   S    
C9    C22   A    
C27   C29   A    
C57   H32   S    
C52   H16   S    
O6    Zn2   S    
C9    C39   A    
C33   C36   A    
C49   N1    S    
C3    C18   A    
C60   H39   S    
C34   C35   A    
C48   H10   S    
N4    Zn2   S    
C55   C56   S    
C67   H56   S    
C24   O7    A    
C38   N2    A    
C74   H66   S    
C71   H59   S    
C39   O12   S    
C6    C38   A    
C11   C43   A    
O7    Zn1   S    
C54   H26   S    
N3    Zn1   S    
C24   O6    A    
C62   H36   S    
C51   H18   S    
C48   C50   A    
C73   H70   S    
C56   H21   S    
C41   C43   A    
C42   C44   A    
C41   C49   A    
C61   C62   S    
C47   H9    S    
C55   H23   S    
C51   C52   S    
C45   C47   A    
C10   C21   A    
C68   H54   S    
C46   C48   A    
C40   N2    A    
C13   C19   A    
C50   N2    S    
C57   C58   S    
C14   C20   A    
C71   H61   S    
C4    C6    A    
C44   C51   S    
O5    Zn1   S    
C54   C55   S    
C5    C7    A    
C15   C26   A    
C6    C8    A    
O3    Zn1   S    
O1    Zn1   S    
C57   H33   S    
C1    C32   S    
C43   C54   S    
C35   N4    A    
C23   O8    A    
C65   H46   S    
C67   H55   S    
C3    C9    A    
C53   H13   S    
C64   H49   S    
C29   C31   A    
C63   H50   S    
C58   H30   S    
C59   H28   S    
C16   C18   A    
C58   H31   S    
C25   H43   S    
C42   C50   A    
C70   H63   S    
C69   H65   S    
C12   C46   A    
C30   C72   S    
C53   H14   S    
C20   C22   A    
C73   H69   S    
C33   N4    A    
C34   N3    A    
C11   C45   A    
C33   H1    S    
C4    C17   A    
C4    C10   A    
C65   H45   S    
C42   C57   S    
C72   C73   S    
C2    O3    A    
C7    H11   S    
C62   H34   S    
C19   H5    S    
C16   C25   A    
C15   C17   A    
C66   H58   S    
C19   C21   A    
C27   C32   A    
C28   C31   A    
O2    Zn2   S    
C67   C68   S    
C3    C5    A    
C1    O1    A    
C72   H72   S    
C56   H22   S    
C68   H52   S    
C12   C24   S    
C34   H2    S    
C7    C25   A    
C13   C17   A    
C45   H7    S    
C72   H71   S    
C23   O5    A    
C28   C30   A    
C65   H47   S    
C69   H64   S    
C12   C44   A    
C61   H38   S    
C74   H68   S    
C27   C63   S    
C63   C64   S    
C64   H48   S    
C52   H17   S    
C11   C23   S    
C66   H57   S    
C59   H29   S    
C60   H40   S    
C21   H41   S    
C58   C59   S    
C36   H4    S    
C70   H62   S    
C51   H19   S    
C53   H15   S    
C74   H67   S    
C52   C53   S    
C41   C60   S    
C13   C16   A    
C59   H27   S    
C8    H12   S    
O4    Zn2   S    
C14   C15   A    
C2    C31   S    
C22   H42   S    
C54   H25   S    
O8    Zn2   S    
C1    O4    A    
C37   N1    A    
C2    O2    A    
C62   H35   S    
C39   N1    A    
