data_mof_unit_46440.cif
_audit_creation_date              2012-12-11T15:19:58-0500
_audit_creation_method            fapswitch 2.2
_symmetry_space_group_name_H-M    P1
_symmetry_Int_Tables_number       1
_space_group_crystal_system       triclinic
_cell_length_a                    16.814871
_cell_length_b                    16.814911
_cell_length_c                    42.327075
_cell_angle_alpha                 90.000045
_cell_angle_beta                  89.999844
_cell_angle_gamma                 120.000281
_cell_volume                      10364.1997004

loop_
_atom_site_label
_atom_site_type_symbol
_atom_type_description
_atom_site_fract_x
_atom_site_fract_y
_atom_site_fract_z
_atom_type_partial_charge
C1    C     C_R   0.584514 0.426387 0.794803 0.528490
C2    C     C_R   0.426387 0.584513 0.205197 0.528491
C3    C     C_R   0.997552 0.603162 0.433069 0.427105
C4    C     C_R   0.605622 0.002528 0.066942 0.427110
C5    C     C_R   0.396837 0.394381 0.433067 0.427107
C6    C     C_R   0.603160 0.997559 0.566929 0.427103
C7    C     C_R   0.002406 0.605580 0.933077 0.427100
C8    C     C_R   0.394387 0.396834 0.566933 0.427104
C9    C     C_R   0.603161 0.997578 0.933075 0.427102
C10   C     C_R   0.002473 0.605621 0.566935 0.427106
C11   C     C_R   0.394423 0.396834 0.933076 0.427099
C12   C     C_R   0.976938 0.451217 0.065824 0.421480
C13   C     C_R   0.415486 0.841873 0.294803 0.528491
C14   C     C_R   0.474292 0.023027 0.434179 0.421478
C15   C     C_R   0.548777 0.525730 0.065824 0.421481
C16   C     C_R   0.977010 0.451283 0.434185 0.421478
C17   C     C_R   0.474277 0.023056 0.065824 0.421481
C18   C     C_R   0.548714 0.525721 0.434182 0.421478
C19   C     C_R   0.451288 0.977033 0.565813 0.421475
C20   C     C_R   0.022947 0.474243 0.934190 0.421476
C21   C     C_R   0.525725 0.548713 0.565817 0.421479
C22   C     C_R   0.451284 0.977041 0.934190 0.421477
C23   C     C_R   0.023015 0.474285 0.565819 0.421478
C24   C     C_R   0.158126 0.573613 0.205197 0.528492
C25   C     C_R   0.525753 0.548717 0.934190 0.421478
C26   C     C_R   0.986087 0.454904 0.032911 0.027811
C27   C     C_R   0.468824 0.013879 0.467092 0.027815
C28   C     C_R   0.545091 0.531193 0.032911 0.027810
C29   C     C_R   0.986163 0.454967 0.467098 0.027816
C30   C     C_R   0.468813 0.013906 0.032910 0.027810
C31   C     C_R   0.545034 0.531188 0.467095 0.027816
C32   C     C_R   0.454973 0.986186 0.532900 0.027817
C33   C     C_R   0.013789 0.468766 0.967103 0.027814
C34   C     C_R   0.531191 0.545032 0.532903 0.027816
C35   C     C_R   0.103636 0.523015 0.118297 -0.056794
C36   C     C_R   0.454968 0.986201 0.967103 0.027813
C37   C     C_R   0.013863 0.468816 0.532906 0.027814
C38   C     C_R   0.531230 0.545035 0.967103 0.027815
C39   C     C_R   0.995355 0.532100 0.016649 -0.033739
C40   C     C_R   0.536743 0.004601 0.483356 -0.033739
C41   C     C_R   0.467898 0.463262 0.016648 -0.033739
C42   C     C_R   0.995436 0.532162 0.483362 -0.033738
C43   C     C_R   0.536739 0.004636 0.016648 -0.033739
C44   C     C_R   0.467840 0.463262 0.483359 -0.033739
C45   C     C_R   0.532166 0.995450 0.516636 -0.033739
C46   C     C_R   0.419378 0.896341 0.381704 -0.056785
C47   C     C_R   0.004511 0.536684 0.983369 -0.033738
C48   C     C_R   0.463267 0.467837 0.516640 -0.033739
C49   C     C_R   0.532163 0.995477 0.983368 -0.033738
C50   C     C_R   0.004590 0.536739 0.516642 -0.033739
C51   C     C_R   0.463315 0.467836 0.983368 -0.033738
C52   C     C_R   0.998737 0.678061 0.016563 -0.123818
C53   C     C_R   0.679311 0.001196 0.483446 -0.123821
C54   C     C_R   0.321942 0.320675 0.016561 -0.123819
C55   C     C_R   0.998827 0.678128 0.483451 -0.123822
C56   C     C_R   0.679316 0.001250 0.016561 -0.123820
C57   C     C_R   0.476964 0.580616 0.118296 -0.056794
C58   C     C_R   0.321875 0.320685 0.483449 -0.123824
C59   C     C_R   0.678125 0.998827 0.516548 -0.123823
C60   C     C_R   0.001113 0.679254 0.983461 -0.123825
C61   C     C_R   0.320693 0.321868 0.516551 -0.123823
C62   C     C_R   0.678131 0.998872 0.983459 -0.123825
C63   C     C_R   0.001198 0.679313 0.516553 -0.123821
C64   C     C_R   0.320750 0.321860 0.983459 -0.123824
C65   C     C_R   0.991538 0.385606 0.016183 -0.126851
C66   C     C_R   0.394078 0.008442 0.483818 -0.126850
C67   C     C_R   0.614387 0.605946 0.016183 -0.126851
C68   C     C_R   0.103683 0.523052 0.381706 -0.056785
C69   C     C_R   0.991611 0.385664 0.483824 -0.126851
C70   C     C_R   0.394064 0.008456 0.016183 -0.126850
C71   C     C_R   0.614338 0.605938 0.483821 -0.126850
C72   C     C_R   0.385675 0.991641 0.516174 -0.126851
C73   C     C_R   0.008342 0.394014 0.983827 -0.126849
C74   C     C_R   0.605939 0.614337 0.516177 -0.126849
C75   C     C_R   0.385665 0.991651 0.983828 -0.126849
C76   C     C_R   0.008415 0.394066 0.516180 -0.126851
C77   C     C_R   0.605979 0.614343 0.983827 -0.126849
C78   C     C_3   0.213888 0.497496 0.151697 -0.267922
C79   C     C_R   0.419384 0.896356 0.118296 -0.056794
C80   C     C_3   0.234067 0.458031 0.122141 -0.431357
C81   C     C_3   0.283590 0.786152 0.348299 -0.267941
C82   C     C_3   0.223946 0.765997 0.377854 -0.431332
C83   C     C_3   0.502478 0.716386 0.151696 -0.267923
C84   C     C_3   0.541941 0.776028 0.122139 -0.431349
C85   C     C_3   0.213848 0.497428 0.348297 -0.267944
C86   C     C_3   0.233993 0.457921 0.377849 -0.431320
C87   C     C_3   0.283616 0.786096 0.151696 -0.267923
C88   C     C_3   0.223976 0.765910 0.122138 -0.431358
C89   C     C_3   0.502542 0.716408 0.348299 -0.267939
C90   C     C_R   0.476932 0.580619 0.381706 -0.056783
C91   C     C_3   0.542026 0.776052 0.377855 -0.431334
C92   C     C_3   0.497441 0.213860 0.651703 -0.267947
C93   C     C_3   0.457938 0.234008 0.622150 -0.431318
C94   C     C_3   0.786128 0.283577 0.848297 -0.267952
C95   C     C_3   0.765984 0.223921 0.877849 -0.431308
C96   C     C_3   0.716412 0.502543 0.651701 -0.267942
C97   C     C_3   0.776060 0.542038 0.622147 -0.431327
C98   C     C_3   0.497454 0.213874 0.848298 -0.267954
C99   C     C_3   0.457942 0.234017 0.877850 -0.431306
C100  C     C_3   0.786149 0.283589 0.651701 -0.267944
C101  C     C_R   0.523065 0.103697 0.618293 -0.056786
C102  C     C_3   0.766000 0.223941 0.622147 -0.431326
C103  C     C_3   0.716431 0.502587 0.848294 -0.267955
C104  C     C_3   0.776089 0.542107 0.877845 -0.431304
C105  C     C_R   0.841873 0.415486 0.705197 0.528492
C106  C     C_R   0.896283 0.419362 0.881710 -0.056785
C107  C     C_R   0.580624 0.476932 0.618293 -0.056786
C108  C     C_R   0.523068 0.103706 0.881709 -0.056789
C109  C     C_R   0.896334 0.419378 0.618295 -0.056787
C110  C     C_R   0.580644 0.476946 0.881708 -0.056790
C111  C     C_R   0.141168 0.525770 0.148036 -0.015038
C112  C     C_R   0.384597 0.858835 0.351963 -0.015037
C113  C     C_R   0.474214 0.615394 0.148035 -0.015039
C114  C     C_R   0.141176 0.525765 0.351964 -0.015041
C115  C     C_R   0.384607 0.858824 0.148035 -0.015038
C116  C     C_R   0.573613 0.158127 0.794803 0.528488
C117  C     C_R   0.474219 0.615402 0.351965 -0.015039
C118  C     C_R   0.525774 0.141186 0.648035 -0.015044
C119  C     C_R   0.858802 0.384584 0.851966 -0.015041
C120  C     C_R   0.615406 0.474220 0.648035 -0.015041
C121  C     C_R   0.525778 0.141193 0.851966 -0.015038
C122  C     C_R   0.858831 0.384596 0.648036 -0.015040
C123  C     C_R   0.615420 0.474239 0.851964 -0.015043
C124  C     C_R   0.039504 0.576557 0.169998 -0.171644
C125  C     C_R   0.537064 0.960463 0.330007 -0.171654
C126  C     C_R   0.423449 0.462950 0.169998 -0.171641
C127  C     C_R   0.584514 0.426386 0.705197 0.528493
C128  C     C_R   0.039543 0.576601 0.330010 -0.171655
C129  C     C_R   0.537052 0.960500 0.169998 -0.171641
C130  C     C_R   0.423406 0.462942 0.330008 -0.171652
C131  C     C_R   0.576590 0.039538 0.669989 -0.171654
C132  C     C_R   0.960459 0.537049 0.830014 -0.171657
C133  C     C_R   0.462944 0.423409 0.669991 -0.171652
C134  C     C_R   0.576580 0.039533 0.830013 -0.171654
C135  C     C_R   0.960468 0.537061 0.669993 -0.171653
C136  C     C_R   0.462949 0.423409 0.830014 -0.171659
C137  C     C_R   0.997174 0.564691 0.140349 -0.075218
C138  C     C_R   0.841872 0.415486 0.794803 0.528488
C139  C     C_R   0.567532 0.002779 0.359657 -0.075247
C140  C     C_R   0.435312 0.432486 0.140348 -0.075214
C141  C     C_R   0.997234 0.564757 0.359662 -0.075249
C142  C     C_R   0.567517 0.002829 0.140348 -0.075215
C143  C     C_R   0.435247 0.432474 0.359660 -0.075244
C144  C     C_R   0.564747 0.997232 0.640336 -0.075245
C145  C     C_R   0.002758 0.567509 0.859668 -0.075250
C146  C     C_R   0.432478 0.435251 0.640340 -0.075243
C147  C     C_R   0.564736 0.997229 0.859666 -0.075245
C148  C     C_R   0.002784 0.567528 0.640342 -0.075244
C149  C     C_R   0.573613 0.158127 0.705197 0.528492
C150  C     C_R   0.432491 0.435254 0.859667 -0.075248
C151  C     C_R   0.030249 0.538788 0.114174 0.197148
C152  C     C_R   0.508547 0.969707 0.385831 0.197157
C153  C     C_R   0.461203 0.491461 0.114172 0.197154
C154  C     C_R   0.030315 0.538852 0.385836 0.197159
C155  C     C_R   0.508541 0.969748 0.114173 0.197152
C156  C     C_R   0.461141 0.491456 0.385834 0.197167
C157  C     C_R   0.538854 0.030324 0.614163 0.197164
C158  C     C_R   0.969657 0.508523 0.885841 0.197177
C159  C     C_R   0.491460 0.461143 0.614165 0.197167
C160  C     C_R   0.426387 0.584513 0.294803 0.528490
C161  C     C_R   0.538851 0.030329 0.885839 0.197170
C162  C     C_R   0.969705 0.508545 0.614168 0.197160
C163  C     C_R   0.491480 0.461150 0.885839 0.197170
C164  C     C_R   0.888728 0.445879 0.825790 0.008693
C165  C     C_R   0.557149 0.111267 0.674211 0.008693
C166  C     C_R   0.554120 0.442854 0.825790 0.008688
C167  C     C_R   0.888741 0.445888 0.674213 0.008693
C168  C     C_R   0.557147 0.111267 0.825790 0.008692
C169  C     C_R   0.554115 0.442849 0.674212 0.008696
C170  C     C_R   0.445888 0.888740 0.325787 0.008695
C171  C     C_R   0.415487 0.841874 0.205197 0.528488
C172  C     C_R   0.111253 0.557141 0.174214 0.008693
C173  C     C_R   0.442849 0.554113 0.325788 0.008698
C174  C     C_R   0.445890 0.888746 0.174214 0.008693
C175  C     C_R   0.111266 0.557149 0.325788 0.008692
C176  C     C_R   0.442856 0.554111 0.174214 0.008695
C177  C     C_R   0.995516 0.604442 0.033534 0.035944
C178  C     C_R   0.608920 0.004425 0.466473 0.035948
C179  C     C_R   0.395558 0.391077 0.033533 0.035942
C180  C     C_R   0.995603 0.604510 0.466478 0.035947
C181  C     C_R   0.608920 0.004474 0.033532 0.035942
C182  C     C_R   0.158128 0.573614 0.294803 0.528491
C183  C     C_R   0.395491 0.391082 0.466476 0.035948
C184  C     C_R   0.604510 0.995610 0.533520 0.035946
C185  C     C_R   0.004344 0.608867 0.966487 0.035943
C186  C     C_R   0.391088 0.395487 0.533524 0.035948
C187  C     C_R   0.604511 0.995641 0.966485 0.035942
C188  C     C_R   0.004422 0.608919 0.533526 0.035946
C189  C     C_R   0.391135 0.395484 0.966485 0.035944
C190  C     C_R   0.997465 0.603089 0.066943 0.427110
C191  C     C_R   0.605622 0.002474 0.433064 0.427107
C192  C     C_R   0.396910 0.394376 0.066942 0.427111
Cr1   Cr    Cr6+3 0.530290 0.262330 0.750000 1.006620
Cr2   Cr    Cr6+3 0.732040 0.469710 0.750000 1.006617
Cr3   Cr    Cr6+3 0.737670 0.267960 0.750000 1.006621
Cr4   Cr    Cr6+3 0.262330 0.530290 0.250000 1.006626
Cr5   Cr    Cr6+3 0.469710 0.732040 0.250000 1.006631
Cr6   Cr    Cr6+3 0.267960 0.737670 0.250000 1.006631
H1    H     H_    0.013797 0.340104 0.971767 0.166250
H2    H     H_    0.340148 0.013907 0.028241 0.166251
H3    H     H_    0.809911 0.252140 0.830327 0.197313
H4    H     H_    0.758377 0.487519 0.604188 0.144273
H5    H     H_    0.768859 0.599159 0.612108 0.185741
H6    H     H_    0.848964 0.571521 0.628649 0.184713
H7    H     H_    0.747860 0.557767 0.669670 0.197309
H8    H     H_    0.720943 0.442307 0.659930 0.145329
H9    H     H_    0.400828 0.169690 0.887889 0.185751
H10   H     H_    0.512455 0.270863 0.895811 0.144282
H11   H     H_    0.428448 0.277425 0.871345 0.184720
H12   H     H_    0.557693 0.278644 0.840072 0.145328
H13   H     H_    0.986159 0.326299 0.471765 0.166248
H14   H     H_    0.442237 0.190099 0.830327 0.197313
H15   H     H_    0.729169 0.241626 0.604187 0.144278
H16   H     H_    0.830324 0.231142 0.612110 0.185737
H17   H     H_    0.722575 0.151038 0.628650 0.184716
H18   H     H_    0.809925 0.252143 0.669671 0.197307
H19   H     H_    0.721379 0.279054 0.659930 0.145335
H20   H     H_    0.768865 0.599214 0.887884 0.185748
H21   H     H_    0.758435 0.487597 0.895805 0.144292
H22   H     H_    0.848993 0.571614 0.871338 0.184722
H23   H     H_    0.720978 0.442359 0.840066 0.145354
H24   H     H_    0.673750 0.659865 0.028241 0.166249
H25   H     H_    0.747858 0.557807 0.830323 0.197309
H26   H     H_    0.984256 0.584278 0.810251 0.125179
H27   H     H_    0.600027 0.015747 0.689752 0.125182
H28   H     H_    0.415718 0.399968 0.810252 0.125182
H29   H     H_    0.984250 0.584287 0.689757 0.125183
H30   H     H_    0.600012 0.015736 0.810250 0.125179
H31   H     H_    0.415720 0.399974 0.689756 0.125181
H32   H     H_    0.584291 0.984240 0.310243 0.125187
H33   H     H_    0.326313 0.986197 0.528232 0.166247
H34   H     H_    0.015718 0.599992 0.189763 0.125187
H35   H     H_    0.399970 0.415717 0.310244 0.125182
H36   H     H_    0.584271 0.984292 0.189764 0.125184
H37   H     H_    0.015761 0.600047 0.310248 0.125187
H38   H     H_    0.400024 0.415732 0.189764 0.125182
H39   H     H_    0.001206 0.735849 0.971207 0.165926
H40   H     H_    0.734622 0.998728 0.528804 0.165927
H41   H     H_    0.264157 0.265356 0.971205 0.165926
H42   H     H_    0.001293 0.735907 0.528809 0.165928
H43   H     H_    0.734631 0.998775 0.971204 0.165926
H44   H     H_    0.659887 0.673711 0.971768 0.166250
H45   H     H_    0.264100 0.265367 0.528807 0.165926
H46   H     H_    0.735902 0.001285 0.471191 0.165928
H47   H     H_    0.998636 0.734556 0.028820 0.165932
H48   H     H_    0.265375 0.264090 0.471194 0.165926
H49   H     H_    0.735911 0.001348 0.028817 0.165931
H50   H     H_    0.998733 0.734627 0.471196 0.165927
H51   H     H_    0.265449 0.264077 0.028818 0.165931
H52   H     H_    0.059200 0.637057 0.862340 0.167413
H53   H     H_    0.577854 0.940792 0.637666 0.167428
H54   H     H_    0.362942 0.422143 0.862339 0.167419
H55   H     H_    0.013867 0.340153 0.528239 0.166248
H56   H     H_    0.059221 0.637079 0.637673 0.167429
H57   H     H_    0.577839 0.940786 0.862337 0.167415
H58   H     H_    0.362929 0.422143 0.637670 0.167423
H59   H     H_    0.637086 0.059210 0.362326 0.167436
H60   H     H_    0.940724 0.577788 0.137683 0.167438
H61   H     H_    0.422136 0.362925 0.362329 0.167427
H62   H     H_    0.637060 0.059282 0.137682 0.167432
H63   H     H_    0.940800 0.577875 0.362333 0.167434
H64   H     H_    0.422225 0.362943 0.137682 0.167432
H65   H     H_    0.130578 0.507988 0.097417 0.130078
H66   H     H_    0.326300 0.986197 0.971768 0.166250
H67   H     H_    0.377403 0.869401 0.402584 0.130074
H68   H     H_    0.491980 0.622581 0.097415 0.130068
H69   H     H_    0.130633 0.508025 0.402585 0.130071
H70   H     H_    0.377419 0.869411 0.097415 0.130070
H71   H     H_    0.491953 0.622592 0.402586 0.130065
H72   H     H_    0.508046 0.130654 0.597414 0.130068
H73   H     H_    0.869320 0.377387 0.902588 0.130053
H74   H     H_    0.622596 0.491951 0.597414 0.130063
H75   H     H_    0.508056 0.130668 0.902588 0.130057
H76   H     H_    0.869388 0.377405 0.597415 0.130069
H77   H     H_    0.659854 0.673702 0.528236 0.166249
H78   H     H_    0.622623 0.491967 0.902586 0.130061
H79   H     H_    0.169760 0.400879 0.112106 0.185723
H80   H     H_    0.270863 0.512557 0.104181 0.144255
H81   H     H_    0.277535 0.428602 0.128640 0.184696
H82   H     H_    0.278641 0.557752 0.159926 0.145290
H83   H     H_    0.190141 0.442274 0.169666 0.197319
H84   H     H_    0.241642 0.729174 0.395814 0.144275
H85   H     H_    0.231137 0.830317 0.387891 0.185735
H86   H     H_    0.151043 0.722564 0.371354 0.184718
H87   H     H_    0.252140 0.809926 0.330330 0.197306
H88   H     H_    0.340168 0.013898 0.471759 0.166249
H89   H     H_    0.279058 0.721384 0.340070 0.145335
H90   H     H_    0.599094 0.768876 0.112103 0.185728
H91   H     H_    0.487414 0.758294 0.104179 0.144251
H92   H     H_    0.571372 0.848927 0.128637 0.184698
H93   H     H_    0.442218 0.720875 0.159924 0.145276
H94   H     H_    0.557700 0.747866 0.169665 0.197323
H95   H     H_    0.270838 0.512435 0.395809 0.144282
H96   H     H_    0.169666 0.400806 0.387888 0.185741
H97   H     H_    0.277404 0.428428 0.371345 0.184716
H98   H     H_    0.190063 0.442206 0.330327 0.197308
H99   H     H_    0.986089 0.326240 0.028241 0.166250
H100  H     H_    0.278621 0.557660 0.340068 0.145344
H101  H     H_    0.231124 0.830213 0.112102 0.185725
H102  H     H_    0.241715 0.729120 0.104178 0.144248
H103  H     H_    0.151077 0.722435 0.128636 0.184698
H104  H     H_    0.279128 0.721348 0.159925 0.145279
H105  H     H_    0.252134 0.809838 0.169663 0.197322
H106  H     H_    0.487502 0.758361 0.395812 0.144270
H107  H     H_    0.599149 0.768857 0.387894 0.185742
H108  H     H_    0.571501 0.848955 0.371353 0.184713
H109  H     H_    0.557772 0.747859 0.330332 0.197307
H110  H     H_    0.673701 0.659853 0.471762 0.166249
H111  H     H_    0.442308 0.720939 0.340068 0.145333
H112  H     H_    0.512454 0.270851 0.604191 0.144278
H113  H     H_    0.400822 0.169682 0.612111 0.185749
H114  H     H_    0.428447 0.277420 0.628654 0.184719
H115  H     H_    0.442218 0.190076 0.669673 0.197311
H116  H     H_    0.557675 0.278630 0.659932 0.145341
H117  H     H_    0.830313 0.231140 0.887889 0.185751
H118  H     H_    0.729134 0.241584 0.895809 0.144281
H119  H     H_    0.722581 0.151018 0.871344 0.184717
H120  H     H_    0.721357 0.279040 0.840070 0.145337
N1    N     N_R   0.992984 0.528559 0.082610 -0.375536
N2    N     N_R   0.528628 0.993083 0.917406 -0.375535
N3    N     N_R   0.006963 0.535579 0.582603 -0.375535
N4    N     N_R   0.464457 0.471370 0.917407 -0.375536
N5    N     N_R   0.535582 0.006967 0.417395 -0.375536
N6    N     N_R   0.471437 0.464428 0.082609 -0.375536
N7    N     N_R   0.993063 0.528629 0.417401 -0.375535
N8    N     N_R   0.535576 0.007012 0.082609 -0.375536
N9    N     N_R   0.471367 0.464425 0.417399 -0.375537
N10   N     N_R   0.528630 0.993075 0.582597 -0.375537
N11   N     N_R   0.006902 0.535544 0.917408 -0.375536
N12   N     N_R   0.464430 0.471367 0.582600 -0.375538
O1    O     O_R   0.509640 0.171340 0.784000 -0.508835
O2    O     O_R   0.171340 0.509640 0.216000 -0.508825
O3    O     O_R   0.490360 0.661700 0.284000 -0.508831
O4    O     O_R   0.338300 0.828660 0.216000 -0.508820
O5    O     O_R   0.539230 0.345420 0.781810 -0.501520
O6    O     O_R   0.806190 0.460770 0.718190 -0.501523
O7    O     O_R   0.654580 0.193810 0.781810 -0.501520
O8    O     O_R   0.539230 0.345420 0.718190 -0.501524
O9    O     O_R   0.806190 0.460770 0.781810 -0.501522
O10   O     O_R   0.654580 0.193810 0.718190 -0.501520
O11   O     O_R   0.345420 0.539230 0.281810 -0.501525
O12   O     O_R   0.661700 0.490360 0.716000 -0.508834
O13   O     O_R   0.460770 0.806190 0.218190 -0.501521
O14   O     O_R   0.193810 0.654580 0.281810 -0.501522
O15   O     O_R   0.345420 0.539230 0.218190 -0.501521
O16   O     O_R   0.460770 0.806190 0.281810 -0.501525
O17   O     O_R   0.193810 0.654580 0.218190 -0.501520
O18   O     O_3   0.666667 0.333333 0.750000 -0.239445
O19   O     O_3   0.333333 0.666667 0.250000 -0.239453
O20   O     O_2   0.006373 0.669136 0.081929 -0.529136
O21   O     O_2   0.662757 0.993555 0.418080 -0.529171
O22   O     O_2   0.330865 0.337233 0.081927 -0.529132
O23   O     O_R   0.828660 0.338300 0.784000 -0.508835
O24   O     O_2   0.006465 0.669212 0.418085 -0.529176
O25   O     O_2   0.662761 0.993620 0.081926 -0.529133
O26   O     O_2   0.330785 0.337244 0.418083 -0.529173
O27   O     O_2   0.669207 0.006465 0.581914 -0.529173
O28   O     O_2   0.993497 0.662721 0.918095 -0.529179
O29   O     O_2   0.337251 0.330783 0.581917 -0.529173
O30   O     O_2   0.669210 0.006484 0.918092 -0.529171
O31   O     O_2   0.993559 0.662758 0.581919 -0.529169
O32   O     O_2   0.337285 0.330782 0.918093 -0.529179
O33   O     O_2   0.959973 0.380942 0.079921 -0.504841
O34   O     O_R   0.509640 0.171340 0.716000 -0.508837
O35   O     O_2   0.420995 0.040005 0.420081 -0.504854
O36   O     O_2   0.619050 0.579043 0.079921 -0.504838
O37   O     O_2   0.960034 0.381007 0.420088 -0.504858
O38   O     O_2   0.420969 0.040022 0.079921 -0.504837
O39   O     O_2   0.618988 0.579024 0.420084 -0.504856
O40   O     O_2   0.381013 0.960063 0.579910 -0.504861
O41   O     O_2   0.039924 0.420945 0.920092 -0.504860
O42   O     O_2   0.579028 0.618988 0.579914 -0.504857
O43   O     O_2   0.381009 0.960066 0.920092 -0.504859
O44   O     O_2   0.039991 0.420985 0.579916 -0.504857
O45   O     O_R   0.661700 0.490360 0.784000 -0.508842
O46   O     O_2   0.579049 0.618994 0.920092 -0.504862
O47   O     O_R   0.828660 0.338300 0.716000 -0.508834
O48   O     O_R   0.171340 0.509640 0.284000 -0.508837
O49   O     O_R   0.490360 0.661700 0.216000 -0.508823
O50   O     O_R   0.338300 0.828660 0.284000 -0.508833

loop_
_geom_bond_atom_site_label_1
_geom_bond_atom_site_label_2
_ccdc_geom_bond_type
C2    O15   A    
C72   H33   S    
C46   C112  A    
C29   C42   A    
C98   C121  S    
C55   C180  A    
Cr4   O19   S    
Cr1   O1    S    
C53   H46   S    
C97   H4    S    
C171  O13   A    
C11   O32   D    
C182  O14   A    
C150  C163  A    
C136  C166  A    
C161  N2    S    
C85   C114  S    
C115  C174  A    
C141  C154  A    
C25   O46   D    
Cr6   O50   S    
C139  C152  A    
C111  C172  A    
C32   C45   A    
C103  H25   S    
C66   C72   A    
C65   H99   S    
C20   O41   D    
C69   H13   S    
C87   C115  S    
Cr6   O17   S    
C23   N3    Am   
C58   C61   A    
C84   H90   S    
C103  C123  S    
C17   C30   A    
C9    O30   D    
C19   C32   A    
C29   C69   A    
C8    O29   D    
C90   C117  A    
C124  C137  A    
C116  O1    A    
C108  H75   S    
C4    O25   D    
C83   H93   S    
C129  C142  A    
C23   C37   A    
C85   H98   S    
C86   H97   S    
C99   H9    S    
C58   C183  A    
C127  O12   A    
C110  C123  A    
C102  H15   S    
C124  C172  A    
C110  C163  A    
C4    N8    Am   
C143  H61   S    
C88   H101  S    
C6    N10   Am   
C124  H34   S    
C20   C33   A    
C33   C73   A    
C3    N7    Am   
C80   H79   S    
C33   C47   A    
C56   C62   A    
C30   C43   A    
C34   C48   A    
C95   H119  S    
C97   H6    S    
C107  C120  A    
C39   C47   A    
C117  C173  A    
C121  C168  A    
C100  H18   S    
C128  C175  A    
C70   H2    S    
C122  C167  A    
C107  H74   S    
C141  H63   S    
C71   H110  S    
C138  O23   A    
C150  H54   S    
C22   C36   A    
C93   H112  S    
C130  H35   S    
C148  C162  A    
C17   N8    Am   
C27   C66   A    
C103  H23   S    
C37   C50   A    
C15   O36   D    
C19   N10   Am   
C46   H67   S    
C147  H57   S    
C54   H51   S    
C79   C155  A    
C84   H92   S    
C105  O6    A    
C98   C99   S    
C116  C168  S    
C18   C31   A    
C41   C51   A    
C44   C48   A    
C45   C184  A    
C61   H45   S    
C148  H56   S    
C79   C115  A    
C87   H105  S    
C160  C173  S    
C28   C41   A    
C67   C77   A    
C82   H86   S    
C104  H21   S    
C85   C86   S    
Cr1   O8    S    
C86   H95   S    
C135  H29   S    
C101  C118  A    
Cr3   O18   S    
C95   H118  S    
C78   C80   S    
C120  C169  A    
C149  O34   A    
C24   O17   A    
C69   C76   A    
C10   N3    Am   
C154  N7    S    
C92   C118  S    
C52   C177  A    
C68   H69   S    
C52   C60   A    
C16   N7    Am   
C55   C63   A    
C80   H81   S    
C10   C188  A    
C94   H120  S    
C78   C111  S    
Cr1   O5    S    
C4    C181  A    
C89   C91   S    
C126  H38   S    
C109  H76   S    
C31   C71   A    
C106  H73   S    
C5    N9    Am   
C140  H64   S    
C192  N6    Am   
C84   H91   S    
C93   H114  S    
C22   N2    Am   
C191  O21   D    
C138  O9    A    
C66   H88   S    
C149  C165  S    
C42   C180  A    
C10   O31   D    
C57   C113  A    
C38   C51   A    
C152  N5    S    
C8    C186  A    
C43   C181  A    
C12   C26   A    
C22   O43   D    
C3    C180  A    
C78   H83   S    
C76   H55   S    
C36   C75   A    
C25   C38   A    
C9    N2    Am   
C83   C84   S    
Cr5   O13   S    
C81   C112  S    
C27   C40   A    
C79   H70   S    
C2    O49   A    
Cr4   O11   S    
C44   C183  A    
C42   C50   A    
C88   H102  S    
Cr3   O47   S    
C144  H53   S    
C89   C117  S    
C57   H68   S    
C55   H50   S    
C134  C168  A    
Cr6   O4    S    
C90   C156  A    
C82   H84   S    
C91   H107  S    
C192  O22   D    
C62   H43   S    
C99   H11   S    
C6    O27   D    
C92   H115  S    
C159  N12   S    
Cr2   O18   S    
C177  C190  A    
Cr5   O3    S    
C7    C185  A    
C50   C188  A    
C100  H19   S    
C190  N1    Am   
C127  C169  S    
C108  C161  A    
C118  C165  A    
C149  O10   A    
C129  H36   S    
C96   H7    S    
C54   C64   A    
C1    C166  S    
Cr3   O7    S    
Cr2   O45   S    
C190  O20   D    
C24   C172  S    
C36   C49   A    
C81   H87   S    
C131  C165  A    
C70   C75   A    
C12   N1    Am   
C135  C167  A    
C24   O2    A    
C60   H39   S    
C144  C157  A    
C21   N12   Am   
Cr2   O12   S    
C87   C88   S    
C60   C185  A    
C106  C119  A    
Cr4   O2    S    
Cr2   O6    S    
C83   C113  S    
C108  C121  A    
C52   H47   S    
C8    N12   Am   
C64   C189  A    
C105  O47   A    
C32   C72   A    
C134  C147  A    
C109  C162  A    
C1    O5    A    
C26   C39   A    
C56   C181  A    
C74   H77   S    
C54   C179  A    
C35   H65   S    
C18   N9    Am   
C133  C169  A    
C39   C177  A    
C123  C166  A    
C102  H16   S    
C112  C170  A    
C116  O7    A    
C81   H89   S    
C14   C27   A    
C47   C185  A    
C128  C141  A    
C51   C189  A    
C140  C153  A    
Cr6   O14   S    
C128  H37   S    
C101  C157  A    
C171  O4    A    
C80   H80   S    
C3    O24   D    
C35   C151  A    
C97   H5    S    
C15   N6    Am   
C171  C174  S    
C41   C179  A    
C130  C173  A    
C40   C45   A    
C56   H49   S    
C58   H48   S    
C59   H40   S    
C147  C161  A    
C63   H42   S    
C21   C34   A    
C160  O3    A    
C98   H14   S    
C16   O37   D    
C11   C189  A    
C134  H30   S    
C119  C164  A    
C14   O35   D    
C132  C164  A    
C93   H113  S    
C107  C159  A    
C49   C187  A    
C157  N10   S    
C23   O44   D    
C151  N1    S    
C182  O48   A    
C7    N11   Am   
C125  C170  A    
C104  H20   S    
C153  N6    S    
C34   C74   A    
C113  C176  A    
C114  C175  A    
C37   C76   A    
C191  N5    Am   
C129  C174  A    
C90   H71   S    
C132  C145  A    
Cr4   O48   S    
C158  N11   S    
C75   H66   S    
C132  H26   S    
C88   H103  S    
C7    O28   D    
C71   C74   A    
C83   H94   S    
C38   C77   A    
C86   H96   S    
C99   H10   S    
Cr4   O15   S    
Cr2   O9    S    
C95   H117  S    
C145  C158  A    
C15   C28   A    
C155  N8    S    
C57   C153  A    
C21   O42   D    
C139  H59   S    
C18   O39   D    
C92   C93   S    
C94   C95   S    
C133  H31   S    
Cr5   O16   S    
C6    C184  A    
C103  C104  S    
C13   O50   A    
C133  C146  A    
C5    C183  A    
C131  C144  A    
C62   C187  A    
C46   C152  A    
C17   O38   D    
C5    O26   D    
C53   C178  A    
C81   C82   S    
C53   C59   A    
C137  H60   S    
C125  C139  A    
C98   H12   S    
C126  C140  A    
C160  O11   A    
C68   C154  A    
C89   H109  S    
C13   O16   A    
C109  C122  A    
Cr3   O23   S    
C65   C73   A    
C104  H22   S    
C64   H41   S    
Cr1   O34   S    
C2    C176  S    
C25   N4    Am   
Cr1   O18   S    
C142  C155  A    
C30   C70   A    
C127  O8    A    
C35   C111  A    
C82   H85   S    
C20   N11   Am   
Cr5   O19   S    
C92   H116  S    
C31   C44   A    
Cr5   O49   S    
C77   H44   S    
C145  H52   S    
C28   C67   A    
C125  H32   S    
C94   H3    S    
C43   C49   A    
C146  C159  A    
C16   C29   A    
C106  C158  A    
C105  C167  S    
C67   H24   S    
C48   C186  A    
C179  C192  A    
C12   O33   D    
C94   C119  S    
C131  H27   S    
C96   H8    S    
C85   H100  S    
C96   C97   S    
C100  C102  S    
Cr3   O10   S    
C142  H62   S    
C130  C143  A    
C175  C182  S    
C40   C178  A    
C162  N3    S    
C13   C170  S    
C91   H106  S    
C135  C148  A    
Cr6   O19   S    
C126  C176  A    
C1    O45   A    
C136  H28   S    
C163  N4    S    
C146  H58   S    
C26   C65   A    
C96   C120  S    
C9    C187  A    
C89   H111  S    
C136  C150  A    
C14   N5    Am   
C101  H72   S    
C11   N4    Am   
C78   H82   S    
C178  C191  A    
C143  C156  A    
C73   H1    S    
C61   C186  A    
C100  C122  S    
C59   C184  A    
C156  N9    S    
C91   H108  S    
C102  H17   S    
C110  H78   S    
C63   C188  A    
C87   H104  S    
C137  C151  A    
C138  C164  S    
C19   O40   D    
C68   C114  A    
