data_mof_unit_66350.cif
_audit_creation_date              2012-12-10T18:16:15-0500
_audit_creation_method            fapswitch 2.2
_symmetry_space_group_name_H-M    P1
_symmetry_Int_Tables_number       1
_space_group_crystal_system       triclinic
_cell_length_a                    42.374302
_cell_length_b                    29.2097
_cell_length_c                    29.201132
_cell_angle_alpha                 90.009485
_cell_angle_beta                  133.91831
_cell_angle_gamma                 89.807193
_cell_volume                      26034.9115213

loop_
_atom_site_label
_atom_site_type_symbol
_atom_type_description
_atom_site_fract_x
_atom_site_fract_y
_atom_site_fract_z
_atom_type_partial_charge
C1    C     C_R   0.499970 0.586678 0.499992 0.906247
C2    C     C_1   0.835116 0.987543 0.334568 -0.098503
C3    C     C_3   0.758777 0.944108 0.247351 0.030166
C4    C     C_1   0.372803 0.493679 0.373072 -0.195341
C5    C     C_1   0.872800 0.993705 0.373063 -0.195411
C6    C     C_1   0.121527 0.498734 0.120218 -0.208129
C7    C     C_1   0.621523 0.998734 0.120211 -0.208106
C8    C     C_3   0.262111 0.500474 0.300612 -0.175156
C9    C     C_3   0.762089 0.000198 0.300652 -0.175051
C10   C     C_3   0.289478 0.484231 0.287155 0.128352
C11   C     C_3   0.789473 0.984285 0.287099 0.128342
C12   C     C_R   0.282630 0.543180 0.210184 0.121490
C13   C     C_1   0.159561 0.495462 0.156994 -0.068941
C14   C     C_R   0.277498 0.590981 0.204575 -0.150501
C15   C     C_R   0.296454 0.616998 0.188741 -0.132296
C16   C     C_R   0.320599 0.595528 0.178439 -0.108162
C17   C     C_R   0.325807 0.547977 0.183904 -0.130125
C18   C     C_R   0.306875 0.521849 0.199663 -0.148538
C19   C     C_R   0.268824 0.394398 0.248249 0.116278
C20   C     C_R   0.233946 0.363739 0.207325 -0.157798
C21   C     C_R   0.242140 0.317481 0.206553 -0.133585
C22   C     C_R   0.285210 0.301460 0.246584 -0.104680
C23   C     C_R   0.320123 0.331697 0.287387 -0.133651
C24   C     C_1   0.659556 0.995467 0.156969 -0.068967
C25   C     C_R   0.312061 0.377999 0.288291 -0.154598
C26   C     C_R   0.782615 0.043765 0.210564 0.121443
C27   C     C_R   0.777317 0.091547 0.205058 -0.150487
C28   C     C_R   0.796257 0.117845 0.189410 -0.132309
C29   C     C_R   0.820554 0.096672 0.179194 -0.108181
C30   C     C_R   0.825922 0.049139 0.184546 -0.130149
C31   C     C_R   0.807002 0.022731 0.200111 -0.148563
C32   C     C_R   0.768850 0.894593 0.247511 0.116323
C33   C     C_R   0.733978 0.863962 0.206420 -0.157796
C34   C     C_R   0.742178 0.817778 0.205296 -0.133583
C35   C     C_1   0.500013 0.637258 0.500009 -0.222213
C36   C     C_R   0.785250 0.801806 0.245131 -0.104680
C37   C     C_R   0.820158 0.832021 0.286092 -0.133636
C38   C     C_R   0.812089 0.878249 0.287352 -0.154641
C39   C     C_1   0.499791 0.362744 0.499773 -0.226960
C40   C     C_1   0.000013 0.137258 0.500008 -0.222196
C41   C     C_1   0.999792 0.862744 0.499773 -0.226954
C42   C     C_1   0.500063 0.679393 0.500049 0.002880
C43   C     C_1   0.499684 0.320610 0.499651 -0.000155
C44   C     C_1   0.000063 0.179394 0.500048 0.002887
C45   C     C_R   0.499931 0.413323 0.499948 0.909902
C46   C     C_1   0.999685 0.820610 0.499652 -0.000118
C47   C     C_1   0.500132 0.729126 0.500116 0.005027
C48   C     C_1   0.499600 0.270878 0.499566 0.002693
C49   C     C_1   0.000131 0.229126 0.500115 0.005025
C50   C     C_1   0.999601 0.770878 0.499566 0.002735
C51   C     C_1   0.500183 0.771261 0.500173 0.004857
C52   C     C_1   0.499575 0.228743 0.499550 0.003547
C53   C     C_1   0.000183 0.271261 0.500173 0.004852
C54   C     C_1   0.999576 0.728743 0.499550 0.003570
C55   C     C_1   0.500218 0.820994 0.500219 0.003223
C56   C     C_R   0.999970 0.086679 0.499992 0.906267
C57   C     C_1   0.499603 0.179009 0.499595 0.002507
C58   C     C_1   0.000218 0.320994 0.500219 0.003218
C59   C     C_1   0.999604 0.679009 0.499595 0.002520
C60   C     C_1   0.500194 0.863130 0.500206 -0.215539
C61   C     C_1   0.499681 0.136872 0.499689 -0.216037
C62   C     C_1   0.000194 0.363130 0.500206 -0.215543
C63   C     C_1   0.999681 0.636872 0.499689 -0.216028
C64   C     C_R   0.416948 0.501161 0.417104 0.948118
C65   C     C_R   0.916949 0.001166 0.417104 0.948184
C66   C     C_1   0.635828 0.500057 0.635540 -0.222626
C67   C     C_R   0.999932 0.913323 0.499948 0.909921
C68   C     C_1   0.135828 0.000057 0.635540 -0.222628
C69   C     C_1   0.677111 0.500110 0.676804 0.015438
C70   C     C_1   0.177111 0.000110 0.676804 0.015437
C71   C     C_1   0.726254 0.500173 0.726000 0.002377
C72   C     C_1   0.226254 0.000173 0.726000 0.002377
C73   C     C_1   0.767539 0.500219 0.767355 0.002354
C74   C     C_1   0.267539 0.000219 0.767355 0.002354
C75   C     C_1   0.816682 0.500254 0.816594 0.015369
C76   C     C_1   0.316682 0.000254 0.816594 0.015370
C77   C     C_1   0.857966 0.500238 0.857958 -0.222770
C78   C     C_3   0.205058 0.490660 0.201893 0.182612
C79   C     C_1   0.357966 0.000238 0.857958 -0.222770
C80   C     C_R   0.994864 0.500002 0.081680 0.907957
C81   C     C_R   0.494864 0.000002 0.081680 0.907928
C82   C     C_R   0.076804 0.499826 0.077093 0.951693
C83   C     C_R   0.576803 0.999826 0.077105 0.951706
C84   C     C_R   0.992983 0.499997 0.906355 0.909146
C85   C     C_R   0.492983 0.999997 0.906355 0.909170
C86   C     C_R   0.907996 0.500093 0.908075 0.891972
C87   C     C_R   0.407996 0.000094 0.908075 0.891973
C88   C     C_R   0.585800 0.500000 0.585714 0.892216
C89   C     C_3   0.705051 0.990679 0.201851 0.182551
C90   C     C_R   0.085800 0.000001 0.585714 0.892219
C91   C     C_R   0.499046 1.000000 0.412839 0.898153
C92   C     C_R   0.999046 0.499999 0.412839 0.898148
C93   C     C_R   0.500046 0.913711 0.500070 0.898034
C94   C     C_R   0.499865 0.086290 0.499890 0.897980
C95   C     C_R   0.000045 0.413711 0.500070 0.898032
C96   C     C_R   0.999865 0.586290 0.499890 0.897980
C97   C     C_R   0.500800 0.000000 0.587107 0.898064
C98   C     C_R   0.000800 0.500000 0.587107 0.898066
C99   C     C_1   0.995597 0.500005 0.132981 -0.223401
C100  C     C_3   0.231665 0.474268 0.187366 -0.252345
C101  C     C_1   0.495597 0.000005 0.132981 -0.223388
C102  C     C_1   0.996217 0.500005 0.175733 0.002793
C103  C     C_1   0.496217 0.000005 0.175733 0.002796
C104  C     C_1   0.996942 0.500004 0.226179 0.005383
C105  C     C_1   0.496942 0.000004 0.226179 0.005389
C106  C     C_1   0.497534 0.000003 0.268903 0.005077
C107  C     C_1   0.997535 0.500003 0.268903 0.005069
C108  C     C_1   0.498184 0.000002 0.319275 0.003055
C109  C     C_1   0.998184 0.500002 0.319275 0.003047
C110  C     C_1   0.498654 0.000001 0.361878 -0.215805
C111  C     C_3   0.731676 0.974620 0.187226 -0.252255
C112  C     C_1   0.998654 0.500001 0.361878 -0.215812
C113  C     C_1   0.994061 0.499988 0.856838 -0.223228
C114  C     C_1   0.494061 0.999988 0.856838 -0.223240
C115  C     C_3   0.235332 0.531265 0.240896 -0.190746
C116  C     C_3   0.230720 0.459875 0.260627 -0.188585
C117  C     C_3   0.735308 0.031230 0.241161 -0.190732
C118  C     C_3   0.730715 0.959653 0.260358 -0.188643
C119  C     C_1   0.995310 0.499986 0.815956 0.003700
C120  C     C_1   0.495310 0.999986 0.815956 0.003695
C121  C     C_1   0.996963 0.499988 0.767884 0.005819
C122  C     C_1   0.335121 0.487499 0.334599 -0.098454
C123  C     C_1   0.496963 0.999988 0.767884 0.005813
C124  C     C_1   0.498349 0.999990 0.727146 0.005492
C125  C     C_1   0.998349 0.499990 0.727146 0.005498
C126  C     C_1   0.499801 0.999994 0.678865 0.003925
C127  C     C_1   0.999801 0.499994 0.678865 0.003931
C128  C     C_1   0.500647 0.999997 0.637566 -0.215478
C129  C     C_1   0.000647 0.499997 0.637566 -0.215473
C130  C     C_3   0.262943 0.514557 0.227886 0.046315
C131  C     C_3   0.258765 0.443998 0.247715 0.030184
C132  C     C_3   0.762937 0.014849 0.228051 0.046298
H1    H     H_    0.223896 0.566637 0.236742 0.131420
H2    H     H_    0.292471 0.653836 0.184538 0.132196
H3    H     H_    0.335280 0.615732 0.166255 0.127531
H4    H     H_    0.344546 0.531364 0.175987 0.131308
H5    H     H_    0.311228 0.485023 0.203931 0.130629
H6    H     H_    0.200383 0.375704 0.176006 0.132065
H7    H     H_    0.215089 0.294061 0.174905 0.131773
H8    H     H_    0.291531 0.265643 0.245962 0.127815
H9    H     H_    0.353490 0.319257 0.318348 0.134962
H10   H     H_    0.339683 0.400521 0.320184 0.135615
H11   H     H_    0.758745 0.108594 0.212956 0.120792
H12   H     H_    0.215958 0.437672 0.272440 0.140192
H13   H     H_    0.792135 0.154668 0.185273 0.132200
H14   H     H_    0.835220 0.117094 0.167152 0.127557
H15   H     H_    0.844770 0.032756 0.176683 0.131326
H16   H     H_    0.811475 0.985920 0.204286 0.130669
H17   H     H_    0.700415 0.875894 0.175249 0.132059
H18   H     H_    0.715130 0.794380 0.173525 0.131782
H19   H     H_    0.791576 0.766046 0.244234 0.127810
H20   H     H_    0.853527 0.819621 0.316899 0.134941
H21   H     H_    0.839705 0.900758 0.319353 0.135612
H22   H     H_    0.723861 0.066538 0.237273 0.131412
H23   H     H_    0.715953 0.937236 0.271991 0.140191
H24   H     H_    0.217818 0.464045 0.139799 0.144465
H25   H     H_    0.717843 0.964647 0.139593 0.144509
H26   H     H_    0.275649 0.510809 0.347968 0.147424
H27   H     H_    0.775616 0.010278 0.348079 0.147428
H28   H     H_    0.259059 0.608259 0.212557 0.120782
O1    O     O_R   0.500400 0.563130 0.536080 -0.598056
O2    O     O_R   0.963990 0.500000 0.400890 -0.594406
O3    O     O_R   0.534410 0.000000 0.471310 -0.593897
O4    O     O_R   0.034410 0.500000 0.471310 -0.593897
O5    O     O_R   0.464750 0.936830 0.464780 -0.594326
O6    O     O_R   0.464750 0.063170 0.464780 -0.594970
O7    O     O_R   0.964750 0.436830 0.464780 -0.594329
O8    O     O_R   0.964750 0.563170 0.464780 -0.594957
O9    O     O_R   0.535170 0.936820 0.535200 -0.593780
O10   O     O_R   0.535170 0.063180 0.535200 -0.593478
O11   O     O_R   0.035170 0.436820 0.535200 -0.593781
O12   O     O_R   0.500400 0.436870 0.536080 -0.595266
O13   O     O_R   0.035170 0.563180 0.535200 -0.593483
O14   O     O_R   0.465520 0.000000 0.528690 -0.593968
O15   O     O_R   0.965520 0.500000 0.528690 -0.593962
O16   O     O_R   0.535930 0.000000 0.599110 -0.593750
O17   O     O_R   0.035930 0.500000 0.599110 -0.593752
O18   O     O_R   0.499540 0.563080 0.463930 -0.597600
O19   O     O_R   0.499540 0.436920 0.463930 -0.597769
O20   O     O_R   0.999540 0.063080 0.463930 -0.597612
O21   O     O_R   0.999540 0.936920 0.463930 -0.597796
O22   O     O_R   0.438030 0.500000 0.473700 -0.613053
O23   O     O_R   0.000400 0.063130 0.536080 -0.598053
O24   O     O_R   0.938030 0.000000 0.473700 -0.613000
O25   O     O_R   0.437170 0.500000 0.401550 -0.612930
O26   O     O_R   0.937170 1.000000 0.401550 -0.613052
O27   O     O_R   0.562760 0.500000 0.598450 -0.591726
O28   O     O_R   0.062760 0.000000 0.598450 -0.591725
O29   O     O_R   0.561900 0.500000 0.526300 -0.592032
O30   O     O_R   0.061900 1.000000 0.526300 -0.592030
O31   O     O_R   0.994600 0.535610 0.057840 -0.597334
O32   O     O_R   0.994600 0.464390 0.057840 -0.597860
O33   O     O_R   0.494600 0.035610 0.057840 -0.597346
O34   O     O_R   0.000400 0.936870 0.536080 -0.595244
O35   O     O_R   0.494600 0.964390 0.057840 -0.597864
O36   O     O_R   0.056200 0.535620 0.056290 -0.613092
O37   O     O_R   0.056200 0.464380 0.056290 -0.615297
O38   O     O_R   0.556200 0.035620 0.056290 -0.613103
O39   O     O_R   0.556200 0.964380 0.056290 -0.615300
O40   O     O_R   0.993060 0.535640 0.930020 -0.596437
O41   O     O_R   0.993060 0.464360 0.930020 -0.597363
O42   O     O_R   0.493060 0.035640 0.930020 -0.596428
O43   O     O_R   0.493060 0.964360 0.930020 -0.597359
O44   O     O_R   0.931470 0.535630 0.931560 -0.591822
O45   O     O_R   0.931470 0.464370 0.931560 -0.591965
O46   O     O_R   0.431470 0.035630 0.931560 -0.591822
O47   O     O_R   0.431470 0.964370 0.931560 -0.591964
O48   O     O_R   0.463990 0.000000 0.400890 -0.594403
Zn1   Zn    Zn3+2 0.500540 0.500000 0.548170 0.966356
Zn2   Zn    Zn3+2 0.952950 0.500000 0.452980 0.964575
Zn3   Zn    Zn3+2 0.546980 0.000000 0.547020 0.966878
Zn4   Zn    Zn3+2 0.046980 0.500000 0.547020 0.966872
Zn5   Zn    Zn3+2 0.000540 0.000000 0.548170 0.966392
Zn6   Zn    Zn3+2 0.499390 0.500000 0.451830 0.962621
Zn7   Zn    Zn3+2 0.999390 0.000000 0.451830 0.962513
Zn8   Zn    Zn3+2 0.993830 0.547580 0.993940 0.966116
Zn9   Zn    Zn3+2 0.993830 0.452420 0.993940 0.963066
Zn10  Zn    Zn3+2 0.493830 0.047580 0.993940 0.966108
Zn11  Zn    Zn3+2 0.493830 0.952420 0.993940 0.963070
Zn12  Zn    Zn3+2 0.452950 0.000000 0.452980 0.964562

loop_
_geom_bond_atom_site_label_1
_geom_bond_atom_site_label_2
_ccdc_geom_bond_type
C44   C49   S    
O48   Zn12  S    
C7    C83   S    
C10   C130  S    
C58   C62   T    
C84   C113  S    
C6    C82   S    
O6    Zn12  S    
O3    Zn3   S    
C9    C117  S    
C25   H10   S    
C76   C79   T    
C8    H26   S    
C11   C132  S    
C94   O6    A    
O34   Zn5   S    
O35   Zn11  S    
C91   O48   A    
C34   H18   S    
C100  C131  S    
C123  C124  T    
C41   C67   S    
C15   H2    S    
C81   C101  S    
O46   Zn10  S    
O45   Zn9   S    
C28   H13   S    
C50   C54   T    
C12   C130  S    
O23   Zn5   S    
O17   Zn4   S    
C28   C29   A    
C117  C132  S    
C66   C88   S    
C30   C31   A    
O36   Zn8   S    
C100  C130  S    
C66   C69   T    
C9    H27   S    
C7    C24   T    
O9    Zn3   S    
C22   H8    S    
O25   Zn6   S    
C98   C129  S    
O15   Zn2   S    
C20   H6    S    
C69   C71   S    
C35   C42   T    
C10   C131  S    
C67   O21   A    
O5    Zn12  S    
C116  H12   S    
C88   O27   A    
O10   Zn3   S    
O27   Zn1   S    
C3    C111  S    
C16   C17   A    
C40   C56   S    
C90   O30   A    
C27   H11   S    
C41   C46   T    
C96   O8    A    
C32   C38   A    
C67   O34   A    
O30   Zn7   S    
C65   O26   A    
C82   O36   A    
C64   O25   A    
C8    C115  S    
C120  C123  S    
C39   C45   S    
C64   O22   A    
C60   C93   S    
C92   O4    A    
O44   Zn8   S    
C93   O5    A    
C26   C31   A    
C101  C103  T    
C97   O16   A    
C113  C119  T    
C21   C22   A    
C24   C89   S    
C9    C118  S    
C73   C75   S    
C91   O3    A    
O38   Zn10  S    
O32   Zn9   S    
C97   C128  S    
O37   Zn9   S    
C2    C11   S    
C86   O45   A    
C79   C87   S    
C33   C34   A    
C54   C59   S    
C119  C121  S    
C19   C131  S    
C88   O29   A    
C96   O13   A    
O18   Zn6   S    
O8    Zn2   S    
C30   H15   S    
O39   Zn11  S    
C78   C115  S    
C5    C65   S    
O12   Zn1   S    
O29   Zn6   S    
C109  C112  T    
C29   H14   S    
C71   C73   T    
C8    C116  S    
C61   C94   S    
C92   C112  S    
C39   C43   T    
O33   Zn10  S    
O2    Zn2   S    
O1    Zn1   S    
C63   C96   S    
O22   Zn1   S    
C84   O40   A    
C14   H28   S    
C83   O38   A    
C18   H5    S    
C127  C129  T    
C87   O46   A    
C121  C125  T    
C37   C38   A    
C3    C118  S    
O31   Zn8   S    
C81   O35   A    
C9    C11   S    
C1    O18   A    
C80   O32   A    
C68   C90   S    
C48   C52   T    
C29   C30   A    
C53   C58   S    
C43   C48   S    
C93   O9    A    
O26   Zn7   S    
C17   H4    S    
C17   C18   A    
C26   C27   A    
C4    C122  T    
C118  H23   S    
C103  C105  S    
C20   C21   A    
C98   O17   A    
C102  C104  S    
C75   C77   T    
C87   O47   A    
C85   O43   A    
C74   C76   S    
C85   O42   A    
C82   O37   A    
C31   H16   S    
C72   C74   T    
C90   O28   A    
C89   C111  S    
C12   C14   A    
C77   C86   S    
C1    O1    A    
C80   C99   S    
C78   C100  S    
C80   O31   A    
C59   C63   T    
O13   Zn4   S    
O14   Zn12  S    
C21   H7    S    
C37   H20   S    
C83   O39   A    
C45   O12   A    
C86   O44   A    
C117  H22   S    
C26   C132  S    
C1    C35   S    
C124  C126  S    
C56   O20   A    
C92   O2    A    
C84   O41   A    
C46   C50   S    
C13   C78   S    
C36   C37   A    
C126  C128  T    
C97   O14   A    
C62   C95   S    
C22   C23   A    
C91   C110  S    
O20   Zn7   S    
C78   C116  S    
O7    Zn2   S    
C89   C117  S    
C10   C122  S    
C95   O7    A    
C47   C51   T    
O28   Zn5   S    
O21   Zn7   S    
C36   H19   S    
C57   C61   T    
C56   O23   A    
C3    C11   S    
C115  H1    S    
C105  C106  T    
C4    C64   S    
O47   Zn11  S    
O16   Zn3   S    
O43   Zn11  S    
C32   C33   A    
O42   Zn10  S    
C19   C20   A    
C111  H25   S    
O41   Zn9   S    
C33   H17   S    
C94   O10   A    
C6    C13   T    
O11   Zn4   S    
C100  H24   S    
O24   Zn5   S    
C107  C109  S    
C116  C131  S    
C106  C108  S    
O4    Zn4   S    
C49   C53   T    
O19   Zn6   S    
O40   Zn8   S    
C34   C36   A    
C108  C110  T    
C51   C55   S    
C42   C47   S    
C23   C25   A    
C3    C32   S    
C19   C25   A    
C85   C114  S    
C52   C57   S    
C45   O19   A    
C81   O33   A    
C2    C5    T    
C111  C132  S    
C40   C44   T    
C99   C102  T    
C89   C118  S    
C8    C10   S    
C12   C18   A    
C27   C28   A    
C125  C127  S    
C68   C70   T    
C14   C15   A    
C23   H9    S    
C70   C72   S    
C38   H21   S    
C55   C60   T    
C16   H3    S    
C95   O11   A    
C65   O24   A    
C104  C107  T    
C114  C120  T    
C15   C16   A    
C98   O15   A    
C115  C130  S    
