data_mof_unit_22785.cif
_audit_creation_date              2012-12-10T22:11:16-0500
_audit_creation_method            fapswitch 2.2
_symmetry_space_group_name_H-M    P1
_symmetry_Int_Tables_number       1
_space_group_crystal_system       triclinic
_cell_length_a                    12.131648
_cell_length_b                    12.328267
_cell_length_c                    23.117713
_cell_angle_alpha                 91.16805
_cell_angle_beta                  90.434984
_cell_angle_gamma                 90.834912
_cell_volume                      3456.34282973

loop_
_atom_site_label
_atom_site_type_symbol
_atom_type_description
_atom_site_fract_x
_atom_site_fract_y
_atom_site_fract_z
_atom_type_partial_charge
C1    C     C_R   0.656358 0.998493 0.579497 0.923908
C2    C     C_R   0.343588 0.001449 0.420513 0.926365
C3    C     C_R   0.896382 0.806597 0.131713 0.524007
C4    C     C_R   0.099419 0.238968 0.844027 0.489583
C5    C     C_R   0.098930 0.862319 0.187076 0.542347
C6    C     C_R   0.912015 0.101111 0.833491 0.505023
C7    C     C_R   0.091300 0.775920 0.147294 -0.379072
C8    C     C_R   0.918378 0.181843 0.876600 -0.374910
C9    C     C_R   0.891833 0.156393 0.188694 0.559891
C10   C     C_R   0.094907 0.886288 0.835342 0.613396
C11   C     C_R   0.897770 0.242534 0.150410 -0.326276
C12   C     C_R   0.090679 0.804489 0.876370 -0.304418
C13   C     C_R   0.113973 0.918862 0.319868 -0.282650
C14   C     C_R   0.835112 0.078299 0.706165 -0.175372
C15   C     C_R   0.195897 0.910962 0.361393 0.518328
C16   C     C_R   0.756035 0.084923 0.662847 0.480887
C17   C     C_R   0.877957 0.102159 0.324328 0.436656
C18   C     C_R   0.178474 0.902324 0.703349 0.478358
C19   C     C_R   0.808187 0.095410 0.371992 0.395484
C20   C     C_R   0.268174 0.914734 0.665997 0.379337
C21   C     C_3   0.996895 0.011538 0.247282 -0.004837
C22   C     C_3   0.003689 0.989049 0.752833 0.052411
C23   C     C_R   0.655750 0.001708 0.421480 0.951277
C24   C     C_R   0.347078 0.998490 0.579800 0.974347
C25   C     C_R   0.096293 0.015068 0.289267 0.030216
C26   C     C_R   0.902444 0.986199 0.711651 -0.000538
C27   C     C_R   0.260102 0.002988 0.375258 -0.197287
C28   C     C_R   0.740414 0.996931 0.624424 -0.216254
C29   C     C_R   0.899304 0.006997 0.290059 -0.090480
C30   C     C_R   0.103264 0.990745 0.710713 -0.111114
C31   C     C_R   0.741545 0.003151 0.378329 -0.268045
C32   C     C_R   0.267770 0.997825 0.625962 -0.269235
C33   C     C_R   0.992000 0.106430 0.205694 0.152535
C34   C     C_R   0.005556 0.894387 0.795021 0.154215
C35   C     C_R   0.996736 0.268906 0.123333 -0.082974
C36   C     C_R   0.002041 0.731654 0.877265 -0.083579
C37   C     C_R   0.000214 0.915103 0.203982 -0.011285
C38   C     C_R   0.001979 0.088269 0.794757 -0.025416
C39   C     C_R   0.992146 0.749434 0.118753 -0.211810
C40   C     C_R   0.009564 0.251671 0.881090 -0.215043
C41   C     C_R   0.992725 0.662187 0.075441 0.931597
C42   C     C_R   0.007494 0.338344 0.924416 0.943287
C43   C     C_R   0.998698 0.352710 0.080723 0.889148
C44   C     C_R   0.001083 0.647644 0.919573 0.912451
C45   C     C_R   0.160219 0.109718 0.304867 0.605834
C46   C     C_R   0.885052 0.897113 0.672453 0.514855
C47   C     C_R   0.245079 0.099325 0.345690 -0.427331
C48   C     C_R   0.805570 0.905177 0.628652 -0.390564
C49   C     C_R   0.843635 0.907714 0.304262 0.493144
C50   C     C_R   0.113100 0.081330 0.673102 0.475104
C51   C     C_R   0.757795 0.911283 0.343987 -0.388967
C52   C     C_R   0.191190 0.079646 0.629268 -0.392214
C53   C     C_R   0.088548 0.129656 0.174234 -0.174452
C54   C     C_R   0.914109 0.822906 0.799648 -0.083667
C55   C     C_R   0.091540 0.210945 0.134456 -0.207379
C56   C     C_R   0.913486 0.741437 0.839458 -0.239459
C57   C     C_R   0.902447 0.890638 0.172484 -0.246408
C58   C     C_R   0.094348 0.158700 0.801008 -0.173637
H1    H     H_    0.299880 0.167444 0.355054 0.189402
H2    H     H_    0.795873 0.840248 0.596737 0.193335
O1    O     O_R   0.621380 0.090460 0.561410 -0.581332
O2    O     O_R   0.378620 0.909540 0.438590 -0.582208
O3    O     O_R   0.617150 0.909540 0.438590 -0.653825
O4    O     O_R   0.382850 0.090460 0.561410 -0.641403
O5    O     O_R   0.619720 0.093230 0.440890 -0.575273
O6    O     O_R   0.380280 0.906770 0.559110 -0.571744
O7    O     O_R   0.618800 0.906770 0.559110 -0.640726
O8    O     O_R   0.381200 0.093230 0.440890 -0.651125
O9    O     O_R   0.087590 0.627480 0.058790 -0.647836
O10   O     O_R   0.912410 0.372520 0.941210 -0.644458
O11   O     O_R   0.905660 0.383870 0.059980 -0.641412
O12   O     O_R   0.094340 0.616130 0.940020 -0.626555
O13   O     O_R   0.092570 0.390420 0.063230 -0.637174
O14   O     O_R   0.907430 0.609580 0.936770 -0.624681
O15   O     O_R   0.900680 0.620930 0.055550 -0.574484
O16   O     O_R   0.099320 0.379070 0.944450 -0.581137
Zn1   Zn    Zn3+2 0.501730 0.123520 0.501540 0.970048
Zn2   Zn    Zn3+2 0.498270 0.876480 0.498460 0.971687
Zn3   Zn    Zn3+2 0.125690 0.504390 0.002180 0.947234
Zn4   Zn    Zn3+2 0.874310 0.495610 0.997820 0.949994
O17   O     O_3   0.870175 0.809536 0.277351 -0.618290
C59   C     C_3   0.876503 0.723407 0.316670 -0.378803
H3    H     H_    0.794153 0.684603 0.321988 0.174154
H4    H     H_    0.911877 0.749444 0.359457 0.177462
H5    H     H_    0.931729 0.660916 0.298196 0.186834
O18   O     O_3   0.037639 0.165242 0.676840 -0.618683
C60   C     C_3   0.087633 0.268656 0.670789 -0.357396
H6    H     H_    0.090827 0.290302 0.624443 0.168265
H7    H     H_    0.171274 0.274620 0.690949 0.178529
H8    H     H_    0.035627 0.329541 0.693104 0.183829
H9    H     H_    0.164112 0.087392 0.182368 0.187198
H10   H     H_    0.839875 0.831094 0.774265 0.159817
H11   H     H_    0.828223 0.934529 0.181378 0.199219
H12   H     H_    0.166501 0.149373 0.774574 0.171064
O19   O     O_3   0.200405 0.892254 0.211548 -0.627228
C61   C     C_3   0.284506 0.900430 0.169786 -0.394358
H13   H     H_    0.254494 0.933457 0.128091 0.160946
H14   H     H_    0.323792 0.820550 0.162610 0.179336
H15   H     H_    0.349190 0.957216 0.186915 0.195366
O20   O     O_3   0.823769 0.027498 0.830794 -0.624135
C62   C     C_3   0.720902 0.078489 0.837445 -0.343539
H16   H     H_    0.718025 0.159099 0.816589 0.165486
H17   H     H_    0.699663 0.085876 0.883978 0.175376
H18   H     H_    0.656606 0.026268 0.816194 0.186160
O21   O     O_3   0.791438 0.124374 0.212252 -0.647250
C63   C     C_3   0.705565 0.118375 0.170591 -0.411390
H19   H     H_    0.733680 0.086444 0.127819 0.178171
H20   H     H_    0.666690 0.198771 0.166116 0.181002
H21   H     H_    0.641125 0.061484 0.186131 0.200618
O22   O     O_3   0.181391 0.962223 0.833375 -0.644499
C64   C     C_3   0.283168 0.923829 0.853903 -0.366146
H22   H     H_    0.300561 0.840612 0.837085 0.200505
H23   H     H_    0.286321 0.927972 0.901923 0.166000
H24   H     H_    0.349613 0.978374 0.838355 0.171684
H25   H     H_    0.064184 0.847559 0.310673 0.200477
H26   H     H_    0.846674 0.149973 0.733059 0.175230
O23   O     O_3   0.936438 0.197587 0.314553 -0.597960
C65   C     C_3   0.866772 0.288373 0.310505 -0.178276
H27   H     H_    0.869614 0.336135 0.351705 0.180262
H28   H     H_    0.779675 0.267240 0.298775 0.175787
H29   H     H_    0.899054 0.341802 0.276312 0.151821
O24   O     O_3   0.168670 0.808573 0.735522 -0.610826
C66   C     C_3   0.175423 0.712330 0.701445 -0.139985
H30   H     H_    0.260224 0.680081 0.703317 0.188848
H31   H     H_    0.148675 0.722261 0.655658 0.172941
H32   H     H_    0.121190 0.649941 0.720777 0.154223
H33   H     H_    0.706110 0.840075 0.349714 0.199299
H34   H     H_    0.191865 0.142250 0.597100 0.195893
H35   H     H_    0.168079 0.227946 0.112323 0.163588
H36   H     H_    0.842773 0.686901 0.841181 0.162349
O25   O     O_3   0.798922 0.785701 0.101722 -0.598192
C67   C     C_3   0.722372 0.736992 0.139242 -0.262664
H37   H     H_    0.692873 0.796112 0.172398 0.161768
H38   H     H_    0.757296 0.664582 0.160421 0.164457
H39   H     H_    0.649625 0.708978 0.113389 0.172001
O26   O     O_3   0.188954 0.309846 0.847292 -0.601474
C68   C     C_3   0.281053 0.254478 0.868953 -0.267843
H40   H     H_    0.313578 0.196306 0.836163 0.155023
H41   H     H_    0.261670 0.211938 0.909812 0.163709
H42   H     H_    0.347534 0.314827 0.878986 0.177734
H43   H     H_    0.164421 0.729576 0.138262 0.194265
H44   H     H_    0.852616 0.189110 0.907743 0.190516
H45   H     H_    0.824562 0.288376 0.141203 0.167516
H46   H     H_    0.154930 0.798118 0.908731 0.156607
O27   O     O_3   0.206560 0.816075 0.391859 -0.598558
C69   C     C_3   0.251537 0.735489 0.355175 -0.265076
H47   H     H_    0.329255 0.764108 0.334672 0.167237
H48   H     H_    0.191037 0.707538 0.321513 0.154661
H49   H     H_    0.272056 0.664327 0.381595 0.172227
O28   O     O_3   0.689811 0.175255 0.660152 -0.606170
C70   C     C_3   0.752248 0.262972 0.638672 -0.256149
H50   H     H_    0.794421 0.240878 0.597522 0.164585
H51   H     H_    0.813244 0.293921 0.671325 0.155026
H52   H     H_    0.695511 0.330216 0.629250 0.175595
O29   O     O_3   0.804456 0.180449 0.411911 -0.590762
C71   C     C_3   0.885899 0.163922 0.454568 -0.293940
H53   H     H_    0.969983 0.163461 0.435566 0.165747
H54   H     H_    0.869939 0.087513 0.478187 0.152149
H55   H     H_    0.883322 0.231976 0.486639 0.178128
O30   O     O_3   0.353167 0.841007 0.666356 -0.595649
C72   C     C_3   0.440082 0.884497 0.700845 -0.288002
H56   H     H_    0.413671 0.897217 0.746359 0.155710
H57   H     H_    0.473156 0.961623 0.683182 0.154574
H58   H     H_    0.508384 0.825657 0.700965 0.184771
O31   O     O_3   0.141916 0.208420 0.278158 -0.586173
C73   C     C_3   0.160786 0.300181 0.314791 -0.247790
H59   H     H_    0.249374 0.324116 0.314766 0.137640
H60   H     H_    0.130885 0.287326 0.359613 0.167000
H61   H     H_    0.114358 0.369137 0.297180 0.181698
O32   O     O_3   0.952371 0.806994 0.675638 -0.608680
C74   C     C_3   0.892396 0.708547 0.666916 -0.373642
H62   H     H_    0.889004 0.686293 0.620147 0.175324
H63   H     H_    0.807855 0.711115 0.685398 0.156797
H64   H     H_    0.936098 0.642901 0.689200 0.183681

loop_
_geom_bond_atom_site_label_1
_geom_bond_atom_site_label_2
_ccdc_geom_bond_type
C16   C28   A    
C9    C33   A    
C60   H6    S    
C43   O13   A    
C62   H16   S    
C5    C37   A    
C17   C29   A    
O4    Zn1   S    
O21   C63   S    
O19   C61   S    
O16   Zn3   S    
C74   H62   S    
C19   C31   A    
C72   H56   S    
C52   H34   S    
C66   H30   S    
C39   C41   S    
C29   C49   A    
C74   H63   S    
C45   O31   S    
O31   C73   S    
C63   H20   S    
C3    O25   S    
C71   H53   S    
O12   Zn3   S    
C2    O8    A    
O27   C69   S    
C23   O3    A    
C66   H31   S    
C21   C33   S    
O32   C74   S    
C9    O21   S    
C22   C38   S    
C61   H15   S    
C56   H36   S    
C42   O10   A    
C19   O29   S    
C45   C47   A    
C49   O17   S    
O22   C64   S    
C32   C52   A    
C5    O19   S    
C65   H27   S    
C4    C40   A    
O1    Zn1   S    
C67   H37   S    
C55   H35   S    
C61   H14   S    
C53   H9    S    
C1    C28   S    
C50   C52   A    
C70   H50   S    
C6    C38   A    
C44   O12   A    
C2    C27   S    
C18   C30   A    
C12   C36   A    
C20   O30   S    
C35   C43   S    
O15   Zn4   S    
C24   O6    A    
C4    O26   S    
C40   C42   S    
C30   C50   A    
C3    C39   A    
C24   O4    A    
O14   Zn4   S    
C73   H60   S    
C13   C25   A    
O7    Zn2   S    
O6    Zn2   S    
O11   Zn4   S    
C72   H57   S    
C48   H2    S    
C69   H48   S    
C53   C55   A    
C33   C53   A    
C22   C34   S    
C74   H64   S    
C46   C48   A    
O5    Zn1   S    
O10   Zn4   S    
C10   C34   A    
C15   O27   S    
C50   O18   S    
O18   C60   S    
C17   C19   A    
C66   H32   S    
C6    C8    A    
C49   C51   A    
C35   C55   A    
O17   C59   S    
C46   O32   S    
C65   H29   S    
C6    O20   S    
C24   C32   S    
C54   H10   S    
C36   C56   A    
C41   O15   A    
C69   H49   S    
C68   H41   S    
C15   C27   A    
C61   H13   S    
O13   Zn3   S    
C64   H23   S    
C38   C58   A    
C14   C26   A    
C44   O14   A    
C9    C11   A    
C13   H25   S    
C10   C12   A    
C70   H52   S    
C3    C57   A    
C67   H38   S    
C18   O24   S    
C34   C54   A    
C62   H18   S    
C59   H4    S    
C13   C15   A    
C22   C26   S    
C73   H59   S    
C14   C16   A    
O9    Zn3   S    
O25   C67   S    
C25   C45   A    
C7    H43   S    
C72   H58   S    
C41   O9    A    
C69   H47   S    
C20   C32   A    
C27   C47   A    
O8    Zn1   S    
C21   C25   S    
C28   C48   A    
C43   O11   A    
C22   C30   S    
C64   H22   S    
O2    Zn2   S    
C71   H55   S    
C31   C51   A    
O26   C68   S    
C1    O1    A    
C16   O28   S    
C54   C56   A    
C17   O23   S    
C59   H5    S    
C68   H40   S    
C42   O16   A    
C57   H11   S    
C51   H33   S    
O30   C72   S    
C23   O5    A    
C71   H54   S    
C58   H12   S    
C5    C7    A    
O23   C65   S    
C21   C29   S    
C67   H39   S    
C14   H26   S    
C68   H42   S    
C11   C35   A    
O20   C62   S    
C1    O7    A    
C10   O22   S    
C64   H24   S    
C18   C20   A    
C70   H51   S    
C65   H28   S    
C36   C44   S    
C26   C46   A    
C47   H1    S    
C12   H46   S    
C21   C37   S    
C73   H61   S    
C62   H17   S    
C59   H3    S    
C63   H19   S    
C60   H8    S    
C4    C58   A    
O29   C71   S    
C60   H7    S    
C7    C39   A    
O28   C70   S    
C8    H44   S    
C8    C40   A    
O24   C66   S    
C11   H45   S    
O3    Zn2   S    
C37   C57   A    
C2    O2    A    
C23   C31   S    
C63   H21   S    
