data_mof_unit_20447.cif
_audit_creation_date              2012-12-10T17:36:49-0500
_audit_creation_method            fapswitch 2.2
_symmetry_space_group_name_H-M    P1
_symmetry_Int_Tables_number       1
_space_group_crystal_system       triclinic
_cell_length_a                    10.607337
_cell_length_b                    12.393255
_cell_length_c                    13.22423
_cell_angle_alpha                 117.442773
_cell_angle_beta                  76.087959
_cell_angle_gamma                 101.218616
_cell_volume                      1490.47376087

loop_
_atom_site_label
_atom_site_type_symbol
_atom_type_description
_atom_site_fract_x
_atom_site_fract_y
_atom_site_fract_z
_atom_type_partial_charge
C1    C     C_R   0.508743 0.855349 0.286785 0.790545
C2    C     C_R   0.483253 0.569856 0.007468 0.077180
C3    C     C_R   0.445191 0.655472 0.123276 0.076297
C4    C     C_R   0.740113 0.000106 0.500388 0.805211
C5    C     C_R   0.441621 0.444237 0.975666 0.072889
C6    C     C_R   0.348496 0.408095 0.053992 0.160053
C7    C     C_R   0.297660 0.496425 0.161966 -0.255139
C8    C     C_R   0.345278 0.618605 0.196379 -0.212535
C9    C     C_R   0.492997 0.353082 0.869221 -0.248681
C10   C     C_R   0.354568 0.195357 0.913718 -0.198556
C11   C     C_R   0.510304 0.775057 0.162843 -0.107942
C12   C     C_3   0.014763 0.018967 0.605633 -0.241802
C13   C     C_R   0.749492 0.374152 0.388327 -0.281333
C14   C     C_R   0.310065 0.752992 0.632539 0.068708
C15   C     C_R   0.264903 0.654654 0.659579 -0.253180
C16   C     C_R   0.478939 0.145521 0.713782 0.782872
C17   C     C_R   0.338448 0.555839 0.613992 -0.144717
C18   C     C_R   0.460132 0.554894 0.541851 -0.051275
C19   C     C_R   0.504054 0.657550 0.515122 0.248414
C20   C     C_R   0.539130 0.454599 0.493258 -0.046932
C21   C     C_R   0.669950 0.470162 0.441397 0.135009
C22   C     C_R   0.717923 0.577726 0.432749 -0.343088
C23   C     C_3   0.930934 0.910055 0.525996 -0.118232
C24   C     C_R   0.631050 0.655414 0.444685 0.244763
C25   C     C_R   0.495073 0.338681 0.492365 0.065704
C26   C     C_R   0.698862 0.261534 0.385490 0.081456
C27   C     C_R   0.259768 0.000357 0.500274 0.784107
C28   C     C_3   0.984656 0.981276 0.394852 -0.241079
C29   C     C_3   0.041151 0.891839 0.420384 -0.252648
C30   C     C_3   0.122878 0.000572 0.500113 -0.056989
C31   C     C_3   0.067284 0.088813 0.475211 0.688408
C32   C     C_3   0.958176 0.108719 0.580591 -0.227030
C33   C     C_3   0.653320 0.603004 0.242828 -0.659953
C34   C     C_3   0.876917 0.999764 0.500645 -0.065195
C35   C     C_R   0.306696 0.283883 0.022791 -0.187169
C36   C     C_R   0.446315 0.230374 0.835924 -0.046281
C37   C     C_R   0.590341 0.814450 0.082464 -0.188650
C38   C     C_R   0.612327 0.734962 0.965714 -0.149618
C39   C     C_R   0.562093 0.613249 0.928311 -0.185059
Cu1   Cu    Cu3+1 0.529830 0.098270 0.475420 0.955718
Cu2   Cu    Cu3+1 0.470170 0.901730 0.524580 0.941777
F1    F     F_    0.139705 0.181082 0.449045 -0.681038
H1    H     H_    0.077764 0.803183 0.355256 0.145152
H2    H     H_    0.398805 0.320532 0.534966 0.151647
H3    H     H_    0.251668 0.828986 0.668684 0.126912
H4    H     H_    0.969714 0.966914 0.309089 0.139448
H5    H     H_    0.300050 0.482839 0.639191 0.148663
H6    H     H_    0.172317 0.655119 0.716361 0.144376
H7    H     H_    0.921900 0.197663 0.645284 0.142784
H8    H     H_    0.030108 0.033978 0.691491 0.144288
H9    H     H_    0.872142 0.836377 0.547235 0.147246
H10   H     H_    0.316271 0.100655 0.888697 0.148041
H11   H     H_    0.223145 0.470693 0.221220 0.153642
H12   H     H_    0.569598 0.375192 0.809586 0.148078
H13   H     H_    0.234892 0.255579 0.081791 0.141942
H14   H     H_    0.754284 0.745486 0.357424 0.240316
H15   H     H_    0.676129 0.643435 0.180486 0.219151
H16   H     H_    0.553974 0.553935 0.240357 0.253751
H17   H     H_    0.725429 0.536130 0.214485 0.206067
H18   H     H_    0.639051 0.906234 0.110136 0.154963
H19   H     H_    0.584076 0.556067 0.836642 0.132898
H20   H     H_    0.672929 0.766680 0.904293 0.141156
H21   H     H_    0.302497 0.683670 0.280625 0.170084
H22   H     H_    0.760636 0.187665 0.346291 0.131415
H23   H     H_    0.817050 0.585711 0.387980 0.150522
H24   H     H_    0.849444 0.385382 0.347058 0.138884
N1    N     N_R   0.575030 0.246270 0.438190 -0.189383
N2    N     N_R   0.425760 0.754330 0.561190 -0.199432
N3    N     N_2   0.662536 0.698712 0.358475 -0.355715
O1    O     O_R   0.537510 0.972500 0.318130 -0.581938
O2    O     O_R   0.487140 0.806530 0.359650 -0.541045
O3    O     O_R   0.708330 0.082950 0.479220 -0.589444
O4    O     O_R   0.657960 0.916980 0.520740 -0.576455
O5    O     O_R   0.512860 0.193470 0.640350 -0.585417
O6    O     O_R   0.462490 0.027500 0.681870 -0.586522
O7    O     O_R   0.342040 0.083020 0.479260 -0.545518
O8    O     O_R   0.291670 0.917050 0.520780 -0.605549

loop_
_geom_bond_atom_site_label_1
_geom_bond_atom_site_label_2
_ccdc_geom_bond_type
C33   H16   S    
C31   F1    S    
C16   O6    A    
C25   N1    A    
C10   H10   S    
C7    C8    A    
C12   C23   S    
C28   H4    S    
C1    O2    A    
Cu1   O1    S    
C16   O5    A    
C26   N1    A    
C23   C29   S    
C28   C29   S    
C37   C38   A    
Cu2   O8    S    
C5    C6    A    
C20   C25   A    
C6    C35   A    
C18   C19   A    
C11   C37   A    
C26   H22   S    
C2    C39   A    
Cu1   N1    S    
C1    C11   S    
C9    C36   A    
C10   C35   A    
Cu2   N2    S    
C33   N3    S    
Cu2   O2    S    
C28   C34   S    
C33   H17   S    
C21   C22   A    
C12   C32   S    
C27   C30   S    
C15   H6    S    
C25   H2    S    
C24   N3    S    
C14   H3    S    
C13   H24   S    
C38   C39   A    
C39   H19   S    
C4    C34   S    
C35   H13   S    
C3    C8    A    
Cu1   O7    S    
C32   C34   S    
C22   H23   S    
C5    C9    A    
C29   C30   S    
Cu2   O6    S    
C23   H9    S    
C31   C32   S    
C23   C34   S    
C17   C18   A    
C13   C21   A    
C19   N2    A    
C4    O4    A    
Cu1   Cu2   S    
C22   C24   A    
C13   C26   A    
C2    C5    A    
C7    H11   S    
C27   O7    A    
C4    O3    A    
C15   C17   A    
C33   H15   S    
Cu1   O3    S    
C12   C30   S    
C28   C31   S    
C17   H5    S    
C27   O8    A    
C12   H8    S    
C6    C7    A    
C1    O1    A    
C2    C3    A    
C16   C36   S    
C30   C31   S    
Cu1   O5    S    
C19   C24   A    
C18   C20   A    
C32   H7    S    
C37   H18   S    
C3    C11   A    
C8    H21   S    
Cu2   O4    S    
C20   C21   A    
H14   N3    S    
C14   N2    A    
C14   C15   A    
C10   C36   A    
C9    H12   S    
C29   H1    S    
C38   H20   S    
