data_mof_unit_19916.cif
_audit_creation_date              2013-03-05T16:11:50-0500
_audit_creation_method            fapswitch 2.2
_symmetry_space_group_name_H-M    P1
_symmetry_Int_Tables_number       1
_space_group_crystal_system       triclinic
_cell_length_a                    11.202591
_cell_length_b                    9.821716
_cell_length_c                    23.539995
_cell_angle_alpha                 91.593325
_cell_angle_beta                  90.448936
_cell_angle_gamma                 89.730237
_cell_volume                      2588.96725458

loop_
_atom_site_label
_atom_site_type_symbol
_atom_site_description
_atom_site_fract_x
_atom_site_fract_y
_atom_site_fract_z
_atom_type_partial_charge
O1    O     O_R   0.317570 0.620260 0.500030 -0.510364
O2    O     O_R   0.317570 0.379740 0.500030 -0.536188
C1    C     C_R   0.260336 0.499321 0.496639 0.898799
O3    O     O_R   0.499840 0.620290 0.417900 -0.548624
O4    O     O_R   0.499840 0.379710 0.417900 -0.534966
C2    C     C_R   0.497295 0.498650 0.390758 0.852758
Cu1   Cu    Cu3+1 0.499860 0.642410 0.500030 1.019074
Cu2   Cu    Cu3+1 0.499860 0.357590 0.500030 1.045512
O5    O     O_R   0.682190 0.620260 0.500010 -0.572661
O6    O     O_R   0.682190 0.379740 0.500010 -0.529594
O7    O     O_R   0.499920 0.620230 0.582140 -0.574919
O8    O     O_R   0.499920 0.379770 0.582140 -0.588590
C3    C     C_R   0.738413 0.499671 0.497617 0.814209
C4    C     C_R   0.494615 0.501630 0.608577 0.875083
C5    C     C_R   0.525937 0.466585 0.879571 0.664339
N1    N     N_R   0.421947 0.486260 0.850069 -0.451454
C6    C     C_R   0.315275 0.503092 0.877343 0.704928
C7    C     C_R   0.309785 0.498204 0.937389 -0.144857
C8    C     C_R   0.418279 0.491585 0.968308 -0.086672
C9    C     C_R   0.528262 0.478882 0.939215 0.016185
C10   C     C_R   0.200473 0.503293 0.967420 0.312963
C11   C     C_R   0.199741 0.501494 0.027386 0.075292
C12   C     C_R   0.308545 0.499247 0.058426 -0.065514
C13   C     C_R   0.417417 0.498242 0.028449 -0.051749
C14   C     C_R   0.526291 0.504579 0.058672 -0.014485
C15   C     C_R   0.634514 0.497667 0.029509 -0.167876
C16   C     C_R   0.636758 0.481700 0.970509 0.145426
C17   C     C_R   0.313238 0.495901 0.118706 0.684873
N2    N     N_R   0.420619 0.503720 0.146862 -0.438972
C18   C     C_R   0.525210 0.515850 0.117924 0.620873
O9    O     O_2   0.626811 0.437010 0.850694 -0.424026
O10   O     O_2   0.216018 0.526109 0.846251 -0.405123
O11   O     O_2   0.212454 0.483340 0.149006 -0.463642
O12   O     O_2   0.628511 0.536977 0.146729 -0.485481
H1    H     H_    0.718757 0.501638 0.052460 0.194088
C19   C     C_R   0.490155 0.386348 0.231828 0.255344
C20   C     C_R   0.524424 0.392681 0.289744 0.165920
C21   C     C_R   0.478350 0.497754 0.326764 -0.206132
C22   C     C_R   0.409299 0.603235 0.301766 0.056390
C23   C     C_R   0.387146 0.602752 0.242517 0.105561
C24   C     C_R   0.426550 0.494211 0.207948 0.179063
C25   C     C_R   0.379727 0.396674 0.752185 0.356874
C26   C     C_R   0.399031 0.404820 0.693664 -0.334629
H2    H     H_    0.358512 0.329964 0.665682 0.239474
C27   C     C_R   0.472993 0.504293 0.671110 -0.234629
C28   C     C_R   0.521251 0.605313 0.708279 0.228890
C29   C     C_R   0.494770 0.605447 0.766739 0.262413
C30   C     C_R   0.428299 0.497923 0.789165 0.067431
C31   C     C_3   0.071032 0.533270 0.554920 -0.206666
C32   C     C_3   0.065956 0.352156 0.480053 -0.113145
H3    H     H_    0.085881 0.440579 0.580558 0.171632
H4    H     H_    0.096322 0.288006 0.514415 0.243539
C33   C     C_3   0.931096 0.553521 0.553127 0.080246
C34   C     C_3   0.927466 0.348098 0.488275 0.094874
H5    H     H_    0.895175 0.483524 0.585308 0.123253
H6    H     H_    0.912218 0.303764 0.530634 0.091737
C35   C     C_3   0.067807 0.599593 0.447662 0.283584
C36   C     C_3   0.120342 0.498057 0.493621 -0.024231
C37   C     C_3   0.875787 0.499508 0.493430 -0.141768
C38   C     C_3   0.925445 0.581589 0.440059 0.187368
C39   C     C_3   0.621635 0.083614 0.514785 0.110354
C40   C     C_3   0.616084 0.920586 0.524065 -0.023894
H7    H     H_    0.678399 0.095993 0.477336 0.185722
H8    H     H_    0.691253 0.876509 0.499813 0.232321
C41   C     C_3   0.417787 0.081011 0.547293 0.416157
C42   C     C_3   0.396848 0.917479 0.535945 0.457462
C43   C     C_3   0.468839 0.073311 0.444301 -0.058324
C44   C     C_3   0.494290 0.911179 0.442303 -0.008572
N3    N     N_3   0.500250 0.143650 0.501250 -0.198395
N4    N     N_3   0.500250 0.856350 0.501250 -0.221423
H9    H     H_    0.374032 0.089758 0.435849 0.240552
H10   H     H_    0.423458 0.859113 0.418812 0.249224
N5    N     N_R   0.088527 0.505718 0.937700 0.138652
O13   O     O_R   0.030142 0.619707 0.933137 -0.301909
O14   O     O_R   0.043815 0.393463 0.916235 -0.269673
N6    N     N_R   0.609534 0.695915 0.688351 0.136820
O15   O     O_R   0.707320 0.643528 0.668074 -0.300725
O16   O     O_R   0.605084 0.825377 0.701590 -0.284499
N7    N     N_R   0.542817 0.709092 0.804546 0.168174
O17   O     O_R   0.473127 0.774265 0.840035 -0.300943
O18   O     O_R   0.657631 0.727350 0.808241 -0.197856
N8    N     N_3   0.140671 0.639189 0.585746 -0.504235
H11   H     H_    0.099441 0.733563 0.586518 0.326533
H12   H     H_    0.150196 0.613114 0.628363 0.257450
N9    N     N_3   0.106101 0.291376 0.425375 -0.516316
H13   H     H_    0.043541 0.308389 0.393335 0.277323
H14   H     H_    0.107179 0.185444 0.427511 0.317657
N10   N     N_R   0.892670 0.688171 0.574870 0.141348
O19   O     O_R   0.861512 0.784588 0.541514 -0.397771
O20   O     O_R   0.908157 0.718906 0.628553 -0.265671
N11   N     N_R   0.870845 0.247250 0.448990 0.142992
O21   O     O_R   0.788718 0.278417 0.412463 -0.326180
O22   O     O_R   0.899434 0.119301 0.453448 -0.382554
N12   N     N_3   0.092775 0.737774 0.467364 -0.414591
H15   H     H_    0.038619 0.767589 0.500327 0.315677
H16   H     H_    0.075002 0.806608 0.435293 0.271002
N13   N     N_3   0.133066 0.583541 0.393509 -0.571502
H17   H     H_    0.101854 0.655838 0.365147 0.199412
H18   H     H_    0.122589 0.490851 0.372304 0.245712
N14   N     N_3   0.866613 0.716125 0.434956 -0.528659
H19   H     H_    0.777805 0.704224 0.422533 0.252049
H20   H     H_    0.902100 0.766106 0.400326 0.209985
N15   N     N_3   0.898074 0.504298 0.387298 -0.524167
H21   H     H_    0.805405 0.503569 0.383245 0.272680
H22   H     H_    0.925079 0.557716 0.351899 0.226328
N16   N     N_3   0.687638 0.161655 0.559320 -0.501856
H23   H     H_    0.778576 0.140965 0.554244 0.234351
H24   H     H_    0.671367 0.133892 0.600730 0.257651
N17   N     N_3   0.641965 0.885234 0.582735 -0.507785
H25   H     H_    0.653578 0.780454 0.583403 0.327054
H26   H     H_    0.724751 0.923778 0.595612 0.291552
N18   N     N_3   0.087626 0.503467 0.056543 -0.477261
H27   H     H_    0.037466 0.419543 0.042317 0.253263
H28   H     H_    0.041396 0.592310 0.046357 0.256545
N19   N     N_3   0.468133 0.093065 0.605904 -0.594389
H29   H     H_    0.405761 0.065833 0.636269 0.247651
H30   H     H_    0.489847 0.188645 0.620309 0.269734
N20   N     N_3   0.387342 0.842899 0.589856 -0.512805
H31   H     H_    0.458412 0.851996 0.617898 0.273489
H32   H     H_    0.313820 0.873655 0.614117 0.246665
N21   N     N_3   0.522112 0.137204 0.395797 -0.491386
H33   H     H_    0.486047 0.091212 0.358929 0.236260
H34   H     H_    0.614302 0.128195 0.394811 0.295184
N22   N     N_3   0.598978 0.869012 0.407714 -0.569351
H35   H     H_    0.578213 0.873998 0.364455 0.232939
H36   H     H_    0.674026 0.929766 0.413869 0.220649
N23   N     N_R   0.302461 0.150863 0.547402 0.158209
O23   O     O_R   0.253134 0.199088 0.593658 -0.382967
O24   O     O_R   0.239547 0.146504 0.501407 -0.363402
N24   N     N_R   0.277464 0.896186 0.508998 0.171118
O25   O     O_R   0.185014 0.914710 0.541598 -0.329393
O26   O     O_R   0.256748 0.909366 0.455185 -0.424926
N25   N     N_3   0.750230 0.473706 0.942884 -0.429475
H37   H     H_    0.797601 0.562352 0.953536 0.272481
H38   H     H_    0.797425 0.391028 0.959038 0.259321
N26   N     N_R   0.529409 0.275835 0.195150 0.163216
O27   O     O_R   0.451438 0.207146 0.164951 -0.336735
O28   O     O_R   0.642458 0.259007 0.184556 -0.226113
N27   N     N_R   0.624501 0.311317 0.306139 0.168404
O29   O     O_R   0.727202 0.371602 0.308299 -0.306603
O30   O     O_R   0.624596 0.181651 0.293258 -0.320948
N28   N     N_3   0.364884 0.714446 0.336100 -0.539344
H39   H     H_    0.402745 0.804013 0.321758 0.208278
H40   H     H_    0.273221 0.722855 0.329597 0.235849
N29   N     N_3   0.327563 0.714788 0.216316 -0.529189
H41   H     H_    0.376103 0.803794 0.224669 0.244572
H42   H     H_    0.242190 0.725877 0.233433 0.243863
N30   N     N_R   0.314559 0.282793 0.773237 0.173837
O31   O     O_R   0.344847 0.228301 0.821029 -0.286640
O32   O     O_R   0.233735 0.222825 0.741521 -0.266331

loop_
_geom_bond_atom_site_label_1
_geom_bond_atom_site_label_2
_geom_bond_distance
_ccdc_geom_bond_type
C10   N5    1.431659 S    
C7    C10   1.418767 A    
C41   N19   1.488298 S    
N5    O13   1.300569 A    
C8    C9    1.417622 A    
C29   N7    1.437118 S    
C25   N30   1.440075 S    
N1    C30   1.443766 S    
Cu1   N4    2.100680 S    
C28   N6    1.424369 S    
N13   H17   1.045263 S    
C33   C37   1.608756 S    
Cu1   Cu2   2.797420 S    
C42   N4    1.533087 S    
N9    H13   1.041901 S    
Cu1   O7    1.951108 S    
C15   C16   1.393759 A    
N2    C18   1.367273 A    
C23   N29   1.435672 S    
C41   N23   1.459940 S    
C17   N2    1.370327 A    
N30   O32   1.301585 A    
N17   H26   1.042989 S    
C21   C22   1.427294 A    
O7    C4    1.337628 A    
C31   C33   1.579668 S    
N16   H23   1.045002 S    
N19   H29   1.044466 S    
C19   N26   1.437483 S    
C40   N4    1.532419 S    
C7    C8    1.413935 A    
C39   H7    1.100799 S    
O5    C3    1.338833 A    
N20   H31   1.032859 S    
C40   H8    1.101269 S    
C32   N9    1.476187 S    
N13   H18   1.032728 S    
N1    C6    1.368138 A    
C31   H3    1.117256 S    
C32   H4    1.090422 S    
C12   C13   1.413710 A    
C2    C21   1.519445 S    
C38   N15   1.468538 S    
Cu2   O8    1.939071 S    
N9    H14   1.043052 S    
C37   C38   1.615340 S    
C10   C11   1.412296 A    
N5    O14   1.300778 A    
C44   N22   1.483752 S    
C19   C24   1.402059 A    
N12   H15   1.024196 S    
O3    Cu1   1.939497 S    
C43   N21   1.451786 S    
N18   H28   1.045259 S    
N18   H27   1.045648 S    
N29   H42   1.044763 S    
N29   H41   1.044896 S    
C4    C27   1.493191 S    
C34   C37   1.595094 S    
C33   H5    1.115704 S    
C5    C9    1.405902 A    
C34   H6    1.113811 S    
N28   H39   1.044044 S    
C18   O12   1.350623 S    
C43   C44   1.615882 S    
C16   N25   1.433220 S    
N30   O31   1.301164 A    
N26   O28   1.301561 A    
N11   O21   1.295806 A    
N7    O18   1.301387 A    
C35   C38   1.613433 S    
N19   H30   1.019098 S    
C14   C15   1.398365 A    
C27   C28   1.411254 A    
C31   C36   1.577940 S    
C43   N3    1.530244 S    
C32   C36   1.583166 S    
C31   N8    1.474513 S    
N24   O26   1.295955 A    
C26   H2    1.073314 S    
N23   O24   1.287093 A    
C20   C21   1.429285 A    
N11   O22   1.302249 A    
C29   C30   1.411763 A    
C22   N28   1.430372 S    
C44   H10   1.085435 S    
C35   N13   1.478751 S    
N14   H20   1.045337 S    
C6    C7    1.417443 A    
Cu2   N3    2.102236 S    
N15   H22   1.044481 S    
C25   C30   1.411478 A    
C12   C17   1.420843 A    
C13   C14   1.407931 A    
N12   H16   1.044704 S    
C39   N16   1.477082 S    
C26   C27   1.402240 A    
N21   H33   1.046379 S    
O3    C2    1.339391 A    
C23   C24   1.395175 A    
N10   O20   1.301549 A    
C17   O11   1.348162 S    
C41   C42   1.638551 S    
C11   N18   1.435779 S    
C35   N12   1.449765 S    
C20   N27   1.430534 S    
N25   H37   1.045309 S    
C6    O10   1.348059 S    
N28   H40   1.040263 S    
C25   C26   1.400666 A    
N23   O23   1.301389 A    
C22   C23   1.414605 A    
N22   H36   1.040141 S    
C39   N3    1.514740 S    
C14   C18   1.396249 A    
Cu1   O5    2.053106 S    
C28   C29   1.409971 A    
C19   C20   1.413231 A    
N2    C24   1.444569 S    
O1    Cu1   2.054693 S    
C8    C13   1.415519 A    
O2    Cu2   2.052656 S    
N6    O16   1.301548 A    
N26   O27   1.301004 A    
C38   N14   1.481289 S    
O6    C3    1.341128 A    
O4    Cu2   1.951503 S    
N27   O29   1.296415 A    
C5    O9    1.349607 S    
C3    C37   1.542865 S    
C9    C16   1.416283 A    
N8    H12   1.046782 S    
N24   O25   1.302911 A    
O8    C4    1.334853 A    
C34   N11   1.477969 S    
C32   C34   1.565801 S    
N17   H25   1.037242 S    
N6    O15   1.296856 A    
N27   O30   1.300910 A    
C35   C36   1.598694 S    
O4    C2    1.347075 A    
C40   N17   1.459965 S    
N16   H24   1.037220 S    
C41   N3    1.569969 S    
N14   H19   1.040960 S    
O2    C1    1.339484 A    
C33   N10   1.468572 S    
C43   H9    1.091133 S    
C39   C40   1.623601 S    
N20   H32   1.044615 S    
N21   H34   1.036526 S    
N7    O17   1.301135 A    
C1    C36   1.569436 S    
C15   H1    1.084080 S    
N10   O19   1.291931 A    
Cu2   O6    2.055146 S    
N8    H11   1.033442 S    
C42   N20   1.487589 S    
N15   H21   1.041804 S    
N25   H38   1.045717 S    
C44   N4    1.503218 S    
C11   C12   1.416592 A    
O1    C1    1.352592 A    
C5    N1    1.367274 A    
N22   H35   1.045198 S    
C42   N24   1.488880 S    
