data_mof_unit_23403.cif
_audit_creation_date              2013-03-05T15:51:41-0500
_audit_creation_method            fapswitch 2.2
_symmetry_space_group_name_H-M    P1
_symmetry_Int_Tables_number       1
_space_group_crystal_system       triclinic
_cell_length_a                    30.345359
_cell_length_b                    22.644638
_cell_length_c                    18.203259
_cell_angle_alpha                 90.209023
_cell_angle_beta                  122.847027
_cell_angle_gamma                 89.835566
_cell_volume                      10508.6246081

loop_
_atom_site_label
_atom_site_type_symbol
_atom_site_description
_atom_site_fract_x
_atom_site_fract_y
_atom_site_fract_z
_atom_type_partial_charge
C1    C     C_R   0.534069 0.602720 0.715667 -0.167594
C2    C     C_R   0.464471 0.402473 0.277513 -0.146416
C3    C     C_R   0.466210 0.603171 0.285606 -0.167002
C4    C     C_R   0.538598 0.403898 0.726850 -0.130594
C5    C     C_R   0.037896 0.094441 0.727679 -0.205281
C6    C     C_R   0.959729 0.913147 0.264563 -0.156299
C7    C     C_R   0.965726 0.098376 0.280079 -0.182600
C8    C     C_R   0.040589 0.913466 0.735567 -0.146900
H1    H     H_    0.503849 0.612265 0.728216 0.138629
H2    H     H_    0.494434 0.395147 0.263602 0.152436
H3    H     H_    0.496227 0.612671 0.272736 0.140313
H4    H     H_    0.511378 0.398404 0.747034 0.140718
H5    H     H_    0.012147 0.095941 0.751397 0.142176
H6    H     H_    0.986883 0.913506 0.243534 0.127859
H7    H     H_    0.995215 0.103892 0.264766 0.134475
H8    H     H_    0.013462 0.913463 0.756651 0.125198
N1    N     N_R   0.532910 0.558440 0.665240 -0.069569
N2    N     N_R   0.467090 0.441560 0.334760 -0.070387
N3    N     N_R   0.467090 0.558440 0.334760 -0.068647
N4    N     N_R   0.532910 0.441560 0.665240 -0.072647
N5    N     N_R   0.032910 0.058440 0.665240 -0.068018
N6    N     N_R   0.967090 0.941560 0.334760 -0.067947
N7    N     N_R   0.967090 0.058440 0.334760 -0.069713
N8    N     N_R   0.032910 0.941560 0.665240 -0.064875
C9    C     C_R   0.643521 0.582209 0.570071 0.055219
C10   C     C_R   0.367681 0.398147 0.427455 -0.042807
C11   C     C_R   0.355789 0.580329 0.429544 0.035540
C12   C     C_R   0.643443 0.417127 0.569544 -0.026153
C13   C     C_R   0.143920 0.080768 0.570724 0.039143
C14   C     C_R   0.874315 0.891748 0.428604 0.026437
C15   C     C_R   0.868737 0.103646 0.429770 0.021562
C16   C     C_R   0.126333 0.892268 0.572054 0.010283
N9    N     N_R   0.597030 0.558910 0.545540 -0.081307
N10   N     N_R   0.402970 0.441090 0.454460 -0.068081
N11   N     N_R   0.402970 0.558910 0.454460 -0.074675
N12   N     N_R   0.597030 0.441090 0.545540 -0.072805
N13   N     N_R   0.097030 0.058910 0.545540 -0.072046
N14   N     N_R   0.902970 0.941090 0.454460 -0.057124
N15   N     N_R   0.902970 0.058910 0.454460 -0.060529
N16   N     N_R   0.097030 0.941090 0.545540 -0.062978
C17   C     C_R   0.593570 0.585090 0.425157 -0.077816
C18   C     C_R   0.415996 0.397442 0.573142 0.052423
C19   C     C_R   0.405450 0.583651 0.574436 -0.052325
C20   C     C_R   0.593832 0.417329 0.424484 0.020650
C21   C     C_R   0.093948 0.084101 0.425460 -0.038711
C22   C     C_R   0.921327 0.892978 0.574183 -0.004651
C23   C     C_R   0.919868 0.104897 0.575223 -0.014802
C24   C     C_R   0.078965 0.892578 0.426289 0.046997
H9    H     H_    0.581973 0.585139 0.357635 0.137159
H10   H     H_    0.429738 0.387876 0.640185 0.118254
H11   H     H_    0.416331 0.582928 0.641649 0.123268
H12   H     H_    0.582918 0.420779 0.357410 0.137388
H13   H     H_    0.082827 0.083816 0.358142 0.118985
H14   H     H_    0.937175 0.881743 0.641548 0.112509
H15   H     H_    0.935795 0.116219 0.642439 0.113024
H16   H     H_    0.062995 0.880703 0.359001 0.108948
N17   N     N_R   0.566200 0.559270 0.454460 -0.065326
N18   N     N_R   0.433800 0.440730 0.545540 -0.067257
N19   N     N_R   0.433800 0.559270 0.545540 -0.064294
N20   N     N_R   0.566200 0.440730 0.454460 -0.072448
N21   N     N_R   0.066200 0.059270 0.454460 -0.061059
N22   N     N_R   0.933800 0.940730 0.545540 -0.066005
N23   N     N_R   0.933800 0.059270 0.545540 -0.064128
N24   N     N_R   0.066200 0.940730 0.454460 -0.065916
C25   C     C_R   0.391750 0.604128 0.283010 0.357293
C26   C     C_R   0.612158 0.402541 0.726679 0.349389
C27   C     C_R   0.608823 0.603098 0.719080 0.346451
C28   C     C_R   0.388311 0.403404 0.269884 0.306914
C29   C     C_R   0.889922 0.099842 0.273002 0.339359
C30   C     C_R   0.115131 0.912296 0.739190 0.293965
C31   C     C_R   0.110621 0.099525 0.725802 0.340858
C32   C     C_R   0.885239 0.911429 0.260813 0.291037
N25   N     N_R   0.421050 0.559750 0.334770 -0.095341
N26   N     N_R   0.578950 0.440250 0.665230 -0.096631
N27   N     N_R   0.578950 0.559750 0.665230 -0.097739
N28   N     N_R   0.421050 0.440250 0.334770 -0.092414
N29   N     N_R   0.921050 0.059750 0.334770 -0.095145
N30   N     N_R   0.078950 0.940250 0.665230 -0.094440
N31   N     N_R   0.078950 0.059750 0.665230 -0.097674
N32   N     N_R   0.921050 0.940250 0.334770 -0.094714
C33   C     C_R   0.581374 0.632129 0.750300 -0.048465
C34   C     C_R   0.415615 0.377089 0.235955 -0.049421
C35   C     C_R   0.419355 0.633246 0.252561 -0.053028
C36   C     C_R   0.587669 0.377759 0.765456 -0.040255
C37   C     C_R   0.085131 0.122804 0.764293 -0.033954
C38   C     C_R   0.909181 0.892285 0.217236 -0.018674
C39   C     C_R   0.918075 0.125956 0.240743 -0.010685
C40   C     C_R   0.091353 0.893114 0.782792 -0.024797
C41   C     C_R   0.642473 0.600032 0.496657 0.131527
C42   C     C_R   0.375757 0.368571 0.499556 0.121429
C43   C     C_R   0.356387 0.597595 0.502484 0.125583
C44   C     C_R   0.642613 0.401904 0.495015 0.119920
C45   C     C_R   0.142855 0.097820 0.497405 0.112387
C46   C     C_R   0.884700 0.860923 0.501344 0.100513
C47   C     C_R   0.880725 0.134684 0.503832 0.118409
C48   C     C_R   0.115985 0.860882 0.499533 0.106127
Ni1   Ni    Ni4+2 0.483090 0.500000 0.604440 0.243716
Ni2   Ni    Ni4+2 0.516910 0.500000 0.395560 0.236685
Ni3   Ni    Ni4+2 0.983090 0.000000 0.604440 0.243806
Ni4   Ni    Ni4+2 0.016910 0.000000 0.395560 0.246567
Ni5   Ni    Ni4+2 0.586780 0.500000 0.604440 0.309952
Ni6   Ni    Ni4+2 0.413220 0.500000 0.395560 0.318045
Ni7   Ni    Ni4+2 0.086780 0.000000 0.604440 0.324874
Ni8   Ni    Ni4+2 0.913220 0.000000 0.395560 0.344204
C49   C     C_R   0.232579 0.679619 0.435356 -0.210755
C50   C     C_R   0.780864 0.380855 0.548854 -0.227825
C51   C     C_R   0.769992 0.676094 0.569809 -0.191793
C52   C     C_R   0.273583 0.249045 0.415867 -0.226272
C53   C     C_R   0.830284 0.290371 0.449432 -0.217537
C54   C     C_R   0.217715 0.741544 0.573532 -0.218764
C55   C     C_R   0.263382 0.182227 0.557923 -0.200139
C56   C     C_R   0.782457 0.743076 0.428708 -0.217292
C57   C     C_R   0.278182 0.662173 0.440921 0.326934
C58   C     C_R   0.739024 0.404398 0.550549 0.354072
C59   C     C_R   0.724040 0.659900 0.563908 0.323648
C60   C     C_R   0.296207 0.304398 0.426816 0.332200
C61   C     C_R   0.856296 0.238576 0.452591 0.348659
C62   C     C_R   0.194609 0.795886 0.567073 0.324566
C63   C     C_R   0.220868 0.161517 0.558787 0.325352
C64   C     C_R   0.805860 0.796853 0.434565 0.319835
C65   C     C_R   0.309454 0.616907 0.500098 -0.224901
C66   C     C_R   0.687262 0.383978 0.489160 -0.161978
C67   C     C_R   0.689163 0.619680 0.497949 -0.175368
C68   C     C_R   0.349735 0.312721 0.493971 -0.222556
C69   C     C_R   0.859351 0.191565 0.506692 -0.226015
C70   C     C_R   0.140351 0.803826 0.503818 -0.214190
C71   C     C_R   0.188748 0.117394 0.498136 -0.218200
C72   C     C_R   0.860135 0.804457 0.497813 -0.215514
C73   C     C_R   0.294099 0.590150 0.553251 0.353602
C74   C     C_R   0.678435 0.345073 0.421168 0.343655
C75   C     C_R   0.701063 0.597859 0.437250 0.378116
C76   C     C_R   0.378961 0.264925 0.549017 0.359219
C77   C     C_R   0.842379 0.199799 0.564555 0.335600
C78   C     C_R   0.110257 0.756141 0.448512 0.338653
C79   C     C_R   0.201019 0.093510 0.439053 0.352259
C80   C     C_R   0.889909 0.757155 0.554296 0.346033
C81   C     C_R   0.250935 0.613181 0.552517 -0.216728
C82   C     C_R   0.720823 0.325759 0.417839 -0.203121
C83   C     C_R   0.745203 0.619254 0.440377 -0.242203
C84   C     C_R   0.354469 0.211124 0.539565 -0.200967
C85   C     C_R   0.820571 0.253612 0.564807 -0.201157
C86   C     C_R   0.135984 0.704033 0.450759 -0.207842
C87   C     C_R   0.241142 0.119428 0.434315 -0.219607
C88   C     C_R   0.863910 0.705564 0.552178 -0.212564
C89   C     C_R   0.220689 0.658081 0.494202 0.047559
C90   C     C_R   0.771803 0.340228 0.484783 0.034092
C91   C     C_R   0.779054 0.658768 0.505663 0.050936
C92   C     C_R   0.301693 0.203844 0.475165 0.028164
C93   C     C_R   0.811923 0.297151 0.504312 0.041244
C94   C     C_R   0.189646 0.697313 0.512175 0.036159
C95   C     C_R   0.271472 0.164049 0.492897 0.046036
C96   C     C_R   0.810330 0.699048 0.490249 0.032867
C97   C     C_R   0.401796 0.686105 0.197593 0.089760
C98   C     C_R   0.608738 0.329823 0.829235 0.049192
C99   C     C_R   0.599023 0.684832 0.806232 0.086893
C100  C     C_R   0.397799 0.329331 0.172346 0.066710
C101  C     C_R   0.899770 0.168905 0.170551 0.089463
C102  C     C_R   0.113177 0.857176 0.861768 0.058852
C103  C     C_R   0.105287 0.166112 0.834313 0.084227
C104  C     C_R   0.886988 0.857650 0.136429 0.067814
C105  C     C_R   0.413594 0.789448 0.177236 0.326562
C106  C     C_R   0.602720 0.226095 0.854430 0.317513
C107  C     C_R   0.586900 0.788164 0.827162 0.327877
C108  C     C_R   0.405741 0.226262 0.146057 0.315556
C109  C     C_R   0.909566 0.263354 0.118995 0.321913
C110  C     C_R   0.105317 0.767118 0.925029 0.330132
C111  C     C_R   0.097617 0.262495 0.883918 0.326416
C112  C     C_R   0.894856 0.771990 0.063948 0.317181
C113  C     C_R   0.434808 0.734527 0.216677 -0.222438
C114  C     C_R   0.578642 0.279765 0.815389 -0.176716
C115  C     C_R   0.565861 0.733143 0.787773 -0.224566
C116  C     C_R   0.428817 0.279157 0.190112 -0.213585
C117  C     C_R   0.931189 0.216513 0.178352 -0.204791
C118  C     C_R   0.082209 0.813112 0.865190 -0.195574
C119  C     C_R   0.074255 0.213336 0.829622 -0.223223
C120  C     C_R   0.918066 0.815575 0.128575 -0.206821
C121  C     C_R   0.348743 0.691327 0.135048 -0.150940
C122  C     C_R   0.662264 0.328388 0.890132 -0.142371
C123  C     C_R   0.652127 0.690252 0.868687 -0.146709
C124  C     C_R   0.346030 0.329198 0.103593 -0.128342
C125  C     C_R   0.849201 0.164029 0.098258 -0.153410
C126  C     C_R   0.166026 0.861041 0.927109 -0.147774
C127  C     C_R   0.157851 0.163723 0.899903 -0.157743
C128  C     C_R   0.833921 0.861895 0.071657 -0.151760
C129  C     C_R   0.325470 0.746966 0.109568 0.079612
C130  C     C_R   0.688510 0.274205 0.917953 0.081737
C131  C     C_R   0.675258 0.746051 0.893955 0.079937
C132  C     C_R   0.319591 0.275524 0.072010 0.074872
C133  C     C_R   0.824105 0.213030 0.045155 0.070951
C134  C     C_R   0.191616 0.813286 0.983450 0.065512
C135  C     C_R   0.183679 0.214067 0.948733 0.065645
C136  C     C_R   0.808355 0.814738 0.013657 0.059770
C137  C     C_R   0.358131 0.796635 0.126634 -0.022781
C138  C     C_R   0.658115 0.222241 0.901133 -0.029893
C139  C     C_R   0.642311 0.795654 0.876881 -0.025052
C140  C     C_R   0.350179 0.223098 0.092471 -0.026939
C141  C     C_R   0.854609 0.264091 0.057146 -0.020037
C142  C     C_R   0.160651 0.764974 0.980586 -0.045845
C143  C     C_R   0.153164 0.265089 0.937678 -0.026911
C144  C     C_R   0.839494 0.767732 0.013288 -0.030625
C145  C     C_R   0.270766 0.754133 0.070816 0.083540
C146  C     C_R   0.743718 0.270294 0.958449 0.095055
C147  C     C_R   0.729894 0.753637 0.931580 0.085574
C148  C     C_R   0.264052 0.272371 0.027781 0.096803
C149  C     C_R   0.768644 0.214989 0.990136 0.104606
C150  C     C_R   0.247299 0.809406 0.034875 0.103569
C151  C     C_R   0.239261 0.216683 0.999401 0.100680
C152  C     C_R   0.752801 0.809630 0.965038 0.104591
C153  C     C_R   0.774737 0.319452 0.966382 -0.134434
C154  C     C_R   0.239334 0.708530 0.071628 -0.112516
C155  C     C_R   0.232672 0.322592 0.015030 -0.108681
C156  C     C_R   0.761870 0.707606 0.932742 -0.114426
C157  C     C_R   0.280243 0.858256 0.050386 -0.136302
C158  C     C_R   0.737355 0.163842 0.969005 -0.142022
C159  C     C_R   0.719588 0.858194 0.949953 -0.136443
C160  C     C_R   0.270652 0.165364 0.021521 -0.146643
C161  C     C_R   0.829002 0.315977 0.013347 -0.084966
C162  C     C_R   0.185704 0.714993 0.030728 -0.084069
C163  C     C_R   0.178731 0.318545 0.973387 -0.076320
C164  C     C_R   0.815078 0.715373 0.969707 -0.068899
C165  C     C_R   0.334579 0.852156 0.097209 -0.075526
C166  C     C_R   0.683303 0.167499 0.925482 -0.072036
C167  C     C_R   0.665413 0.851484 0.905062 -0.071507
C168  C     C_R   0.324769 0.168626 0.066412 -0.076376
H17   H     H_    0.536866 0.282020 0.771121 0.234535
H18   H     H_    0.476643 0.729864 0.263186 0.179419
H19   H     H_    0.470250 0.280524 0.240720 0.204970
H20   H     H_    0.524007 0.728359 0.741584 0.179969
H21   H     H_    0.040531 0.811312 0.816153 0.196039
H22   H     H_    0.971927 0.217998 0.232041 0.181164
H23   H     H_    0.960103 0.814979 0.175111 0.193900
H24   H     H_    0.032449 0.213075 0.781075 0.176845
H25   H     H_    0.682724 0.369942 0.906840 0.142746
H26   H     H_    0.325617 0.651433 0.113336 0.143550
H27   H     H_    0.326375 0.371255 0.085147 0.138788
H28   H     H_    0.675241 0.650350 0.890115 0.140886
H29   H     H_    0.187183 0.898691 0.925988 0.153513
H30   H     H_    0.828533 0.123973 0.092324 0.141538
H31   H     H_    0.812450 0.898498 0.075235 0.154148
H32   H     H_    0.178673 0.124363 0.902858 0.150870
N33   N     N_R   0.448539 0.837490 0.192888 0.243575
O1    O     O_R   0.492405 0.842786 0.268527 -0.316068
O2    O     O_R   0.441341 0.869311 0.127856 -0.319327
N34   N     N_R   0.570680 0.175510 0.841000 0.246796
O3    O     O_R   0.528110 0.165915 0.764928 -0.286594
O4    O     O_R   0.580189 0.143419 0.907246 -0.318025
N35   N     N_R   0.551792 0.836091 0.812042 0.243180
O5    O     O_R   0.507642 0.841071 0.736786 -0.318715
O6    O     O_R   0.559255 0.868169 0.877308 -0.319145
N36   N     N_R   0.438520 0.175735 0.161613 0.245962
O7    O     O_R   0.481784 0.168413 0.237559 -0.299340
O8    O     O_R   0.429967 0.142716 0.096468 -0.313047
N37   N     N_R   0.942915 0.311074 0.126340 0.242634
O9    O     O_R   0.982966 0.326413 0.202609 -0.316643
O10   O     O_R   0.938724 0.332391 0.056516 -0.322586
N38   N     N_R   0.072430 0.720091 0.920960 0.250362
O11   O     O_R   0.029859 0.732673 0.918734 -0.297009
O12   O     O_R   0.078194 0.667086 0.899511 -0.320582
N39   N     N_R   0.065004 0.310362 0.879523 0.243427
O13   O     O_R   0.021249 0.322302 0.806277 -0.336288
O14   O     O_R   0.074378 0.335487 0.951047 -0.316171
N40   N     N_R   0.927559 0.730589 0.054516 0.244222
O15   O     O_R   0.973365 0.716147 0.121820 -0.294351
O16   O     O_R   0.915549 0.714861 0.976913 -0.321022
H33   H     H_    0.758382 0.361623 0.936842 0.183697
H34   H     H_    0.255263 0.667488 0.105527 0.200446
H35   H     H_    0.248257 0.366215 0.037316 0.170254
H36   H     H_    0.746848 0.664955 0.903770 0.194207
H37   H     H_    0.265224 0.902537 0.031055 0.141198
H38   H     H_    0.753472 0.119811 0.982697 0.138723
H39   H     H_    0.734340 0.902710 0.967831 0.140962
H40   H     H_    0.254696 0.121342 0.009017 0.141394
H41   H     H_    0.678782 0.576941 0.633720 0.196895
H42   H     H_    0.337690 0.388559 0.361546 0.191869
H43   H     H_    0.320575 0.573666 0.366122 0.177541
H44   H     H_    0.677874 0.419002 0.634393 0.202527
H45   H     H_    0.178985 0.075187 0.634662 0.179245
H46   H     H_    0.848487 0.876688 0.363368 0.170149
H47   H     H_    0.836457 0.113300 0.365339 0.175417
H48   H     H_    0.152554 0.878291 0.637884 0.170711
N41   N     N_R   0.339774 0.616815 0.259761 0.191902
O17   O     O_R   0.303055 0.577612 0.217807 -0.383136
O18   O     O_R   0.327651 0.669959 0.269939 -0.358381
N42   N     N_R   0.665921 0.396165 0.755136 0.193960
O19   O     O_R   0.684447 0.344625 0.753552 -0.404624
O20   O     O_R   0.696552 0.442042 0.782573 -0.364358
N43   N     N_R   0.661579 0.613739 0.745157 0.191795
O21   O     O_R   0.696436 0.572057 0.782562 -0.373912
O22   O     O_R   0.675887 0.666480 0.738788 -0.356841
N44   N     N_R   0.332699 0.402826 0.229741 0.200872
O23   O     O_R   0.307994 0.352789 0.212828 -0.418150
O24   O     O_R   0.308396 0.451416 0.225108 -0.343115
N45   N     N_R   0.834937 0.107365 0.235973 0.196605
O25   O     O_R   0.805367 0.062162 0.222985 -0.345000
O26   O     O_R   0.814150 0.159856 0.216503 -0.360410
N46   N     N_R   0.170261 0.912656 0.773899 0.207023
O27   O     O_R   0.197389 0.864278 0.805287 -0.378536
O28   O     O_R   0.190527 0.956408 0.756046 -0.340454
N47   N     N_R   0.162556 0.113501 0.749398 0.207264
O29   O     O_R   0.199045 0.073543 0.786097 -0.359484
O30   O     O_R   0.175919 0.168527 0.753721 -0.318624
N48   N     N_R   0.830353 0.907849 0.227599 0.206228
O31   O     O_R   0.805906 0.857839 0.197220 -0.381759
O32   O     O_R   0.807952 0.949292 0.245577 -0.317142
H49   H     H_    0.210267 0.716463 0.393465 0.187171
H50   H     H_    0.820801 0.391642 0.600397 0.198793
H51   H     H_    0.794899 0.709516 0.617046 0.185834
H52   H     H_    0.231764 0.243871 0.369160 0.187424
H53   H     H_    0.823421 0.324980 0.403410 0.191157
H54   H     H_    0.259811 0.736920 0.618281 0.184931
H55   H     H_    0.286266 0.218399 0.601117 0.187105
H56   H     H_    0.740376 0.738691 0.383617 0.185242
N49   N     N_R   0.294785 0.695230 0.392782 0.260302
O33   O     O_R   0.343111 0.713292 0.431573 -0.333653
O34   O     O_R   0.259919 0.717585 0.317079 -0.323554
N50   N     N_R   0.750214 0.448182 0.615429 0.236752
O35   O     O_R   0.726820 0.499060 0.591583 -0.413842
O36   O     O_R   0.790297 0.441727 0.695186 -0.315035
N51   N     N_R   0.710594 0.690303 0.618571 0.254164
O37   O     O_R   0.663979 0.713026 0.584036 -0.338897
O38   O     O_R   0.747444 0.706410 0.697221 -0.312464
N52   N     N_R   0.262886 0.352709 0.375404 0.245963
O39   O     O_R   0.265451 0.402963 0.412469 -0.320317
O40   O     O_R   0.224937 0.344069 0.294466 -0.307382
N53   N     N_R   0.879585 0.234716 0.401679 0.247590
O41   O     O_R   0.925302 0.210017 0.434379 -0.390980
O42   O     O_R   0.859915 0.264786 0.329656 -0.335851
N54   N     N_R   0.228042 0.843940 0.619198 0.245238
O43   O     O_R   0.226433 0.893773 0.582398 -0.317236
O44   O     O_R   0.265840 0.834903 0.700061 -0.303790
N55   N     N_R   0.208122 0.189957 0.615727 0.251252
O45   O     O_R   0.161032 0.210406 0.584170 -0.333945
O46   O     O_R   0.245502 0.205698 0.694157 -0.299986
N56   N     N_R   0.772709 0.844812 0.381746 0.246740
O47   O     O_R   0.774209 0.895058 0.417983 -0.323577
O48   O     O_R   0.735173 0.835384 0.300768 -0.297109
N57   N     N_R   0.321508 0.540106 0.607647 0.239580
O49   O     O_R   0.326141 0.534041 0.682616 -0.363506
O50   O     O_R   0.334311 0.496086 0.576685 -0.372970
N58   N     N_R   0.627959 0.319317 0.361098 0.230524
O51   O     O_R   0.612075 0.312569 0.279295 -0.343013
O52   O     O_R   0.602518 0.292907 0.390519 -0.362065
N59   N     N_R   0.668873 0.555001 0.371582 0.230738
O53   O     O_R   0.658623 0.560560 0.292651 -0.373872
O54   O     O_R   0.658236 0.505310 0.394060 -0.421207
N60   N     N_R   0.432534 0.271001 0.618689 0.224110
O55   O     O_R   0.446408 0.255515 0.697172 -0.373096
O56   O     O_R   0.468237 0.281453 0.601634 -0.406121
N61   N     N_R   0.842802 0.152793 0.617869 0.236038
O57   O     O_R   0.852850 0.164296 0.695618 -0.355646
O58   O     O_R   0.824872 0.100837 0.584087 -0.346371
N62   N     N_R   0.054187 0.759805 0.390290 0.233356
O59   O     O_R   0.030699 0.731857 0.315875 -0.342436
O60   O     O_R   0.025911 0.782364 0.417345 -0.373783
N63   N     N_R   0.173797 0.043227 0.384741 0.236834
O61   O     O_R   0.166377 0.038587 0.307518 -0.376190
O62   O     O_R   0.163908 0.997883 0.417275 -0.367412
N64   N     N_R   0.945905 0.760649 0.613610 0.232877
O63   O     O_R   0.968707 0.733578 0.688503 -0.348357
O64   O     O_R   0.974834 0.782030 0.587325 -0.371204
H57   H     H_    0.804556 0.258955 0.605168 0.188011
H58   H     H_    0.114739 0.669438 0.403066 0.201141
H59   H     H_    0.248354 0.105639 0.384678 0.188026
H60   H     H_    0.884913 0.671097 0.600026 0.202470
H61   H     H_    0.241535 0.597230 0.598487 0.191827
H62   H     H_    0.714516 0.292343 0.370211 0.189176
H63   H     H_    0.752125 0.607031 0.389836 0.189210
H64   H     H_    0.375468 0.176375 0.587005 0.204086
H65   H     H_    0.850424 0.355953 0.020576 0.196200
H66   H     H_    0.164040 0.678893 0.035209 0.197727
H67   H     H_    0.157156 0.358905 0.964049 0.193238
H68   H     H_    0.837376 0.677892 0.970066 0.194728
H69   H     H_    0.357734 0.891716 0.111355 0.189059
H70   H     H_    0.661473 0.126669 0.909174 0.184351
H71   H     H_    0.641954 0.890886 0.890885 0.189776
H72   H     H_    0.346451 0.127564 0.084656 0.184871

loop_
_geom_bond_atom_site_label_1
_geom_bond_atom_site_label_2
_geom_bond_distance
_ccdc_geom_bond_type
C125  H30   1.075570 S    
N52   O40   1.301459 A    
N2    Ni2   1.856731 S    
C136  C152  1.421417 A    
C107  N35   1.437383 S    
C92   C95   1.444045 S    
C18   N18   1.343976 A    
N57   O49   1.301576 A    
N10   Ni6   1.844023 S    
C22   N22   1.343477 A    
N42   O19   1.300999 A    
N20   Ni2   1.856724 S    
C13   N13   1.332120 A    
C88   H60   1.083471 S    
N36   O8    1.301322 A    
N34   O3    1.300936 A    
C130  C146  1.420508 A    
C19   C43   1.384457 A    
C158  C166  1.383822 A    
C80   N64   1.438503 S    
C134  C150  1.422329 A    
N4    Ni1   1.856302 S    
C145  C150  1.413214 A    
N43   O22   1.298791 A    
C3    N3    1.344559 A    
C40   C102  1.462952 S    
C4    H4    1.078376 S    
C60   C68   1.419277 A    
C5    H5    1.078778 S    
C20   C44   1.378494 A    
C138  C166  1.395826 A    
C87   C95   1.392124 A    
C8    H8    1.080585 S    
C54   C62   1.387944 A    
C142  C162  1.393522 A    
C79   N63   1.437915 S    
C17   H9    1.079539 S    
N3    Ni2   1.856300 S    
C97   C121  1.383323 A    
C110  C118  1.392280 A    
C59   C67   1.417844 A    
N3    N25   1.397429 A    
N58   O51   1.301235 A    
C56   C64   1.385845 A    
C156  C164  1.383082 A    
C11   N11   1.335674 A    
N50   O35   1.297871 A    
C108  N36   1.438404 S    
C160  C168  1.383672 A    
N63   O61   1.301344 A    
C4    C36   1.387237 A    
C64   N56   1.438039 S    
N62   O59   1.300939 A    
N5    N31   1.397602 A    
C143  C163  1.393674 A    
N7    N29   1.397429 A    
C140  C168  1.394796 A    
N26   Ni5   1.846514 S    
N46   O27   1.301318 A    
C149  C158  1.413411 A    
C3    C35   1.384510 A    
C144  C164  1.394510 A    
C74   C82   1.389482 A    
C11   H43   1.076486 S    
C133  C141  1.423552 A    
N27   Ni5   1.839585 S    
C24   C48   1.390102 A    
C77   C85   1.386177 A    
N58   O52   1.301541 A    
C54   C94   1.393153 A    
C10   C42   1.373945 A    
C57   N49   1.438028 S    
C153  C161  1.386092 A    
C14   C46   1.375727 A    
C100  C124  1.378907 A    
C86   C94   1.396297 A    
C151  C160  1.414562 A    
C132  C148  1.421975 A    
C136  C144  1.423728 A    
C31   N47   1.426863 S    
C3    H3    1.078828 S    
N22   Ni3   1.857274 S    
C4    N4    1.345745 A    
C84   H64   1.084490 S    
C5    N5    1.336684 A    
C115  H20   1.083260 S    
C70   C78   1.419122 A    
N10   N18   1.393400 A    
C113  H18   1.083271 S    
C126  C134  1.401293 A    
C18   C42   1.391613 A    
C112  N40   1.439305 S    
C154  C162  1.381751 A    
N14   N22   1.393400 A    
C17   C41   1.383882 A    
N51   O38   1.301928 A    
N61   O57   1.301349 A    
C164  H68   1.081740 S    
C29   N29   1.353180 A    
N11   Ni6   1.837058 S    
C21   C45   1.380372 A    
C31   N31   1.341199 A    
N15   Ni8   1.837058 S    
C166  H70   1.081655 S    
C14   N14   1.335601 A    
C49   C57   1.387986 A    
C32   N48   1.433224 S    
C162  H66   1.081137 S    
N37   O9    1.301445 A    
N5    Ni3   1.856730 S    
C116  H19   1.083512 S    
N49   O34   1.301937 A    
C26   N26   1.332335 A    
C68   C76   1.414351 A    
C55   C63   1.382062 A    
N33   O1    1.301366 A    
N53   O42   1.301561 A    
N23   Ni3   1.856721 S    
C50   H50   1.084097 S    
N38   O12   1.301213 A    
C11   C43   1.373377 A    
C74   N58   1.437195 S    
C89   C94   1.452945 S    
C19   N19   1.344487 A    
C5    C37   1.370063 A    
C20   H12   1.080932 S    
C79   C87   1.397381 A    
N7    Ni4   1.856300 S    
C21   H13   1.080225 S    
N31   Ni7   1.839585 S    
C157  C165  1.392556 A    
C73   C81   1.401779 A    
C102  C118  1.397113 A    
N28   Ni6   1.839587 S    
N48   O32   1.298195 A    
C14   H46   1.062874 S    
C48   C70   1.467910 S    
C58   N50   1.432305 S    
N56   O47   1.301556 A    
C100  C116  1.395614 A    
C39   C101  1.457065 S    
N12   Ni5   1.837061 S    
C8    C40   1.373581 A    
C122  C130  1.399147 A    
N55   O46   1.301474 A    
N45   O25   1.297012 A    
C44   C66   1.471396 S    
C127  H32   1.075544 S    
C6    H6    1.080657 S    
C102  C126  1.387468 A    
N60   O56   1.301208 A    
C22   C46   1.385368 A    
C155  H35   1.075026 S    
C105  C137  1.423154 A    
C135  C151  1.418335 A    
N64   O64   1.301432 A    
C156  H36   1.075523 S    
C165  H69   1.080823 S    
C18   H10   1.076822 S    
N63   O62   1.301563 A    
C27   C33   1.398787 A    
C152  C159  1.412857 A    
C76   N60   1.426067 S    
N59   O54   1.298651 A    
C108  C116  1.398843 A    
N21   Ni4   1.857274 S    
C27   N27   1.334285 A    
C146  C153  1.415400 A    
C83   H63   1.083792 S    
C85   H57   1.084872 S    
C112  C120  1.396722 A    
C119  H24   1.083612 S    
C105  N33   1.437289 S    
C130  C138  1.423523 A    
C104  C128  1.390271 A    
N54   O43   1.301620 A    
C56   C96   1.392768 A    
C108  C140  1.419663 A    
C121  H26   1.079324 S    
C35   C97   1.464442 S    
C28   N28   1.342708 A    
C155  C163  1.384447 A    
C147  C152  1.414916 A    
C1    N1    1.344519 A    
C33   C99   1.466631 S    
C28   C34   1.404496 A    
N42   O20   1.300319 A    
C32   N32   1.352729 A    
N16   Ni7   1.837061 S    
C82   C90   1.393040 A    
C7    N7    1.331148 A    
N46   O28   1.299245 A    
C8    N8    1.333927 A    
N34   O4    1.301252 A    
C111  C119  1.398225 A    
C109  N37   1.438117 S    
N6    Ni4   1.856731 S    
C75   C83   1.397452 A    
C117  H22   1.083457 S    
C57   C65   1.416027 A    
C154  H34   1.075275 S    
C43   C65   1.466620 S    
N1    N27   1.397602 A    
C111  C143  1.418831 A    
C52   C92   1.394514 A    
C106  N34   1.436556 S    
C126  H29   1.075628 S    
C9    N9    1.336873 A    
C63   C71   1.413299 A    
C28   N44   1.429798 S    
C59   N51   1.436782 S    
C53   C61   1.395667 A    
C153  H33   1.076520 S    
C111  N39   1.438505 S    
N32   Ni8   1.839587 S    
N9    Ni5   1.844023 S    
C81   C89   1.395933 A    
C71   C79   1.420187 A    
C82   H62   1.084854 S    
C72   C80   1.419704 A    
C23   N23   1.333945 A    
C24   N24   1.345712 A    
C123  C131  1.396956 A    
C1    C33   1.386463 A    
C6    N6    1.334861 A    
C131  C147  1.419986 A    
C121  C129  1.394667 A    
N50   O36   1.301355 A    
N44   O23   1.301015 A    
C129  C145  1.417257 A    
C9    H41   1.075633 S    
C124  C132  1.397006 A    
C125  C133  1.396426 A    
C7    C39   1.366954 A    
C133  C149  1.417361 A    
C146  C149  1.414134 A    
N62   O60   1.301459 A    
C128  C136  1.401737 A    
C107  C115  1.405537 A    
C29   C39   1.404984 A    
C163  H67   1.081577 S    
C167  H71   1.080840 S    
C137  C165  1.401028 A    
N52   O39   1.301627 A    
C30   C40   1.401721 A    
C101  C125  1.381306 A    
C141  C161  1.396242 A    
N57   O50   1.301315 A    
C99   C123  1.384580 A    
N35   O6    1.301212 A    
C73   N57   1.437310 S    
C1    H1    1.079634 S    
C87   H59   1.083436 S    
N13   Ni7   1.844023 S    
C123  H28   1.078282 S    
N37   O10   1.301312 A    
C7    H7    1.079614 S    
C51   H51   1.084873 S    
N36   O7    1.301477 A    
C120  H23   1.082936 S    
C159  C167  1.391664 A    
N47   O29   1.298971 A    
C109  C141  1.418508 A    
C78   C86   1.401394 A    
C90   C93   1.444424 S    
C51   C91   1.391893 A    
N43   O21   1.300389 A    
C106  C114  1.397797 A    
C148  C151  1.414953 A    
C107  C139  1.422993 A    
C49   C89   1.392682 A    
C22   H14   1.077761 S    
N4    N26   1.397432 A    
N40   O15   1.301135 A    
C150  C157  1.414439 A    
N8    N30   1.397432 A    
N25   Ni6   1.846512 S    
C13   H45   1.076887 S    
C98   C122  1.383792 A    
C81   H61   1.083403 S    
C29   N45   1.430577 S    
C2    C34   1.373217 A    
N41   O18   1.299114 A    
C75   N59   1.433619 S    
C134  C142  1.426490 A    
N2    N28   1.397599 A    
C112  C144  1.414816 A    
C67   C75   1.422409 A    
C42   C68   1.466661 S    
C65   C73   1.419633 A    
C6    C38   1.373267 A    
C32   C38   1.402120 A    
C64   C72   1.418078 A    
C46   C72   1.465481 S    
C76   C84   1.389668 A    
C9    C41   1.381141 A    
C52   C60   1.391716 A    
C17   N17   1.342322 A    
C80   C88   1.400268 A    
C13   C45   1.374160 A    
C98   C114  1.391645 A    
C19   H11   1.080791 S    
N49   O33   1.301724 A    
C20   N20   1.331673 A    
C15   C47   1.380728 A    
N17   Ni2   1.857274 S    
C148  C155  1.417704 A    
C21   N21   1.338246 A    
N53   O41   1.301487 A    
C12   H44   1.071863 S    
N6    N32   1.397599 A    
N51   O37   1.301722 A    
N24   Ni4   1.856724 S    
C12   N12   1.341183 A    
C88   C96   1.395715 A    
C114  H17   1.072759 S    
C97   C113  1.397320 A    
N29   Ni8   1.846514 S    
C25   N41   1.422488 S    
C37   C103  1.452272 S    
C38   C104  1.467093 S    
C168  H72   1.081443 S    
C101  C117  1.396181 A    
C77   N61   1.438400 S    
N59   O53   1.301253 A    
C30   N30   1.348129 A    
N8    Ni3   1.856302 S    
N55   O45   1.301565 A    
C60   N52   1.438622 S    
C84   C92   1.389154 A    
C110  C142  1.415043 A    
C85   C93   1.395183 A    
C54   H54   1.085076 S    
C50   C58   1.391275 A    
C135  C143  1.423444 A    
N56   O48   1.301370 A    
C25   C35   1.397567 A    
C109  C117  1.399412 A    
C86   H58   1.083424 S    
C25   N25   1.334605 A    
C55   C95   1.393524 A    
N14   Ni8   1.844023 S    
C31   C37   1.396399 A    
C10   N10   1.328696 A    
C124  H27   1.075798 S    
C15   N15   1.340961 A    
C27   N43   1.422425 S    
C30   N46   1.432277 S    
C15   H47   1.066409 S    
C128  H31   1.076258 S    
C78   N62   1.438315 S    
C16   H48   1.065943 S    
C34   C100  1.455255 S    
C56   H56   1.085048 S    
C103  C119  1.394725 A    
C104  C120  1.399171 A    
N18   Ni1   1.857274 S    
C158  H38   1.078069 S    
N11   N19   1.393360 A    
N54   O44   1.301357 A    
C10   H42   1.062822 S    
N40   O16   1.301445 A    
C41   C67   1.474204 S    
N41   O17   1.300192 A    
N39   O14   1.301345 A    
N33   O2    1.301196 A    
C53   C93   1.390750 A    
C45   C71   1.455857 S    
C55   H55   1.085179 S    
C47   C69   1.453882 S    
C110  N38   1.435556 S    
N38   O11   1.301075 A    
C106  C138  1.416145 A    
C61   N53   1.440686 S    
C12   C44   1.385488 A    
C36   C98   1.461134 S    
C26   N42   1.425921 S    
N47   O30   1.300305 A    
C51   C59   1.389460 A    
C83   C91   1.393341 A    
C16   C48   1.375203 A    
N19   Ni1   1.856721 S    
C161  H65   1.081237 S    
C147  C156  1.414398 A    
C157  H37   1.078427 S    
N39   O13   1.301508 A    
C2    H2    1.080246 S    
C145  C154  1.413327 A    
C23   H15   1.073924 S    
C69   C77   1.412795 A    
C24   H16   1.077888 S    
N48   O31   1.301466 A    
N9    N17   1.393400 A    
C131  C139  1.420140 A    
N30   Ni7   1.846515 S    
C129  C137  1.419052 A    
C2    N2    1.333983 A    
N12   N20   1.393360 A    
C127  C135  1.394995 A    
C122  H25   1.076945 S    
N13   N21   1.393400 A    
N35   O5    1.301375 A    
N15   N23   1.393360 A    
C50   C90   1.388502 A    
C159  H39   1.079171 S    
C91   C96   1.451601 S    
C105  C113  1.406110 A    
N45   O26   1.301009 A    
C139  C167  1.401126 A    
N60   O55   1.300609 A    
N1    Ni1   1.856730 S    
C52   H52   1.084762 S    
C66   C74   1.418970 A    
N44   O24   1.300082 A    
C16   N16   1.333639 A    
N64   O63   1.301343 A    
C118  H21   1.083236 S    
C26   C36   1.392717 A    
C58   C66   1.423399 A    
C99   C115  1.397119 A    
C132  C140  1.425319 A    
N61   O58   1.301483 A    
C63   N55   1.437783 S    
C53   H53   1.083513 S    
C62   N54   1.438131 S    
C23   C47   1.371871 A    
N16   N24   1.393360 A    
C62   C70   1.418554 A    
C103  C127  1.380846 A    
C61   C69   1.421191 A    
C160  H40   1.077744 S    
C49   H49   1.085026 S    
