data_mof_unit_61703.cif
_audit_creation_date              2012-12-10T19:14:04-0500
_audit_creation_method            fapswitch 2.2
_symmetry_space_group_name_H-M    P1
_symmetry_Int_Tables_number       1
_space_group_crystal_system       triclinic
_cell_length_a                    38.904412
_cell_length_b                    38.904303
_cell_length_c                    23.537864
_cell_angle_alpha                 89.999702
_cell_angle_beta                  89.999632
_cell_angle_gamma                 89.999862
_cell_volume                      35625.7112826

loop_
_atom_site_label
_atom_site_type_symbol
_atom_type_description
_atom_site_fract_x
_atom_site_fract_y
_atom_site_fract_z
_atom_type_partial_charge
C1    C     C_R   0.567179 1.000000 0.500000 0.878951
C2    C     C_R   0.976668 0.732002 0.465968 -0.184375
C3    C     C_R   0.000000 0.500000 0.390623 0.903039
C4    C     C_R   0.000000 0.500000 0.109377 0.903085
C5    C     C_R   0.500000 0.000000 0.109377 0.903034
C6    C     C_R   1.000000 0.500000 0.890623 0.903084
C7    C     C_R   0.500000 0.000000 0.890623 0.903035
C8    C     C_1   0.500000 1.000000 0.669589 -0.174766
C9    C     C_1   1.000000 0.500000 0.669589 -0.174761
C10   C     C_1   0.500000 0.000000 0.330410 -0.174766
C11   C     C_1   0.000000 0.500000 0.330410 -0.174762
C12   C     C_1   0.000000 0.499999 0.169590 -0.174765
C13   C     C_R   0.267997 0.976747 0.465814 -0.184403
C14   C     C_1   0.500000 0.000000 0.169590 -0.174767
C15   C     C_1   1.000000 0.500000 0.830410 -0.174764
C16   C     C_1   0.500000 1.000000 0.830410 -0.174766
C17   C     C_1   0.500000 0.999999 0.720365 0.018440
C18   C     C_1   1.000000 0.500000 0.720365 0.018448
C19   C     C_1   0.500000 0.000000 0.279635 0.018440
C20   C     C_1   0.000000 0.499999 0.279635 0.018448
C21   C     C_1   1.000000 0.499999 0.220365 0.018450
C22   C     C_1   0.500000 0.000000 0.220365 0.018441
C23   C     C_1   1.000000 0.500000 0.779635 0.018450
C24   C     C_R   0.023422 0.268001 0.466134 -0.184381
C25   C     C_1   0.500000 1.000000 0.779635 0.018441
C26   C     C_R   0.877079 0.009473 0.549203 -0.160582
C27   C     C_R   0.990238 0.877090 0.549042 -0.160621
C28   C     C_R   0.122907 0.990151 0.548998 -0.160606
C29   C     C_R   0.009653 0.122914 0.549100 -0.160564
C30   C     C_R   0.122907 0.009847 0.451002 -0.160622
C31   C     C_R   0.009762 0.877089 0.450960 -0.160570
C32   C     C_R   0.877079 0.990527 0.450798 -0.160561
C33   C     C_R   0.990348 0.122914 0.450897 -0.160615
C34   C     C_R   0.377093 0.509855 0.048994 -0.160598
C35   C     C_R   0.267995 0.023248 0.534192 -0.184386
C36   C     C_R   0.490357 0.377085 0.049111 -0.160596
C37   C     C_R   0.622909 0.490203 0.049024 -0.160610
C38   C     C_R   0.509763 0.622910 0.049047 -0.160620
C39   C     C_R   0.622909 0.509799 0.950975 -0.160596
C40   C     C_R   0.509641 0.377086 0.950891 -0.160606
C41   C     C_R   0.377093 0.490144 0.951007 -0.160615
C42   C     C_R   0.490238 0.622911 0.950951 -0.160610
C43   C     C_R   0.841372 0.009713 0.549049 -0.074190
C44   C     C_R   0.989991 0.841384 0.548882 -0.074139
C45   C     C_R   0.158613 0.989902 0.548835 -0.074219
C46   C     C_R   0.023329 0.732002 0.534039 -0.184386
C47   C     C_R   0.009897 0.158620 0.548941 -0.074189
C48   C     C_R   0.158613 0.010095 0.451165 -0.074131
C49   C     C_R   0.010007 0.841383 0.451122 -0.074144
C50   C     C_R   0.841372 0.990287 0.450952 -0.074182
C51   C     C_R   0.990104 0.158620 0.451055 -0.074119
C52   C     C_R   0.341387 0.510103 0.048831 -0.074133
C53   C     C_R   0.490113 0.341379 0.048953 -0.074196
C54   C     C_R   0.658615 0.489958 0.048862 -0.074127
C55   C     C_R   0.510008 0.658617 0.048885 -0.074177
C56   C     C_R   0.658615 0.510046 0.951137 -0.074208
C57   C     C_R   0.731994 0.976405 0.533540 -0.184397
C58   C     C_R   0.509884 0.341379 0.951049 -0.074138
C59   C     C_R   0.341387 0.489896 0.951171 -0.074170
C60   C     C_R   0.489992 0.658617 0.951111 -0.074206
C61   C     C_R   0.823535 0.000000 0.500000 0.183910
C62   C     C_R   0.999999 0.823545 0.500003 0.183671
C63   C     C_R   0.176452 0.999998 0.500000 0.183598
C64   C     C_R   0.000001 0.176458 0.499997 0.183757
C65   C     C_R   0.323548 0.499999 0.000001 0.183625
C66   C     C_R   0.499998 0.323541 0.000001 0.183786
C67   C     C_R   0.676453 0.500003 1.000000 0.183642
C68   C     C_R   0.976582 0.267999 0.533866 -0.184361
C69   C     C_R   0.500000 0.676455 0.999998 0.183687
C70   C     C_R   0.895100 1.000000 0.500000 -0.046294
C71   C     C_R   1.000000 0.895108 0.500001 -0.046210
C72   C     C_R   0.104890 0.999999 0.500000 -0.046167
C73   C     C_R   0.000000 0.104895 0.499999 -0.046247
C74   C     C_R   0.395109 0.500000 0.000000 -0.046162
C75   C     C_R   0.499999 0.395104 0.000001 -0.046259
C76   C     C_R   0.604892 0.500001 1.000000 -0.046187
C77   C     C_R   0.500000 0.604893 0.999999 -0.046200
C78   C     C_R   0.767833 0.024576 0.466871 -0.030089
C79   C     C_R   0.232005 0.523255 0.965823 -0.184379
C80   C     C_R   0.975686 0.767841 0.466360 -0.029921
C81   C     C_R   0.232158 0.975764 0.466198 -0.029884
C82   C     C_R   0.024404 0.232162 0.466534 -0.029920
C83   C     C_R   0.232156 0.024230 0.533804 -0.029853
C84   C     C_R   0.024311 0.767840 0.533647 -0.029880
C85   C     C_R   0.767833 0.975425 0.533129 -0.030072
C86   C     C_R   0.975600 0.232161 0.533462 -0.029939
C87   C     C_R   0.267843 0.524237 0.966211 -0.029845
C88   C     C_R   0.475572 0.267838 0.966576 -0.029998
C89   C     C_R   0.732157 0.475721 0.966293 -0.029888
C90   C     C_R   0.476554 0.231999 0.966176 -0.184402
C91   C     C_R   0.524318 0.732160 0.966359 -0.029920
C92   C     C_R   0.732158 0.524287 0.033703 -0.029913
C93   C     C_R   0.524423 0.267838 0.033430 -0.029990
C94   C     C_R   0.267843 0.475761 0.033793 -0.029879
C95   C     C_R   0.475681 0.732160 0.033636 -0.029929
C96   C     C_2   0.785076 0.052087 0.433216 0.907659
C97   C     C_2   0.948443 0.785083 0.432132 0.907538
C98   C     C_2   0.214917 0.948598 0.431796 0.907498
C99   C     C_2   0.051741 0.214921 0.432512 0.907555
C100  C     C_2   0.214914 0.051391 0.568210 0.907480
C101  C     C_R   0.767996 0.476703 0.965901 -0.184384
C102  C     C_2   0.051554 0.785082 0.567874 0.907506
C103  C     C_2   0.785076 0.947915 0.566785 0.907649
C104  C     C_2   0.948265 0.214918 0.567486 0.907570
C105  C     C_2   0.285085 0.551403 0.931820 0.907493
C106  C     C_2   0.448212 0.285079 0.932592 0.907591
C107  C     C_2   0.714914 0.448509 0.931996 0.907510
C108  C     C_2   0.551566 0.714918 0.932133 0.907531
C109  C     C_2   0.714917 0.551504 0.067993 0.907524
C110  C     C_2   0.551781 0.285081 0.067416 0.907580
C111  C     C_2   0.285084 0.448595 0.068188 0.907516
C112  C     C_R   1.000000 0.567181 0.500000 0.879092
C113  C     C_R   0.523336 0.767999 0.965968 -0.184392
C114  C     C_2   0.448431 0.714918 0.067860 0.907537
C115  C     C_1   0.675876 0.941164 0.457597 0.171180
C116  C     C_1   0.059126 0.675891 0.458736 0.171210
C117  C     C_1   0.324105 0.059212 0.459092 0.171203
C118  C     C_1   0.940966 0.324116 0.458393 0.171169
C119  C     C_1   0.324107 0.940787 0.540916 0.171220
C120  C     C_1   0.940873 0.675890 0.541269 0.171205
C121  C     C_1   0.675875 0.058837 0.542403 0.171178
C122  C     C_1   0.059035 0.324116 0.541610 0.171183
C123  C     C_1   0.175894 0.440796 0.959050 0.171215
C124  C     C_R   0.767997 0.523303 0.034093 -0.184400
C125  C     C_1   0.559013 0.175885 0.958283 0.171177
C126  C     C_1   0.824110 0.559168 0.958893 0.171203
C127  C     C_1   0.440888 0.824111 0.958702 0.171212
C128  C     C_1   0.824107 0.440835 0.041100 0.171186
C129  C     C_1   0.440985 0.175883 0.041725 0.171191
C130  C     C_1   0.175894 0.559203 0.040946 0.171215
C131  C     C_1   0.559112 0.824110 0.041292 0.171201
C132  C     C_R   0.523441 0.231999 0.033832 -0.184397
C133  C     C_R   0.232004 0.476744 0.034177 -0.184386
C134  C     C_R   0.476663 0.767999 0.034026 -0.184397
C135  C     C_R   0.714241 0.000001 0.500000 0.046904
C136  C     C_R   0.999999 0.714250 0.500003 0.046877
C137  C     C_R   0.285748 0.999998 0.500003 0.046918
C138  C     C_R   0.000001 0.285753 0.500000 0.046855
C139  C     C_R   0.214252 0.499999 0.999999 0.046887
C140  C     C_R   0.432818 0.000000 0.500000 0.879139
C141  C     C_R   0.499998 0.214246 0.000004 0.046906
C142  C     C_R   0.785749 0.500003 0.999997 0.046910
C143  C     C_R   0.499999 0.785751 0.999997 0.046921
C144  C     C_R   0.785970 0.000000 0.500000 -0.098223
C145  C     C_R   0.999999 0.785979 0.500003 -0.098192
C146  C     C_R   0.214019 0.999997 0.500000 -0.098112
C147  C     C_R   0.000001 0.214024 0.499997 -0.098243
C148  C     C_R   0.285981 0.499999 0.000002 -0.098172
C149  C     C_R   0.499998 0.285975 0.000001 -0.098176
C150  C     C_R   0.714020 0.500003 1.000000 -0.098142
C151  C     C_R   1.000000 0.432820 0.500000 0.879053
C152  C     C_R   0.499999 0.714022 0.999998 -0.098131
C153  C     C_R   0.658382 0.970982 0.480111 0.013154
C154  C     C_R   0.029151 0.658395 0.480660 0.013081
C155  C     C_R   0.341602 0.029191 0.480832 0.013066
C156  C     C_R   0.970891 0.341610 0.480494 0.013116
C157  C     C_R   0.341603 0.970808 0.519175 0.013061
C158  C     C_R   0.970847 0.658394 0.519344 0.013083
C159  C     C_R   0.658382 0.029019 0.519890 0.013154
C160  C     C_R   0.029110 0.341610 0.519508 0.013110
C161  C     C_R   0.158398 0.470812 0.980810 0.013069
C162  C     C_R   0.067182 0.500000 1.000000 0.879133
C163  C     C_R   0.529099 0.158390 0.980443 0.013109
C164  C     C_R   0.841605 0.529171 0.980734 0.013071
C165  C     C_R   0.470854 0.841607 0.980641 0.013092
C166  C     C_R   0.841603 0.470831 0.019261 0.013078
C167  C     C_R   0.470899 0.158389 0.019565 0.013103
C168  C     C_R   0.158398 0.529187 0.019187 0.013067
C169  C     C_R   0.529145 0.841606 0.019354 0.013096
C170  C     C_R   0.622607 0.971087 0.480708 -0.220921
C171  C     C_R   0.029039 0.622620 0.481240 -0.220909
C172  C     C_R   0.377376 0.029077 0.481406 -0.220906
C173  C     C_R   0.500000 0.067180 0.000000 0.879038
C174  C     C_R   0.971001 0.377384 0.481080 -0.220910
C175  C     C_R   0.377377 0.970923 0.518598 -0.220903
C176  C     C_R   0.970960 0.622619 0.518763 -0.220908
C177  C     C_R   0.622607 0.028913 0.519293 -0.220921
C178  C     C_R   0.029000 0.377385 0.518922 -0.220911
C179  C     C_R   0.122623 0.470926 0.981386 -0.220909
C180  C     C_R   0.528990 0.122615 0.981029 -0.220916
C181  C     C_R   0.877379 0.529058 0.981313 -0.220904
C182  C     C_R   0.470966 0.877381 0.981222 -0.220908
C183  C     C_R   0.877378 0.470943 0.018683 -0.220908
C184  C     C_R   0.932818 0.500000 1.000000 0.879116
C185  C     C_R   0.471009 0.122614 0.018976 -0.220908
C186  C     C_R   0.122623 0.529073 0.018612 -0.220908
C187  C     C_R   0.529034 0.877380 0.018775 -0.220916
C188  C     C_R   0.604664 0.000000 0.500000 -0.067113
C189  C     C_R   1.000000 0.604673 0.500001 -0.067403
C190  C     C_R   0.395325 1.000000 0.500002 -0.067499
C191  C     C_R   0.000000 0.395330 0.500000 -0.067331
C192  C     C_R   0.104675 0.500000 0.999999 -0.067488
C193  C     C_R   0.500000 0.104669 0.000002 -0.067285
C194  C     C_R   0.895326 0.500000 0.999998 -0.067449
C195  C     C_R   0.500000 0.932819 1.000000 0.879093
C196  C     C_R   0.500000 0.895328 0.999999 -0.067408
C197  C     C_R   0.676544 0.000000 0.500000 0.019034
C198  C     C_R   0.999999 0.676555 0.500003 0.019079
C199  C     C_R   0.323442 0.999999 0.500004 0.019084
C200  C     C_R   0.000001 0.323449 0.500001 0.019065
C201  C     C_R   0.176558 0.499999 0.999999 0.019081
C202  C     C_R   0.499999 0.176551 0.000005 0.019072
C203  C     C_R   0.823443 0.500001 0.999997 0.019087
C204  C     C_R   0.500000 0.823445 0.999997 0.019057
C205  C     C_R   0.000000 0.932574 0.500000 0.884819
C206  C     C_R   0.731994 0.023596 0.466461 -0.184398
C207  C     C_R   0.067425 1.000000 0.500000 0.884762
C208  C     C_R   0.000000 0.067427 0.500000 0.884867
C209  C     C_R   0.932572 1.000000 0.500000 0.884910
C210  C     C_R   0.500000 0.432573 0.000000 0.884799
C211  C     C_R   0.567426 0.500000 1.000000 0.884783
C212  C     C_R   0.500000 0.567426 1.000000 0.884745
C213  C     C_R   0.432575 0.500000 0.000000 0.884758
C214  C     C_R   0.500000 1.000000 0.609377 0.903020
C215  C     C_R   1.000000 0.500000 0.609377 0.903038
C216  C     C_R   0.500000 0.000000 0.390623 0.903021
H1    H     H_    0.890562 0.017012 0.587486 0.157378
H2    H     H_    0.482684 0.390571 0.087318 0.157354
H3    H     H_    0.609421 0.482406 0.087161 0.157274
H4    H     H_    0.517530 0.609423 0.087202 0.157306
H5    H     H_    0.609420 0.517596 0.912839 0.157293
H6    H     H_    0.517315 0.390571 0.912683 0.157344
H7    H     H_    0.390582 0.482302 0.912896 0.157256
H8    H     H_    0.482470 0.609424 0.912796 0.157313
H9    H     H_    0.827592 0.017306 0.587027 0.130942
H10   H     H_    0.982165 0.827603 0.586729 0.130958
H11   H     H_    0.172393 0.982008 0.586645 0.130997
H12   H     H_    0.982469 0.890578 0.587193 0.157264
H13   H     H_    0.017635 0.172401 0.586837 0.130972
H14   H     H_    0.172393 0.017988 0.413355 0.130979
H15   H     H_    0.017833 0.827602 0.413276 0.130981
H16   H     H_    0.827592 0.982694 0.412973 0.130947
H17   H     H_    0.982367 0.172401 0.413158 0.130940
H18   H     H_    0.327607 0.518002 0.086638 0.130991
H19   H     H_    0.482384 0.327598 0.086856 0.130972
H20   H     H_    0.672395 0.482105 0.086695 0.130973
H21   H     H_    0.517833 0.672396 0.086736 0.130986
H22   H     H_    0.672395 0.517900 0.913305 0.130991
H23   H     H_    0.109418 0.982315 0.587112 0.157275
H24   H     H_    0.517613 0.327598 0.913146 0.130963
H25   H     H_    0.327607 0.481997 0.913365 0.130987
H26   H     H_    0.482167 0.672397 0.913260 0.130992
H27   H     H_    0.717580 0.041816 0.441018 0.184785
H28   H     H_    0.958647 0.717588 0.440142 0.184703
H29   H     H_    0.282412 0.958788 0.439872 0.184675
H30   H     H_    0.041509 0.282417 0.440438 0.184743
H31   H     H_    0.282408 0.041208 0.560137 0.184641
H32   H     H_    0.041350 0.717587 0.559865 0.184702
H33   H     H_    0.717580 0.958185 0.558983 0.184781
H34   H     H_    0.017334 0.109427 0.587302 0.157349
H35   H     H_    0.958494 0.282413 0.559564 0.184718
H36   H     H_    0.217590 0.541219 0.939888 0.184677
H37   H     H_    0.458449 0.217584 0.940511 0.184753
H38   H     H_    0.782409 0.458706 0.940027 0.184663
H39   H     H_    0.541361 0.782413 0.940148 0.184682
H40   H     H_    0.782412 0.541301 0.059964 0.184700
H41   H     H_    0.541547 0.217586 0.059499 0.184727
H42   H     H_    0.217589 0.458780 0.060111 0.184677
H43   H     H_    0.458638 0.782413 0.059846 0.184693
H44   H     H_    0.608732 0.948801 0.465191 0.166232
H45   H     H_    0.109418 0.017683 0.412888 0.157257
H46   H     H_    0.051432 0.608751 0.466138 0.166474
H47   H     H_    0.391243 0.051502 0.466433 0.166546
H48   H     H_    0.948641 0.391256 0.465852 0.166402
H49   H     H_    0.391245 0.948497 0.533571 0.166549
H50   H     H_    0.948567 0.608750 0.533864 0.166473
H51   H     H_    0.608731 0.051198 0.534810 0.166230
H52   H     H_    0.051360 0.391256 0.534150 0.166404
H53   H     H_    0.108756 0.448504 0.966401 0.166537
H54   H     H_    0.551341 0.108744 0.965762 0.166375
H55   H     H_    0.891248 0.551465 0.966272 0.166507
H56   H     H_    0.017531 0.890578 0.412809 0.157310
H57   H     H_    0.448578 0.891251 0.966108 0.166469
H58   H     H_    0.891246 0.448535 0.033725 0.166505
H59   H     H_    0.448658 0.108742 0.034242 0.166379
H60   H     H_    0.108756 0.551495 0.033597 0.166539
H61   H     H_    0.551422 0.891250 0.033890 0.166464
H62   H     H_    0.782371 0.084924 0.366939 0.357099
H63   H     H_    0.916180 0.782410 0.365092 0.357064
H64   H     H_    0.217586 0.916499 0.364538 0.357034
H65   H     H_    0.084210 0.217607 0.365750 0.357052
H66   H     H_    0.217566 0.083464 0.635502 0.357037
H67   H     H_    0.890562 0.982988 0.412514 0.157390
H68   H     H_    0.083818 0.782408 0.634913 0.357036
H69   H     H_    0.782373 0.915081 0.633065 0.357090
H70   H     H_    0.915813 0.217592 0.634272 0.357077
H71   H     H_    0.282422 0.583502 0.864569 0.357036
H72   H     H_    0.415691 0.282386 0.865893 0.357062
H73   H     H_    0.717575 0.416325 0.864849 0.357048
H74   H     H_    0.583832 0.717588 0.865094 0.357049
H75   H     H_    0.717591 0.583712 0.135106 0.357054
H76   H     H_    0.584289 0.282396 0.134137 0.357061
H77   H     H_    0.282417 0.416491 0.135439 0.357042
H78   H     H_    0.982666 0.109427 0.412696 0.157300
H79   H     H_    0.416156 0.717592 0.134887 0.357047
H80   H     H_    0.390582 0.517697 0.087104 0.157268
N1    N     N_1   0.689897 0.917302 0.439580 -0.170511
N2    N     N_1   0.582952 0.189908 0.940551 -0.170486
N3    N     N_1   0.810086 0.583175 0.941415 -0.170459
N4    N     N_1   0.416903 0.810085 0.941141 -0.170464
N5    N     N_1   0.810082 0.416829 0.058578 -0.170471
N6    N     N_1   0.417045 0.189904 0.059458 -0.170480
N7    N     N_1   0.189920 0.583227 0.058360 -0.170457
N8    N     N_1   0.583096 0.810082 0.058853 -0.170468
N9    N     N_1   0.083114 0.689916 0.441191 -0.170465
N10   N     N_1   0.310078 0.083239 0.441693 -0.170458
N11   N     N_1   0.917016 0.310091 0.440703 -0.170487
N12   N     N_1   0.310081 0.916759 0.558316 -0.170448
N13   N     N_1   0.916884 0.689914 0.558814 -0.170479
N14   N     N_1   0.689896 0.082699 0.560420 -0.170514
N15   N     N_1   0.082985 0.310092 0.559301 -0.170468
N16   N     N_1   0.189920 0.416773 0.941635 -0.170463
O1    O     O_R   0.550900 0.028770 0.500040 -0.620716
O2    O     O_R   0.471230 0.050900 0.000040 -0.620781
O3    O     O_R   0.949100 0.471230 0.000040 -0.620845
O4    O     O_R   0.528770 0.949100 0.000040 -0.620827
O5    O     O_R   0.949100 0.528770 0.999960 -0.620843
O6    O     O_R   0.528770 0.050900 0.999960 -0.620787
O7    O     O_R   0.050900 0.471230 0.999960 -0.620859
O8    O     O_R   0.471230 0.949100 0.999960 -0.620821
O9    O     O_R   0.499990 0.028770 0.582790 -0.610614
O10   O     O_R   0.971230 0.499990 0.582790 -0.610559
O11   O     O_R   0.500010 0.971230 0.582790 -0.610532
O12   O     O_R   0.971230 0.550900 0.500040 -0.620827
O13   O     O_R   0.028770 0.500010 0.582790 -0.610576
O14   O     O_R   0.500010 0.028770 0.417210 -0.610536
O15   O     O_R   0.028770 0.499990 0.417210 -0.610557
O16   O     O_R   0.499990 0.971230 0.417210 -0.610609
O17   O     O_R   0.971230 0.500010 0.417210 -0.610577
O18   O     O_R   0.999990 0.528770 0.082790 -0.610556
O19   O     O_R   0.471230 0.999990 0.082790 -0.610576
O20   O     O_R   0.000010 0.471230 0.082790 -0.610570
O21   O     O_R   0.528770 0.000010 0.082790 -0.610566
O22   O     O_R   0.000010 0.528770 0.917210 -0.610567
O23   O     O_R   0.449100 0.971230 0.500040 -0.620860
O24   O     O_R   0.528770 0.999990 0.917210 -0.610588
O25   O     O_R   0.999990 0.471230 0.917210 -0.610560
O26   O     O_R   0.471230 0.000010 0.917210 -0.610553
O27   O     O_R   0.999980 0.949050 0.546640 -0.621004
O28   O     O_R   0.050950 0.999980 0.546640 -0.620908
O29   O     O_R   0.000020 0.050950 0.546640 -0.620932
O30   O     O_R   0.949050 0.000020 0.546640 -0.621059
O31   O     O_R   0.000020 0.949050 0.453360 -0.620893
O32   O     O_R   0.949050 0.999980 0.453360 -0.621028
O33   O     O_R   0.999980 0.050950 0.453360 -0.621040
O34   O     O_R   0.028770 0.449100 0.500040 -0.620794
O35   O     O_R   0.050950 0.000020 0.453360 -0.620938
O36   O     O_R   0.499980 0.449050 0.046640 -0.620987
O37   O     O_R   0.550950 0.499980 0.046640 -0.620954
O38   O     O_R   0.500020 0.550950 0.046640 -0.620961
O39   O     O_R   0.449050 0.500020 0.046640 -0.620899
O40   O     O_R   0.500020 0.449050 0.953360 -0.621002
O41   O     O_R   0.449050 0.499980 0.953360 -0.620934
O42   O     O_R   0.499980 0.550950 0.953360 -0.620947
O43   O     O_R   0.550950 0.500020 0.953360 -0.620920
O44   O     O_2   0.813288 0.063075 0.447172 -0.611173
O45   O     O_R   0.449100 0.028770 0.499960 -0.620862
O46   O     O_R   0.768354 0.066258 0.386097 -0.799111
O47   O     O_2   0.937301 0.813265 0.445920 -0.611098
O48   O     O_R   0.934696 0.768393 0.384643 -0.799118
O49   O     O_2   0.186743 0.937413 0.445528 -0.611165
O50   O     O_R   0.231600 0.934972 0.384204 -0.799125
O51   O     O_2   0.062829 0.186728 0.446358 -0.611218
O52   O     O_R   0.065639 0.231624 0.385159 -0.799139
O53   O     O_2   0.186750 0.062593 0.554455 -0.611119
O54   O     O_R   0.231581 0.064992 0.615835 -0.799115
O55   O     O_2   0.062696 0.813264 0.554087 -0.611206
O56   O     O_R   0.028770 0.550900 0.499960 -0.620826
O57   O     O_R   0.065301 0.768391 0.615363 -0.799133
O58   O     O_2   0.813287 0.936924 0.552827 -0.611204
O59   O     O_R   0.768356 0.933747 0.613907 -0.799116
O60   O     O_2   0.937165 0.186733 0.553621 -0.611100
O61   O     O_R   0.934384 0.231609 0.614864 -0.799118
O62   O     O_2   0.313259 0.562589 0.945557 -0.611172
O63   O     O_R   0.268405 0.565029 0.884229 -0.799136
O64   O     O_2   0.437143 0.313279 0.946441 -0.611219
O65   O     O_R   0.434273 0.268370 0.885275 -0.799125
O66   O     O_2   0.686743 0.437338 0.945783 -0.611121
O67   O     O_R   0.550900 0.971230 0.499960 -0.620714
O68   O     O_R   0.731590 0.434825 0.884443 -0.799113
O69   O     O_2   0.562711 0.686738 0.945928 -0.611172
O70   O     O_R   0.565314 0.731603 0.884639 -0.799118
O71   O     O_2   0.686735 0.562658 0.054231 -0.611170
O72   O     O_R   0.731607 0.565213 0.115513 -0.799135
O73   O     O_2   0.562860 0.313274 0.053549 -0.611189
O74   O     O_R   0.565707 0.268381 0.114756 -0.799109
O75   O     O_2   0.313261 0.437413 0.054457 -0.611140
O76   O     O_R   0.268401 0.434965 0.115775 -0.799122
O77   O     O_2   0.437292 0.686735 0.054072 -0.611192
O78   O     O_R   0.971230 0.449100 0.499960 -0.620794
O79   O     O_R   0.434675 0.731607 0.115343 -0.799124
O80   O     O_R   0.050900 0.528770 0.000040 -0.620857
Zn1   Zn    Zn3+2 0.500000 0.038410 0.500000 0.988335
Zn2   Zn    Zn3+2 0.000000 0.000000 0.437580 0.985401
Zn3   Zn    Zn3+2 0.500000 0.500000 0.062420 0.985467
Zn4   Zn    Zn3+2 0.500000 0.500000 0.937580 0.985465
Zn5   Zn    Zn3+2 0.961590 0.500000 0.500000 0.988332
Zn6   Zn    Zn3+2 0.500000 0.961590 0.500000 0.988349
Zn7   Zn    Zn3+2 0.038410 0.500000 0.500000 0.988337
Zn8   Zn    Zn3+2 0.000000 0.538410 0.000000 0.988296
Zn9   Zn    Zn3+2 0.461590 0.000000 0.000000 0.988345
Zn10  Zn    Zn3+2 0.000000 0.461590 0.000000 0.988285
Zn11  Zn    Zn3+2 0.538410 0.000000 0.000000 0.988304
Zn12  Zn    Zn3+2 0.000000 0.000000 0.562420 0.985398

loop_
_geom_bond_atom_site_label_1
_geom_bond_atom_site_label_2
_ccdc_geom_bond_type
C103  O59   S    
C1    O67   A    
O8    Zn9   S    
C120  N13   T    
C109  O72   S    
C68   C138  A    
C212  O42   A    
C86   C147  A    
C79   C87   A    
C82   C147  A    
O2    Zn9   S    
C52   H18   S    
C125  C163  S    
C84   C145  A    
C56   H22   S    
C162  O7    A    
C8    C214  S    
C185  H59   S    
C130  N7    T    
C186  H60   S    
C92   C109  S    
C209  O32   A    
C213  O41   A    
C167  C185  A    
C94   C111  S    
C36   C53   A    
C58   H24   S    
C127  N4    T    
O24   Zn11  S    
C38   C55   A    
C78   C96   S    
C121  N14   T    
C62   C145  S    
H73   O68   S    
C123  N16   T    
C4    C12   S    
C63   C146  S    
C136  C198  S    
C85   C103  S    
C176  H50   S    
C93   C110  S    
C102  O57   S    
C41   C74   A    
C120  C158  S    
C96   O44   D    
C85   C144  A    
C162  C192  S    
C110  O74   S    
O28   Zn12  S    
C207  O28   A    
C129  N6    T    
C40   C58   A    
C87   C148  A    
C211  O37   A    
C173  O6    A    
C169  C187  A    
C66   C149  S    
C47   C64   A    
C48   C63   A    
C151  O78   A    
C172  C190  A    
C116  N9    T    
O42   Zn4   S    
C112  O56   A    
C61   C144  S    
C207  O35   A    
C39   C56   A    
H74   O70   S    
C55   H21   S    
C181  C194  A    
C160  C178  A    
C135  C206  A    
C46   C84   A    
C68   H35   S    
C33   C73   A    
C133  H42   S    
C73   C208  S    
C133  C139  A    
O6    Zn11  S    
O43   Zn4   S    
C57   H33   S    
C27   C71   A    
C43   C61   A    
C16   C25   T    
C131  C169  S    
C49   C62   A    
C89   C101  A    
C34   C52   A    
C112  O12   A    
C51   C64   A    
C135  C197  S    
H70   O61   S    
O13   Zn7   S    
C8    C17   T    
H62   O46   S    
H77   O76   S    
C51   H17   S    
C115  N1    T    
C44   C62   A    
C46   H32   S    
C35   C137  A    
C125  N2    T    
C176  C189  A    
C122  N15   T    
C158  C198  A    
C57   C85   A    
H75   O72   S    
C90   C141  A    
C3    C11   S    
C195  C196  S    
C83   C100  S    
C71   C205  S    
C20   C21   S    
O14   Zn1   S    
C31   H56   S    
C57   C135  A    
C95   C152  A    
O11   Zn6   S    
C2    H28   S    
C52   C65   A    
H65   O52   S    
C5    O19   A    
C75   C210  S    
C80   C97   S    
C84   C102  S    
C79   H36   S    
C206  H27   S    
C184  O3    A    
C54   H20   S    
C86   C104  S    
C128  N5    T    
C140  O45   A    
O19   Zn9   S    
O16   Zn6   S    
C213  O39   A    
C177  C188  A    
C29   C47   A    
C30   C48   A    
C165  C204  A    
C24   C138  A    
C177  H51   S    
C28   H23   S    
C123  C161  S    
C178  H52   S    
O23   Zn6   S    
C183  C194  A    
C205  O31   A    
C45   H11   S    
C167  C202  A    
C164  C181  A    
C27   C44   A    
C137  C199  S    
C153  C170  A    
C117  C155  S    
C118  C156  S    
O4    Zn11  S    
C161  C179  A    
C93   C132  A    
C99   O51   D    
H66   O54   S    
O41   Zn4   S    
O34   Zn7   S    
O9    Zn1   S    
C31   C71   A    
C134  C143  A    
C74   C213  S    
C112  C189  S    
C42   H8    S    
C187  H61   S    
C94   C148  A    
C97   O48   S    
C168  C186  A    
C140  O23   A    
C111  O76   S    
C141  C202  S    
C208  O33   A    
C105  O63   S    
C32   C70   A    
C126  N3    T    
C7    O24   A    
C99   O52   S    
C36   C75   A    
C78   C144  A    
C101  C142  A    
C87   C105  S    
C119  C157  S    
H71   O63   S    
C118  N11   T    
O12   Zn5   S    
C117  N10   T    
O32   Zn2   S    
C55   C69   A    
C98   O49   D    
C173  O2    A    
C214  O11   A    
O26   Zn9   S    
C155  C199  A    
O15   Zn7   S    
C132  C141  A    
C37   H3    S    
C69   C152  S    
C116  C154  S    
H72   O65   S    
C109  O71   D    
C30   C72   A    
C114  O79   S    
C208  O29   A    
C108  O69   D    
C174  C191  A    
C60   H26   S    
H63   O48   S    
C14   C22   T    
C100  O53   D    
C59   C65   A    
O78   Zn5   S    
C10   C216  S    
C102  O55   D    
C60   C69   A    
C184  C194  S    
C154  C171  A    
C166  C203  A    
O3    Zn10  S    
C130  C168  S    
C9    C18   T    
H64   O50   S    
C42   C77   A    
O33   Zn2   S    
C170  C188  A    
C50   C61   A    
C44   H10   S    
C115  C153  S    
C180  C193  A    
C26   H1    S    
C13   H29   S    
C187  C196  A    
C82   C99   S    
C93   C149  A    
O29   Zn12  S    
C175  C190  A    
O10   Zn5   S    
C156  C174  A    
C165  C182  A    
C92   C124  A    
C91   C152  A    
C81   C98   S    
C95   C114  S    
C13   C81   A    
C94   C133  A    
C140  C190  S    
C88   C149  A    
C216  O14   A    
C77   C212  S    
C106  O64   D    
C155  C172  A    
C134  H43   S    
C210  O40   A    
O21   Zn11  S    
C33   H78   S    
C162  O80   A    
H69   O59   S    
O20   Zn10  S    
C67   C150  S    
O38   Zn3   S    
C28   C72   A    
C31   C49   A    
C106  O65   S    
C114  O77   D    
C179  H53   S    
C11   C20   T    
C4    O20   A    
C205  O27   A    
C7    O26   A    
C210  O36   A    
C79   C139  A    
C36   H2    S    
C35   C83   A    
C195  O8    A    
C183  H58   S    
O17   Zn5   S    
C95   C134  A    
C9    C215  S    
C113  C143  A    
C40   H6    S    
C78   C206  A    
O37   Zn3   S    
C164  C203  A    
C96   O46   S    
O35   Zn2   S    
O5    Zn8   S    
C10   C19   T    
C89   C107  S    
O1    Zn1   S    
C211  O43   A    
C65   C148  S    
C5    C14   S    
C34   C74   A    
C80   C145  A    
C37   C76   A    
C88   C90   A    
C214  O9    A    
C173  C193  S    
C26   C70   A    
C215  O13   A    
O31   Zn2   S    
C110  O73   D    
C111  O75   D    
O45   Zn1   S    
C104  O60   D    
C4    O18   A    
C91   C108  S    
C166  C183  A    
O40   Zn4   S    
C132  H41   S    
C38   C77   A    
C33   C51   A    
O39   Zn3   S    
C40   C75   A    
C30   H45   S    
C216  O16   A    
C172  H47   S    
C101  H38   S    
C151  O34   A    
C212  O38   A    
C142  C203  S    
C107  O68   S    
C154  C198  A    
C27   H12   S    
O27   Zn12  S    
C159  C197  A    
C103  O58   D    
C29   C73   A    
O25   Zn10  S    
C39   H5    S    
O36   Zn3   S    
C169  C204  A    
C138  C200  S    
C163  C202  A    
C113  H39   S    
C1    O1    A    
C68   C86   A    
C24   H30   S    
C124  H40   S    
C175  H49   S    
C160  C200  A    
H79   O79   S    
C97   O47   D    
O56   Zn7   S    
C161  C201  A    
H76   O74   S    
C105  O62   D    
C153  C197  A    
C5    O21   A    
C83   C146  A    
C168  C201  A    
C171  C189  A    
C104  O61   S    
C24   C82   A    
C184  O5    A    
C6    C15   S    
C58   C66   A    
C179  C192  A    
C53   H19   S    
C98   O50   S    
C127  C165  S    
C48   H14   S    
C15   C23   T    
C3    O15   A    
C128  C166  S    
C124  C142  A    
C156  C200  A    
C159  C177  A    
C126  C164  S    
C26   C43   A    
C72   C207  S    
C3    O17   A    
C28   C45   A    
C119  N12   T    
C129  C167  S    
C18   C23   S    
C38   H4    S    
C131  N8    T    
C19   C22   S    
C41   C59   A    
C139  C201  S    
C42   C60   A    
C54   C67   A    
C107  O66   D    
C108  O70   S    
C46   C136  A    
C12   C21   T    
C45   C63   A    
C2    C136  A    
C91   C113  A    
C157  C199  A    
C13   C137  A    
C49   H15   S    
C171  H46   S    
C100  O54   S    
O22   Zn8   S    
C88   C106  S    
C209  O30   A    
C39   C76   A    
C50   H16   S    
C53   C66   A    
C32   C50   A    
C41   H7    S    
C157  C175  A    
C37   C54   A    
C76   C211  S    
C158  C176  A    
C90   H37   S    
C81   C146  A    
C182  H57   S    
C64   C147  S    
C34   H80   S    
C6    O22   A    
C182  C196  A    
C32   H67   S    
C89   C150  A    
C195  O4    A    
C1    C188  S    
O18   Zn8   S    
C7    C16   S    
O7    Zn10  S    
C215  O10   A    
C185  C193  A    
C17   C25   S    
O30   Zn12  S    
C47   H13   S    
C56   C67   A    
C35   H31   S    
C59   H25   S    
C29   H34   S    
O80   Zn8   S    
C6    O25   A    
C92   C150  A    
C178  C191  A    
O67   Zn6   S    
C151  C191  S    
C143  C204  S    
C186  C192  A    
C180  H54   S    
C2    C80   A    
H68   O57   S    
C174  H48   S    
C121  C159  S    
C163  C180  A    
C70   C209  S    
C122  C160  S    
C170  H44   S    
C181  H55   S    
C43   H9    S    
