data_mof_unit_52132.cif
_audit_creation_date              2012-12-10T18:11:39-0500
_audit_creation_method            fapswitch 2.2
_symmetry_space_group_name_H-M    P1
_symmetry_Int_Tables_number       1
_space_group_crystal_system       triclinic
_cell_length_a                    10.495784
_cell_length_b                    12.612812
_cell_length_c                    13.172323
_cell_angle_alpha                 82.40792
_cell_angle_beta                  90.716573
_cell_angle_gamma                 101.949459
_cell_volume                      1690.83027371

loop_
_atom_site_label
_atom_site_type_symbol
_atom_type_description
_atom_site_fract_x
_atom_site_fract_y
_atom_site_fract_z
_atom_type_partial_charge
C1    C     C_R   0.487580 0.439144 0.691122 0.857637
C2    C     C_3   0.067031 0.603469 0.503047 -0.180395
C3    C     C_3   0.969016 0.535967 0.586203 -0.208548
C4    C     C_3   0.877048 0.499827 0.500362 -0.034271
C5    C     C_R   0.658940 0.715240 0.061831 0.271408
C6    C     C_R   0.532911 0.597989 0.200622 -0.124002
C7    C     C_R   0.360208 0.316047 0.829726 -0.258016
C8    C     C_R   0.294524 0.311401 0.921350 -0.121704
C9    C     C_R   0.333035 0.392285 0.984683 0.255075
C10   C     C_R   0.453315 0.469928 0.964039 0.023976
C11   C     C_R   0.519186 0.473920 0.870422 0.074715
C12   C     C_R   0.741916 0.499922 0.500826 0.874404
C13   C     C_R   0.509316 0.545705 0.030645 0.062650
C14   C     C_R   0.612234 0.635770 0.996608 0.096421
C15   C     C_R   0.674036 0.637817 0.903157 -0.191770
C16   C     C_R   0.634225 0.553455 0.845090 -0.186333
C17   C     C_R   0.478417 0.525220 0.134104 -0.192995
C18   C     C_R   0.616715 0.696525 0.163752 -0.220734
C19   C     C_R   0.464514 0.403001 0.800150 -0.110308
C20   C     C_R   0.314897 0.093026 0.344172 0.192188
C21   C     C_R   0.653986 0.799983 0.629419 0.040511
C22   C     C_R   0.684477 0.904387 0.657252 -0.224426
C23   C     C_R   0.515158 0.560915 0.309153 0.885175
C24   C     C_R   0.624814 0.985203 0.607572 -0.168159
C25   C     C_R   0.533852 0.961904 0.528777 0.038811
C26   C     C_R   0.506761 0.854430 0.503916 0.191067
C27   C     C_R   0.469436 0.040472 0.474409 -0.078177
C28   C     C_R   0.377325 0.010781 0.395624 0.074069
C29   C     C_R   0.353615 0.901380 0.372790 0.119982
C30   C     C_R   0.419025 0.827065 0.426980 -0.220971
C31   C     C_R   0.494326 0.148832 0.496037 -0.048379
C32   C     C_R   0.345617 0.197669 0.371237 -0.017501
C33   C     C_R   0.258142 0.500330 0.498559 0.885816
C34   C     C_3   0.933138 0.397379 0.495219 -0.171207
C35   C     C_3   0.027293 0.434587 0.580015 0.217121
C36   C     C_3   0.123105 0.500924 0.498056 -0.037395
C37   C     C_3   0.031159 0.464859 0.412107 -0.196768
C38   C     C_3   0.972714 0.566205 0.418291 0.195921
H1    H     H_    0.422784 0.446270 0.165704 0.203620
H2    H     H_    0.318439 0.260367 0.776390 0.181817
H3    H     H_    0.204928 0.251216 0.937621 0.202958
H4    H     H_    0.692162 0.552907 0.777764 0.140861
H5    H     H_    0.299910 0.261340 0.333310 0.183368
H6    H     H_    0.562025 0.178561 0.552774 0.135421
H7    H     H_    0.700084 0.736724 0.667273 0.128868
H8    H     H_    0.875401 0.313314 0.493151 0.165034
H9    H     H_    0.652403 0.064308 0.632997 0.140254
H10   H     H_    0.753984 0.922672 0.717172 0.175128
H11   H     H_    0.399902 0.746344 0.407374 0.219940
H12   H     H_    0.060908 0.437007 0.341182 0.186196
H13   H     H_    0.124838 0.687550 0.504927 0.168642
H14   H     H_    0.939298 0.563847 0.657124 0.148634
H15   H     H_    0.658418 0.753856 0.215647 0.196414
H16   H     H_    0.758446 0.700284 0.877180 0.183203
N1    N     N_R   0.432930 0.222190 0.444670 -0.130556
N2    N     N_R   0.566370 0.776980 0.554790 -0.126977
O1    O     O_R   0.467970 0.366730 0.627150 -0.615152
O2    O     O_R   0.510820 0.544830 0.662520 -0.609265
O3    O     O_R   0.664630 0.410960 0.482340 -0.619961
O4    O     O_R   0.707470 0.589060 0.517710 -0.625142
O5    O     O_R   0.489180 0.455170 0.337480 -0.611406
O6    O     O_R   0.532030 0.633270 0.372850 -0.640463
O7    O     O_R   0.292530 0.410940 0.482290 -0.613080
O8    O     O_R   0.335370 0.589040 0.517660 -0.641682
Zn1   Zn    Zn3+2 0.471390 0.381080 0.476380 0.950539
Zn2   Zn    Zn3+2 0.528610 0.618920 0.523620 0.934558
C39   C     C_3   0.062189 0.360265 0.672082 -0.889943
H17   H     H_    0.973330 0.322776 0.719083 0.249138
H18   H     H_    0.104400 0.294704 0.645757 0.248177
H19   H     H_    0.134485 0.408660 0.719306 0.248722
Br1   Br    Br    0.198401 0.404809 0.078335 -0.521629
C40   C     C_3   0.261139 0.857813 0.292112 -0.784137
H20   H     H_    0.258424 0.770228 0.286558 0.208992
H21   H     H_    0.160300 0.862860 0.311721 0.269973
H22   H     H_    0.293159 0.902564 0.215479 0.285537
Br2   Br    Br    0.187698 0.079592 0.237220 -0.492200
C41   C     C_3   0.936395 0.639922 0.326300 -0.846101
H23   H     H_    0.023002 0.672917 0.275697 0.253522
H24   H     H_    0.858864 0.592287 0.282565 0.243380
H25   H     H_    0.900338 0.708609 0.352567 0.251421
Br3   Br    Br    0.787398 0.845555 0.019103 -0.501513

loop_
_geom_bond_atom_site_label_1
_geom_bond_atom_site_label_2
_ccdc_geom_bond_type
C22   H10   S    
O7    Zn1   S    
C34   C37   S    
C35   C36   S    
C7    C8    A    
C41   H23   S    
C11   C19   A    
C29   C30   A    
C36   C37   S    
C15   C16   A    
C33   C36   S    
C20   Br2   S    
C34   C35   S    
C17   H1    S    
C18   H15   S    
C12   O3    A    
O2    Zn2   S    
C23   O6    A    
C8    C9    A    
C7    H2    S    
C34   H8    S    
C3    C35   S    
C4    C12   S    
C9    C10   A    
C32   N1    A    
C29   C40   S    
O4    Zn2   S    
C21   C22   A    
C40   H22   S    
N1    Zn1   S    
C21   H7    S    
C41   H24   S    
C6    C18   A    
C4    C34   S    
C1    C19   S    
C31   H6    S    
O6    Zn2   S    
C27   C31   A    
C39   H17   S    
C15   H16   S    
C8    H3    S    
C40   H21   S    
C2    H13   S    
C5    C18   A    
C20   C28   A    
C25   C26   A    
C39   H18   S    
O8    Zn2   S    
C37   C38   S    
C1    O1    A    
C5    Br3   S    
C11   C16   A    
C2    C38   S    
C35   C39   S    
C33   O7    A    
C24   C25   A    
C5    C14   A    
C30   H11   S    
C4    C38   S    
C26   C30   A    
C7    C19   A    
C22   C24   A    
C3    C4    S    
C16   H4    S    
C20   C32   A    
C41   H25   S    
C2    C36   S    
C6    C17   A    
C28   C29   A    
C24   H9    S    
C9    Br1   S    
O1    Zn1   S    
C40   H20   S    
C10   C13   A    
C26   N2    A    
C21   N2    A    
C3    H14   S    
C38   C41   S    
C25   C27   A    
C13   C17   A    
C39   H19   S    
C2    C3    S    
C1    O2    A    
O3    Zn1   S    
C37   H12   S    
C33   O8    A    
N2    Zn2   S    
C6    C23   S    
C32   H5    S    
C10   C11   A    
C12   O4    A    
O5    Zn1   S    
C23   O5    A    
C27   C28   A    
C14   C15   A    
C31   N1    A    
C13   C14   A    
