data_mof_unit_9202.cif
_audit_creation_date              2012-10-26T20:32:23-0400
_audit_creation_method            fapswitch 2.2
_symmetry_space_group_name_H-M    P1
_symmetry_Int_Tables_number       1
_space_group_crystal_system       triclinic
_cell_length_a                    19.323995
_cell_length_b                    10.820258
_cell_length_c                    9.569059
_cell_angle_alpha                 90.297674
_cell_angle_beta                  90.60283
_cell_angle_gamma                 91.793622
_cell_volume                      1999.67886764

loop_
_atom_site_label
_atom_site_type_symbol
_atom_type_description
_atom_site_fract_x
_atom_site_fract_y
_atom_site_fract_z
_atom_type_partial_charge
C1    C     C_R   0.502432 0.262589 0.499657 0.553044
C2    C     C_R   0.854812 0.509076 0.508650 0.001735
C3    C     C_R   0.485771 0.063639 0.616119 0.031651
C4    C     C_R   0.367643 0.501253 0.499316 0.505662
C5    C     C_R   0.510084 0.129611 0.500592 0.011383
C6    C     C_R   0.542991 0.064619 0.391720 0.006975
C7    C     C_R   0.539067 0.934831 0.392447 -0.073657
C8    C     C_R   0.506624 0.870843 0.502160 0.007626
C9    C     C_R   0.485069 0.936561 0.618136 0.009121
C10   C     C_3   0.417132 0.928473 0.691006 -0.253651
C11   C     C_3   0.417508 0.068505 0.687354 -0.249031
C12   C     C_R   0.291526 0.506552 0.497254 -0.046841
C13   C     C_R   0.546428 0.573053 0.074940 0.146027
C14   C     C_R   0.458944 0.417232 0.070857 0.104386
C15   C     C_R   0.459474 0.418924 0.922105 0.045087
C16   C     C_R   0.500633 0.737528 0.500357 0.591467
C17   C     C_R   0.546557 0.572659 0.927870 0.150050
C18   C     C_3   0.554448 0.709858 0.922067 -0.255557
C19   C     C_3   0.553691 0.710590 0.080387 -0.257679
C20   C     C_R   0.632442 0.500037 0.500711 0.636209
C21   C     C_R   0.251220 0.419758 0.574116 -0.014562
C22   C     C_R   0.179261 0.427895 0.572521 -0.082263
C23   C     C_R   0.930993 0.510809 0.507313 0.366676
C24   C     C_R   0.146438 0.518553 0.495462 0.000431
C25   C     C_R   0.185542 0.605402 0.416338 0.012309
C26   C     C_R   0.258868 0.601030 0.420692 0.013995
C27   C     C_2   0.282999 0.317954 0.654003 0.240783
C28   C     C_2   0.411661 0.324011 0.136763 0.243541
C29   C     C_3   0.149660 0.694107 0.317740 -0.235950
C30   C     C_3   0.153182 0.648208 0.166031 -0.310548
C31   C     C_3   0.116748 0.735169 0.066289 -0.410060
C32   C     C_2   0.301828 0.697080 0.348728 0.215630
C33   C     C_2   0.855300 0.322780 0.667477 0.250922
C34   C     C_R   0.070699 0.516867 0.498013 0.318923
C35   C     C_2   0.706385 0.311620 0.654560 0.230098
C36   C     C_2   0.708813 0.693092 0.352639 0.288603
C37   C     C_2   0.859894 0.695805 0.354083 0.234096
C38   C     C_2   0.582462 0.128335 0.279162 0.283912
C39   C     C_R   0.817920 0.416571 0.584146 -0.020877
C40   C     C_R   0.744783 0.411828 0.578951 -0.054029
C41   C     C_R   0.708924 0.502442 0.502891 -0.001284
C42   C     C_R   0.746124 0.596855 0.430720 -0.005769
C43   C     C_R   0.819295 0.599421 0.432282 -0.034885
Cu1   Cu    Cu3+1 0.500000 0.499980 0.640670 0.988088
Cu2   Cu    Cu3+1 0.500000 0.500020 0.359330 0.947313
H1    H     H_    0.561427 0.883774 0.307750 0.188620
H2    H     H_    0.147817 0.361902 0.631022 0.192857
H3    H     H_    0.507150 0.754683 0.123031 0.159585
H4    H     H_    0.337857 0.302362 0.648077 0.109488
H5    H     H_    0.399221 0.326174 0.245455 0.176504
H6    H     H_    0.061227 0.741183 0.093709 0.174385
H7    H     H_    0.141738 0.828974 0.071291 0.183974
H8    H     H_    0.120215 0.699475 0.957648 0.176962
H9    H     H_    0.207958 0.641333 0.133580 0.172033
H10   H     H_    0.127893 0.554695 0.157466 0.190499
H11   H     H_    0.094510 0.704582 0.344034 0.166183
H12   H     H_    0.375336 0.883878 0.625758 0.187911
H13   H     H_    0.173050 0.788640 0.327570 0.211607
H14   H     H_    0.338620 0.671051 0.269934 0.135243
H15   H     H_    0.834451 0.228833 0.675086 0.124501
H16   H     H_    0.723727 0.283162 0.757351 0.120223
H17   H     H_    0.725179 0.719518 0.248575 0.134515
H18   H     H_    0.908122 0.672588 0.304643 0.120978
H19   H     H_    0.601374 0.223059 0.292418 0.158435
H20   H     H_    0.421766 0.891453 0.798611 0.148553
H21   H     H_    0.376270 0.104033 0.618103 0.150162
H22   H     H_    0.421860 0.112143 0.792624 0.190465
H23   H     H_    0.425853 0.356528 0.861838 0.158260
H24   H     H_    0.605113 0.740573 0.878130 0.157229
H25   H     H_    0.508657 0.753999 0.875469 0.157691
H26   H     H_    0.603890 0.742660 0.127471 0.157295
N1    N     N_R   0.036848 0.612244 0.555456 -0.216906
N2    N     N_R   0.968034 0.609448 0.559587 -0.190724
N3    N     N_R   0.964913 0.414681 0.451663 -0.182070
N4    N     N_R   0.033731 0.417452 0.447658 -0.197721
N5    N     N_R   0.500440 0.500930 0.147930 -0.270095
N6    N     N_R   0.500440 0.500890 0.852020 -0.258531
O1    O     O_R   0.500000 0.319640 0.618810 -0.480741
O2    O     O_2   0.384651 0.240158 0.067375 -0.523798
O3    O     O_2   0.297529 0.806074 0.379873 -0.518940
O4    O     O_2   0.908563 0.350212 0.731729 -0.454523
O5    O     O_2   0.656682 0.257012 0.600702 -0.505116
O6    O     O_2   0.661208 0.746747 0.406260 -0.514611
O7    O     O_2   0.841538 0.802671 0.348660 -0.466201
O8    O     O_2   0.595760 0.074513 0.170658 -0.502222
O9    O     O_R   0.500010 0.319680 0.381230 -0.553209
O10   O     O_R   0.400140 0.499970 0.618830 -0.513062
O11   O     O_R   0.400150 0.500010 0.381250 -0.551344
O12   O     O_R   0.499990 0.680320 0.618770 -0.500990
O13   O     O_R   0.500000 0.680360 0.381190 -0.500418
O14   O     O_R   0.599850 0.499990 0.618750 -0.463929
O15   O     O_R   0.599860 0.500030 0.381170 -0.489422
O16   O     O_2   0.247971 0.249196 0.727629 -0.478688

loop_
_geom_bond_atom_site_label_1
_geom_bond_atom_site_label_2
_ccdc_geom_bond_type
C18   H25   S    
C26   C32   S    
C41   C42   A    
C36   C42   S    
C31   H7    S    
C20   C41   S    
C7    C8    A    
C4    O10   A    
C15   N6    A    
C16   O13   A    
C30   H9    S    
C33   C39   S    
Cu2   N5    S    
C1    C5    S    
Cu1   N6    S    
C30   C31   S    
C36   O6    D    
C18   C19   S    
Cu2   O15   S    
C28   O2    D    
C19   H26   S    
C2    C39   A    
C8    C9    A    
C6    C38   S    
C37   O7    D    
C4    C12   S    
Cu1   O10   S    
C9    C10   S    
C11   H21   S    
C34   N4    A    
C18   H24   S    
C22   H2    S    
C21   C27   S    
C16   O12   A    
C8    C16   S    
C21   C22   A    
C1    O1    A    
C28   H5    S    
C23   N2    A    
C36   H17   S    
C37   H18   S    
C35   O5    D    
C11   H22   S    
C38   H19   S    
C25   C29   S    
C20   O14   A    
N3    N4    A    
C13   C19   S    
C38   O8    D    
C7    H1    S    
Cu2   O11   S    
C24   C25   A    
C39   C40   A    
C19   H3    S    
C25   C26   A    
C12   C21   A    
C24   C34   S    
C12   C26   A    
C14   N5    A    
C37   C43   S    
C29   C30   S    
C3    C9    A    
C32   O3    D    
C20   O15   A    
C13   N5    A    
C2    C43   A    
C10   H12   S    
C17   N6    A    
C17   C18   S    
C35   H16   S    
C31   H8    S    
Cu2   O13   S    
Cu1   O14   S    
C40   C41   A    
C33   H15   S    
C22   C24   A    
C27   O16   D    
C42   C43   A    
C23   N3    A    
C34   N1    A    
Cu1   Cu2   S    
C10   H20   S    
C1    O9    A    
C31   H6    S    
N1    N2    A    
C3    C5    A    
C6    C7    A    
C4    O11   A    
C29   H11   S    
C30   H10   S    
C13   C17   A    
Cu1   O1    S    
Cu2   O9    S    
C5    C6    A    
C15   H23   S    
C35   C40   S    
C3    C11   S    
C10   C11   S    
C29   H13   S    
C2    C23   S    
C14   C15   A    
C32   H14   S    
C14   C28   S    
C33   O4    D    
Cu1   O12   S    
C27   H4    S    
