data_mof_unit_25392.cif
_audit_creation_date              2012-12-10T17:22:43-0500
_audit_creation_method            fapswitch 2.2
_symmetry_space_group_name_H-M    P1
_symmetry_Int_Tables_number       1
_space_group_crystal_system       triclinic
_cell_length_a                    10.622643
_cell_length_b                    10.76182
_cell_length_c                    9.616292
_cell_angle_alpha                 90.022438
_cell_angle_beta                  89.611569
_cell_angle_gamma                 92.596657
_cell_volume                      1098.17060414

loop_
_atom_site_label
_atom_site_type_symbol
_atom_type_description
_atom_site_fract_x
_atom_site_fract_y
_atom_site_fract_z
_atom_type_partial_charge
C1    C     C_R   0.496135 0.262657 0.500021 0.781192
C2    C     C_3   0.960748 0.498927 0.367816 -0.102066
C3    C     C_3   0.037845 0.397943 0.437798 -0.215471
C4    C     C_3   0.122526 0.501355 0.502663 -0.029996
C5    C     C_R   0.287096 0.120087 0.631835 -0.187688
C6    C     C_R   0.188644 0.050534 0.695111 -0.145317
C7    C     C_R   0.188680 0.921203 0.694966 -0.132048
C8    C     C_R   0.287249 0.860630 0.631681 -0.163382
C9    C     C_R   0.388736 0.929244 0.568047 0.092352
C10   C     C_R   0.388612 0.060648 0.568058 0.093013
C11   C     C_R   0.488145 0.128469 0.499872 -0.094738
C12   C     C_R   0.259505 0.500270 0.500696 0.778834
C13   C     C_R   0.582220 0.067818 0.428446 -0.194147
C14   C     C_R   0.582393 0.939628 0.428498 -0.208438
C15   C     C_R   0.488471 0.870463 0.499963 -0.081907
C16   C     C_R   0.668873 0.663933 0.142749 -0.144739
C17   C     C_R   0.752136 0.743486 0.070161 -0.198599
C18   C     C_R   0.751987 0.743825 0.926833 -0.173200
C19   C     C_R   0.668535 0.664639 0.855173 -0.118109
C20   C     C_R   0.582811 0.580848 0.924717 0.207809
C21   C     C_R   0.582911 0.580637 0.074188 0.209435
C22   C     C_R   0.421178 0.423160 0.074366 -0.032674
C23   C     C_R   0.496699 0.737047 0.500024 0.754900
C24   C     C_R   0.421331 0.423073 0.926598 -0.005594
C25   C     C_R   0.740419 0.500700 0.499498 0.778215
C26   C     C_3   0.037941 0.503958 0.632137 0.328271
C27   C     C_3   0.951837 0.400335 0.568368 -0.186861
C28   C     C_3   0.877214 0.501353 0.498552 -0.021952
C29   C     C_3   0.961236 0.605018 0.563443 -0.214678
C30   C     C_3   0.047405 0.602392 0.432954 -0.205025
Cu1   Cu    Cu3+1 0.499990 0.499990 0.640660 0.950056
Cu2   Cu    Cu3+1 0.500010 0.500010 0.359340 0.939877
H1    H     H_    0.910164 0.317817 0.624044 0.147827
H2    H     H_    0.111359 0.867486 0.742807 0.149773
H3    H     H_    0.281656 0.760110 0.631107 0.162792
H4    H     H_    0.657682 0.894071 0.374884 0.132764
H5    H     H_    0.356464 0.360104 0.129798 0.142939
H6    H     H_    0.676119 0.672079 0.252335 0.191479
H7    H     H_    0.816969 0.805733 0.125885 0.146190
H8    H     H_    0.816765 0.806301 0.870399 0.143523
H9    H     H_    0.675537 0.673559 0.745516 0.189632
H10   H     H_    0.356831 0.359869 0.871970 0.154809
H11   H     H_    0.927156 0.689521 0.615232 0.132057
H12   H     H_    0.089353 0.685099 0.377864 0.151996
H13   H     H_    0.926234 0.497058 0.259066 0.168195
H14   H     H_    0.072009 0.313216 0.386599 0.145263
H15   H     H_    0.657382 0.120244 0.374806 0.148796
H16   H     H_    0.281397 0.220170 0.631298 0.143713
H17   H     H_    0.111310 0.097202 0.743110 0.144918
N1    N     N_R   0.501210 0.501210 0.147910 -0.203682
N2    N     N_R   0.501250 0.501290 0.852040 -0.201639
O1    O     O_R   0.499990 0.319640 0.618810 -0.580018
O2    O     O_R   0.500000 0.319660 0.381240 -0.576038
O3    O     O_R   0.316850 0.499960 0.618770 -0.559798
O4    O     O_R   0.316860 0.499980 0.381190 -0.572216
O5    O     O_R   0.500000 0.680340 0.618760 -0.599290
O6    O     O_R   0.500010 0.680360 0.381190 -0.588927
O7    O     O_R   0.683140 0.500020 0.618810 -0.589348
O8    O     O_R   0.683150 0.500040 0.381230 -0.604452
Br1   Br    Br    0.087590 0.508990 0.825739 -0.578583

loop_
_geom_bond_atom_site_label_1
_geom_bond_atom_site_label_2
_ccdc_geom_bond_type
C4    C26   S    
C16   C21   A    
Cu1   O5    S    
C4    C12   S    
C24   H10   S    
C9    C10   A    
Cu2   O4    S    
C19   C20   A    
C1    C11   S    
C2    C30   S    
Cu1   O1    S    
C22   N1    A    
C30   H12   S    
C20   C21   A    
C24   N2    A    
C15   C23   S    
C17   C18   A    
C9    C15   A    
C4    C30   S    
C23   O5    A    
C2    H13   S    
C12   O3    A    
C13   C14   A    
C27   H1    S    
C25   C28   S    
C11   C13   A    
C3    H14   S    
Cu2   N1    S    
C26   C27   S    
C29   C30   S    
Cu2   O6    S    
Cu1   O7    S    
C3    C27   S    
C21   N1    A    
C1    O1    A    
C2    C3    S    
C6    C7    A    
Cu1   O3    S    
C14   H4    S    
C5    C6    A    
C5    H16   S    
C22   C24   A    
C12   O4    A    
C2    C28   S    
C10   C11   A    
C5    C10   A    
C3    C4    S    
C17   H7    S    
C19   H9    S    
Cu2   O2    S    
C7    C8    A    
C7    H2    S    
C26   C29   S    
C13   H15   S    
C18   C19   A    
C25   O7    A    
C16   H6    S    
C27   C28   S    
C23   O6    A    
C1    O2    A    
C20   N2    A    
C28   C29   S    
C18   H8    S    
C25   O8    A    
Cu2   O8    S    
C14   C15   A    
C22   H5    S    
C26   Br1   S    
C29   H11   S    
C6    H17   S    
Cu1   Cu2   S    
C16   C17   A    
Cu1   N2    S    
C8    C9    A    
C8    H3    S    
