data_mof_unit_49721.cif
_audit_creation_date              2012-12-10T17:08:42-0500
_audit_creation_method            fapswitch 2.2
_symmetry_space_group_name_H-M    P1
_symmetry_Int_Tables_number       1
_space_group_crystal_system       triclinic
_cell_length_a                    27.702209
_cell_length_b                    11.061345
_cell_length_c                    9.962799
_cell_angle_alpha                 112.663364
_cell_angle_beta                  96.366037
_cell_angle_gamma                 92.501253
_cell_volume                      2787.2985938

loop_
_atom_site_label
_atom_site_type_symbol
_atom_type_description
_atom_site_fract_x
_atom_site_fract_y
_atom_site_fract_z
_atom_type_partial_charge
C1    C     C_R   0.496342 0.253569 0.439382 0.842273
C2    C     C_R   0.503656 0.746431 0.560618 0.842334
C3    C     C_R   0.102840 0.509019 0.529891 -0.102259
C4    C     C_R   0.897161 0.490952 0.470042 -0.102279
C5    C     C_R   0.127403 0.414057 0.566514 -0.176101
C6    C     C_R   0.872598 0.585951 0.433497 -0.176120
C7    C     C_R   0.100593 0.330921 0.615885 0.249996
C8    C     C_R   0.899407 0.669127 0.384182 0.250038
C9    C     C_R   0.129785 0.608375 0.506676 -0.058719
C10   C     C_R   0.870215 0.391542 0.493162 -0.058761
C11   C     C_R   0.355261 0.505015 0.512844 -0.246099
C12   C     C_R   0.644744 0.494938 0.487135 -0.246098
C13   C     C_R   0.972545 0.394242 0.512294 0.012154
C14   C     C_R   0.027458 0.605741 0.487636 0.012105
C15   C     C_R   0.975735 0.592422 0.456821 -0.090427
C16   C     C_R   0.024266 0.407575 0.543139 -0.090383
C17   C     C_R   0.948684 0.493700 0.481788 -0.019923
C18   C     C_R   0.051318 0.506285 0.518157 -0.019910
C19   C     C_R   0.943320 0.280707 0.499648 0.310793
C20   C     C_R   0.056688 0.719251 0.500224 0.310744
C21   C     C_R   0.893330 0.284632 0.502196 -0.169855
C22   C     C_R   0.106675 0.715280 0.497601 -0.169874
C23   C     C_R   0.407887 0.502715 0.503828 0.868775
C24   C     C_R   0.592115 0.497275 0.496167 0.868695
C25   C     C_R   0.050035 0.336402 0.615133 0.459585
C26   C     C_R   0.949962 0.663625 0.384874 0.459608
C27   C     C_2   0.494367 0.112364 0.405439 -0.290015
C28   C     C_2   0.505629 0.887636 0.594562 -0.289828
C29   C     C_2   0.500774 0.069964 0.515052 -0.116809
C30   C     C_2   0.499218 0.930036 0.484949 -0.116820
C31   C     C_2   0.505529 0.507968 0.079599 0.357481
C32   C     C_2   0.494469 0.492042 0.920407 0.357434
C33   C     C_R   0.178213 0.412641 0.560468 0.653471
C34   C     C_R   0.821789 0.587357 0.439552 0.653508
C35   C     C_R   0.180038 0.604000 0.504575 0.639549
C36   C     C_R   0.819960 0.395882 0.495217 0.639500
C37   C     C_R   0.287359 0.595131 0.644491 0.300389
C38   C     C_R   0.712635 0.404991 0.355336 0.300372
C39   C     C_R   0.337722 0.597322 0.636742 0.170590
C40   C     C_R   0.662274 0.402797 0.363098 0.170730
C41   C     C_R   0.322049 0.411963 0.397990 0.421100
C42   C     C_R   0.677970 0.587784 0.602127 0.421067
C43   C     C_R   0.272041 0.414474 0.404751 -0.206112
C44   C     C_R   0.727976 0.585267 0.595332 -0.206317
C45   C     C_R   0.254633 0.504744 0.527089 0.148474
C46   C     C_R   0.745371 0.495195 0.472848 0.148582
Cu1   Cu    Cu3+1 0.508480 0.521810 0.644910 1.111117
Cu2   Cu    Cu3+1 0.491520 0.478190 0.355090 1.111150
H1    H     H_    0.512199 0.956892 0.708572 0.193463
H2    H     H_    0.487798 0.043108 0.291428 0.193463
H3    H     H_    0.246545 0.345384 0.314533 0.195247
H4    H     H_    0.753484 0.654193 0.685643 0.195181
H5    H     H_    0.872090 0.199003 0.499732 0.229420
H6    H     H_    0.127916 0.800884 0.499997 0.229401
H7    H     H_    0.492657 0.860983 0.370787 0.213966
H8    H     H_    0.507334 0.139017 0.629214 0.213995
N1    N     N_R   0.202986 0.506432 0.529595 -0.446294
N2    N     N_R   0.797015 0.493502 0.470312 -0.446295
N3    N     N_2   0.478780 0.445430 0.137360 -0.065356
N4    N     N_2   0.521220 0.554570 0.862640 -0.065314
O1    O     O_R   0.504520 0.332330 0.577400 -0.580179
O2    O     O_R   0.495480 0.667670 0.422600 -0.580194
O3    O     O_R   0.490210 0.295500 0.332650 -0.524112
O4    O     O_R   0.509790 0.704500 0.667350 -0.524145
O5    O     O_R   0.437420 0.518430 0.622370 -0.531488
O6    O     O_R   0.562580 0.481570 0.377630 -0.531443
O7    O     O_R   0.423110 0.481600 0.377610 -0.522326
O8    O     O_R   0.576890 0.518400 0.622390 -0.522256
O9    O     O_2   0.202947 0.318685 0.583518 -0.454364
O10   O     O_2   0.797058 0.681369 0.416618 -0.454347
O11   O     O_2   0.794081 0.303497 0.522320 -0.483470
O12   O     O_2   0.205912 0.696301 0.477326 -0.483495
O13   O     O_3   0.338137 0.321388 0.275377 -0.531948
C47   C     C_3   0.344883 0.205210 0.299145 -0.145694
H9    H     H_    0.309831 0.160084 0.311580 0.175640
H10   H     H_    0.372601 0.223559 0.396460 0.132253
H11   H     H_    0.358614 0.133141 0.201977 0.218779
O14   O     O_3   0.661899 0.678139 0.724916 -0.531947
C48   C     C_3   0.655252 0.794591 0.701670 -0.145493
H12   H     H_    0.627495 0.776648 0.604555 0.132256
H13   H     H_    0.690321 0.839609 0.689219 0.175438
H14   H     H_    0.641614 0.866568 0.799097 0.218953
Br1   Br    Br    0.436138 0.383914 0.803565 -0.389517
Br2   Br    Br    0.563857 0.616105 0.196450 -0.389331
Br3   Br    Br    0.534635 0.738851 0.969533 -0.284992
Br4   Br    Br    0.465375 0.261148 0.030460 -0.284771
Br5   Br    Br    0.130261 0.217627 0.701656 -0.274315
Br6   Br    Br    0.869737 0.782518 0.298558 -0.274305
Br7   Br    Br    0.618620 0.267294 0.208194 -0.342194
Br8   Br    Br    0.381370 0.733005 0.791466 -0.342180
Br9   Br    Br    0.737485 0.285871 0.184599 -0.332014
Br10  Br    Br    0.262504 0.714491 0.815080 -0.331852
Br11  Br    Br    0.965168 0.106890 0.431128 -0.286958
Br12  Br    Br    0.034864 0.893099 0.568773 -0.286920
O15   O     O_3   0.026804 0.278762 0.694784 -0.501321
C49   C     C_3   0.021183 0.377340 0.831816 -0.237266
H15   H     H_    0.996308 0.449498 0.818669 0.133988
H16   H     H_    0.057021 0.428975 0.894446 0.164808
H17   H     H_    0.004510 0.330084 0.897830 0.206373
O16   O     O_3   0.973179 0.721284 0.305220 -0.501309
C50   C     C_3   0.978830 0.622712 0.168218 -0.237309
H18   H     H_    0.942996 0.570968 0.105575 0.164740
H19   H     H_    0.003740 0.550651 0.181417 0.134030
H20   H     H_    0.995474 0.669993 0.102190 0.206411

loop_
_geom_bond_atom_site_label_1
_geom_bond_atom_site_label_2
_ccdc_geom_bond_type
C21   H5    S    
C50   H18   S    
C27   C29   D    
C8    C26   A    
O13   C47   S    
C14   C18   A    
O15   C49   S    
C22   H6    S    
C45   N1    S    
C47   H10   S    
C19   C21   A    
C36   N2    A    
C9    C22   A    
C23   O7    A    
C49   H17   S    
C3    C18   A    
C31   N3    D    
C12   C42   A    
Cu1   N4    S    
C7    Br5   S    
C31   C32   S    
C44   C46   A    
C47   H11   S    
C5    C33   A    
C40   Br7   S    
C34   O10   S    
C39   Br8   S    
C19   Br11  S    
C27   H2    S    
C24   O6    A    
C1    C27   S    
C44   H4    S    
C50   H19   S    
C46   N2    S    
C41   C43   A    
C42   C44   A    
C1    O3    A    
C2    O4    A    
C10   C21   A    
C47   H9    S    
C13   C19   A    
C14   C20   A    
C4    C6    A    
Cu1   O4    S    
C5    C7    A    
O14   C48   S    
C15   C26   A    
C6    C8    A    
C3    C5    A    
C38   Br9   S    
C31   Br2   S    
C6    C34   A    
C49   H16   S    
C8    Br6   S    
C12   C40   A    
C29   C30   S    
C3    C9    A    
C28   H1    S    
Cu2   O2    S    
Cu1   Cu2   S    
C49   H15   S    
C11   C39   A    
C43   C45   A    
C4    C17   A    
C20   C22   A    
C35   O12   S    
C25   O15   S    
C50   H20   S    
C32   N4    D    
C37   C45   A    
Cu1   O8    S    
Cu2   N3    S    
C9    C35   A    
C16   C25   A    
C15   C17   A    
C32   Br1   S    
C20   Br12  S    
C33   N1    A    
C37   Br10  S    
Cu2   O3    S    
C1    O1    A    
Cu1   O1    S    
C48   H14   S    
C10   C36   A    
N4    Br3   S    
C36   O11   S    
C42   O14   S    
C29   H8    S    
C33   O9    S    
C30   H7    S    
C12   C24   S    
C48   H13   S    
C7    C25   A    
C13   C17   A    
C35   N1    A    
C23   O5    A    
C28   C30   D    
N3    Br4   S    
C37   C39   A    
C38   C40   A    
C43   H3    S    
C11   C23   S    
O16   C50   S    
C11   C41   A    
Cu2   O7    S    
C38   C46   A    
C24   O8    A    
C41   O13   S    
C48   H12   S    
C16   C18   A    
C13   C16   A    
C34   N2    A    
C14   C15   A    
C2    C28   S    
Cu2   O6    S    
C4    C10   A    
Cu1   O5    S    
C2    O2    A    
C26   O16   S    
