data_mof_unit_21773.cif
_audit_creation_date              2012-10-26T20:33:41-0400
_audit_creation_method            fapswitch 2.2
_symmetry_space_group_name_H-M    P1
_symmetry_Int_Tables_number       1
_space_group_crystal_system       triclinic
_cell_length_a                    10.750508
_cell_length_b                    9.095368
_cell_length_c                    7.789377
_cell_angle_alpha                 90.000046
_cell_angle_beta                  90.0
_cell_angle_gamma                 90.000015
_cell_volume                      761.64393119

loop_
_atom_site_label
_atom_site_type_symbol
_atom_type_description
_atom_site_fract_x
_atom_site_fract_y
_atom_site_fract_z
_atom_type_partial_charge
C1    C     C_R   0.500000 0.220047 0.500001 0.547783
C2    C     C_1   0.500000 0.934629 0.500006 -0.060709
C3    C     C_3   0.071784 0.638727 0.591885 -0.235323
C4    C     C_3   0.928216 0.638758 0.591827 -0.235341
C5    C     C_3   0.121558 0.499977 0.498826 0.048366
C6    C     C_3   0.878442 0.499978 0.498826 0.048372
C7    C     C_R   0.259218 0.499979 0.499744 0.536851
C8    C     C_R   0.740782 0.499980 0.499744 0.536852
C9    C     C_R   0.500000 0.779960 0.500001 0.547708
C10   C     C_1   0.500000 0.065378 0.500006 -0.060725
C11   C     C_3   0.071784 0.361165 0.591758 -0.235347
C12   C     C_3   0.071226 0.500039 0.311760 -0.231903
C13   C     C_3   0.928216 0.361193 0.591818 -0.235324
C14   C     C_3   0.928773 0.499984 0.311759 -0.231900
Cu1   Cu    Cu3+1 0.500000 0.500010 0.669080 0.995883
Cu2   Cu    Cu3+1 0.500000 0.500010 0.330920 0.995527
H1    H     H_    0.106050 0.358193 0.726570 0.129705
H2    H     H_    0.106573 0.739631 0.526804 0.108820
H3    H     H_    0.893951 0.641680 0.726643 0.129716
H4    H     H_    0.893486 0.739637 0.526631 0.108832
H5    H     H_    0.105270 0.598887 0.241675 0.128668
H6    H     H_    0.894008 0.358321 0.726664 0.129721
H7    H     H_    0.894678 0.598766 0.241590 0.128683
H8    H     H_    0.106514 0.260311 0.526511 0.108832
H9    H     H_    0.105321 0.401282 0.241546 0.128691
H10   H     H_    0.893426 0.260311 0.526686 0.108817
H11   H     H_    0.894730 0.401158 0.241625 0.128673
H12   H     H_    0.105990 0.641549 0.726730 0.129736
N1    N     N_1   0.500000 0.499970 0.076820 -0.086721
N2    N     N_1   0.500000 0.499970 0.923180 -0.086641
O1    O     O_R   0.500000 0.288400 0.642760 -0.495993
O2    O     O_R   0.500000 0.288400 0.357240 -0.495707
O3    O     O_R   0.317700 0.499990 0.642790 -0.510006
O4    O     O_R   0.317700 0.499990 0.357210 -0.511411
O5    O     O_R   0.682300 0.499990 0.642790 -0.510006
O6    O     O_R   0.682300 0.499990 0.357210 -0.511412
O7    O     O_R   0.500000 0.711620 0.642810 -0.496027
O8    O     O_R   0.500000 0.711620 0.357190 -0.495741

loop_
_geom_bond_atom_site_label_1
_geom_bond_atom_site_label_2
_ccdc_geom_bond_type
C14   H7    S    
C2    C9    S    
C3    H12   S    
Cu1   O1    S    
N1    N2    T    
C14   H11   S    
C6    C14   S    
C7    O3    A    
C12   H9    S    
C9    O7    A    
Cu2   O6    S    
C6    C13   S    
C11   C13   S    
Cu1   N2    S    
Cu1   O5    S    
C9    O8    A    
C12   C14   S    
C13   H6    S    
C5    C11   S    
C3    H2    S    
C7    O4    A    
C13   H10   S    
Cu2   O2    S    
C3    C4    S    
C4    H4    S    
C11   H8    S    
C1    O1    A    
C5    C12   S    
C4    C6    S    
C8    O6    A    
C5    C7    S    
Cu1   O7    S    
C6    C8    S    
Cu2   O4    S    
Cu2   N1    S    
C4    H3    S    
C12   H5    S    
Cu1   O3    S    
C1    O2    A    
C11   H1    S    
C1    C10   S    
Cu1   Cu2   S    
Cu2   O8    S    
C3    C5    S    
C8    O5    A    
C2    C10   T    
