data_mof_unit_31504.cif
_audit_creation_date              2012-12-10T17:33:45-0500
_audit_creation_method            fapswitch 2.2
_symmetry_space_group_name_H-M    P1
_symmetry_Int_Tables_number       1
_space_group_crystal_system       triclinic
_cell_length_a                    11.690282
_cell_length_b                    12.339017
_cell_length_c                    13.179448
_cell_angle_alpha                 116.900976
_cell_angle_beta                  77.818146
_cell_angle_gamma                 101.110081
_cell_volume                      1646.85903101

loop_
_atom_site_label
_atom_site_type_symbol
_atom_type_description
_atom_site_fract_x
_atom_site_fract_y
_atom_site_fract_z
_atom_type_partial_charge
C1    C     C_R   0.511179 0.854668 0.286383 0.776626
C2    C     C_R   0.454727 0.228491 0.834566 -0.069977
C3    C     C_R   0.593373 0.813805 0.085920 -0.269383
C4    C     C_R   0.609195 0.738053 0.969279 -0.155645
C5    C     C_R   0.558431 0.616929 0.927153 0.359307
C6    C     C_R   0.492399 0.568532 0.004805 -0.004220
C7    C     C_R   0.460559 0.652159 0.120769 0.030055
C8    C     C_R   0.453757 0.442044 0.972678 0.092472
C9    C     C_R   0.366165 0.405265 0.047139 0.161462
C10   C     C_R   0.321945 0.492425 0.153610 -0.240952
C11   C     C_R   0.369153 0.613847 0.190560 -0.174085
C12   C     C_R   0.715713 0.999421 0.499537 0.809199
C13   C     C_R   0.503762 0.350174 0.871694 -0.190925
C14   C     C_R   0.365829 0.193491 0.906899 -0.193967
C15   C     C_R   0.518757 0.772886 0.162741 -0.106964
C16   C     C_R   0.684429 0.340449 0.323796 -0.305037
C17   C     C_R   0.342953 0.760522 0.646116 0.087402
C18   C     C_R   0.307395 0.663394 0.676130 -0.245701
C19   C     C_R   0.365590 0.558694 0.619047 -0.110184
C20   C     C_R   0.461444 0.550096 0.531156 0.011967
C21   C     C_R   0.494123 0.651637 0.503259 0.245794
C22   C     C_R   0.526185 0.445563 0.470960 -0.034812
C23   C     C_R   0.482878 0.145295 0.713520 0.800702
C24   C     C_R   0.620341 0.442927 0.381458 0.117890
C25   C     C_R   0.649428 0.542268 0.351501 0.032108
C26   C     C_R   0.588253 0.645074 0.415539 -0.189127
C27   C     C_R   0.501663 0.342558 0.496284 0.108169
C28   C     C_R   0.656139 0.243546 0.353723 0.086546
C29   C     C_R   0.284316 0.000239 0.499995 0.813787
C30   C     C_1   0.837416 0.998733 0.499205 -0.185039
C31   C     C_1   0.940044 0.998845 0.499014 0.001424
C32   C     C_1   0.060043 0.999564 0.499094 -0.000481
C33   C     C_1   0.162657 0.000172 0.499416 -0.183388
C34   C     C_R   0.323591 0.281338 0.014049 -0.195198
Cu1   Cu    Cu3+1 0.526510 0.098270 0.475420 0.956122
Cu2   Cu    Cu3+1 0.473490 0.901730 0.524580 0.925387
H1    H     H_    0.326554 0.099409 0.879206 0.148562
H2    H     H_    0.757158 0.333645 0.255989 0.130516
H3    H     H_    0.431903 0.336619 0.562045 0.135691
H4    H     H_    0.297144 0.841372 0.690511 0.123675
H5    H     H_    0.333576 0.486388 0.645783 0.148938
H6    H     H_    0.234349 0.669129 0.743670 0.146850
H7    H     H_    0.616720 0.720349 0.395720 0.209553
H8    H     H_    0.252497 0.466241 0.209914 0.143089
H9    H     H_    0.255329 0.252950 0.069690 0.135052
H10   H     H_    0.581904 0.370701 0.820452 0.199010
H11   H     H_    0.638372 0.905834 0.115833 0.167567
H12   H     H_    0.660543 0.774646 0.910786 0.178363
H13   H     H_    0.329928 0.677577 0.273102 0.174152
H14   H     H_    0.705372 0.165112 0.309042 0.120719
N1    N     N_R   0.566700 0.246290 0.438210 -0.186431
N2    N     N_R   0.434010 0.754320 0.561170 -0.201213
O1    O     O_R   0.533340 0.972510 0.318140 -0.579899
O2    O     O_R   0.488570 0.806530 0.359650 -0.612398
O3    O     O_R   0.685190 0.083000 0.479260 -0.569024
O4    O     O_R   0.640410 0.917020 0.520770 -0.590201
O5    O     O_R   0.511430 0.193470 0.640350 -0.555237
O6    O     O_R   0.466660 0.027490 0.681860 -0.585877
O7    O     O_R   0.359590 0.082980 0.479230 -0.578950
O8    O     O_R   0.314810 0.917000 0.520740 -0.585965
C35   C     C_3   0.746084 0.536913 0.250993 -0.399160
C36   C     C_3   0.764202 0.644166 0.217630 -0.367834
C37   C     C_3   0.854976 0.622012 0.110345 -0.824551
H15   H     H_    0.941249 0.611219 0.125389 0.254417
H16   H     H_    0.824877 0.538580 0.036136 0.255179
H17   H     H_    0.866388 0.701261 0.089116 0.244418
H18   H     H_    0.679791 0.654928 0.199240 0.230950
H19   H     H_    0.795602 0.730020 0.289027 0.216476
H20   H     H_    0.831061 0.530278 0.271886 0.202367
H21   H     H_    0.723760 0.452334 0.173864 0.205775
Cl1   Cl    Cl    0.561490 0.542892 0.776631 -0.695912

loop_
_geom_bond_atom_site_label_1
_geom_bond_atom_site_label_2
_ccdc_geom_bond_type
C35   H21   S    
C16   C28   A    
C23   O6    A    
C6    C8    A    
C1    O2    A    
C37   H16   S    
C14   C34   A    
C8    C13   A    
Cu2   O4    S    
C29   C33   S    
Cu1   O1    S    
Cu1   O7    S    
C9    C10   A    
C9    C34   A    
C31   C32   S    
C19   C20   A    
Cu2   N2    S    
C29   O8    A    
C36   H19   S    
C30   C31   T    
Cu1   O5    S    
C35   H20   S    
C32   C33   T    
C7    C15   A    
C17   C18   A    
C37   H17   S    
C16   C24   A    
C34   H9    S    
C12   O4    A    
C24   C25   A    
C14   H1    S    
C7    C11   A    
C36   C37   S    
C28   H14   S    
C36   H18   S    
C1    C15   S    
C5    C6    A    
C25   C35   S    
C17   N2    A    
C3    H11   S    
C21   C26   A    
C27   N1    A    
C26   H7    S    
C6    C7    A    
Cu2   O6    S    
C22   C27   A    
C18   H6    S    
Cu1   N1    S    
C35   C36   S    
C2    C14   A    
C28   N1    A    
C22   C24   A    
C12   O3    A    
Cu2   O2    S    
C10   C11   A    
C20   C22   A    
Cu1   O3    S    
C37   H15   S    
C19   H5    S    
C3    C15   A    
C20   C21   A    
C5    Cl1   S    
C18   C19   A    
C4    H12   S    
C27   H3    S    
C2    C23   S    
C23   O5    A    
C2    C13   A    
C1    O1    A    
C13   H10   S    
C8    C9    A    
C11   H13   S    
C12   C30   S    
C25   C26   A    
C10   H8    S    
C17   H4    S    
C21   N2    A    
C3    C4    A    
C29   O7    A    
C16   H2    S    
C4    C5    A    
Cu2   O8    S    
Cu1   Cu2   S    
