data_mof_unit_21083.cif
_audit_creation_date              2012-12-11T17:37:47-0500
_audit_creation_method            fapswitch 2.2
_symmetry_space_group_name_H-M    P1
_symmetry_Int_Tables_number       1
_space_group_crystal_system       triclinic
_cell_length_a                    12.943193
_cell_length_b                    13.010123
_cell_length_c                    15.321003
_cell_angle_alpha                 116.279075
_cell_angle_beta                  63.952734
_cell_angle_gamma                 96.951238
_cell_volume                      2069.70102678

loop_
_atom_site_label
_atom_site_type_symbol
_atom_type_description
_atom_site_fract_x
_atom_site_fract_y
_atom_site_fract_z
_atom_type_partial_charge
C1    C     C_R   0.002123 0.833409 0.049389 0.706421
C2    C     C_R   0.301307 0.591468 0.791003 -0.153867
C3    C     C_R   0.259703 0.416381 0.047606 -0.090688
C4    C     C_R   0.678783 0.470030 0.219991 -0.097059
C5    C     C_R   0.045734 0.279964 0.684117 -0.097941
C6    C     C_R   0.362456 0.434665 0.974812 0.175979
C7    C     C_R   0.025744 0.171398 0.678534 0.043677
C8    C     C_R   0.298093 0.562028 0.695059 0.040351
C9    C     C_R   0.014645 0.149787 0.038530 0.100438
C10   C     C_R   0.441714 0.717325 0.210568 0.792015
C11   C     C_R   0.328340 0.763470 0.285267 -0.333565
C12   C     C_R   0.672660 0.541703 0.321429 0.021246
C13   C     C_R   0.295597 0.880680 0.325484 0.056823
C14   C     C_R   0.378757 0.950840 0.289875 -0.151936
C15   C     C_R   0.492034 0.904167 0.214589 -0.192509
C16   C     C_R   0.755827 0.517473 0.891759 0.750721
C17   C     C_R   0.523516 0.787521 0.174948 -0.245191
C18   C     C_R   0.156624 0.028602 0.502570 -0.258760
C19   C     C_R   0.043567 0.070182 0.582258 0.058169
C20   C     C_R   0.947786 0.015814 0.568756 -0.005927
C21   C     C_R   0.966531 0.920786 0.474138 -0.197307
C22   C     C_R   0.078519 0.878558 0.394130 0.091975
C23   C     C_R   0.663580 0.455743 0.922828 -0.180059
C24   C     C_R   0.175797 0.930195 0.407056 0.067369
C25   C     C_R   0.764835 0.009965 0.718620 -0.160638
C26   C     C_R   0.646570 0.040812 0.783919 -0.105562
C27   C     C_R   0.588935 0.118024 0.775884 -0.126726
C28   C     C_R   0.023555 0.692266 0.297701 0.411569
C29   C     C_R   0.649853 0.165802 0.703702 -0.106506
C30   C     C_R   0.768638 0.137415 0.640234 -0.117444
C31   C     C_R   0.826588 0.058918 0.647105 0.121157
C32   C     C_R   0.858835 0.304196 0.347692 -0.200042
C33   C     C_R   0.755323 0.352470 0.367563 -0.106802
C34   C     C_R   0.085165 0.784659 0.296853 -0.098187
C35   C     C_R   0.700704 0.455137 0.460537 0.000485
C36   C     C_R   0.749886 0.506954 0.534008 -0.274064
C37   C     C_R   0.853025 0.457942 0.513849 0.946310
C38   C     C_R   0.907583 0.356689 0.420561 -0.270346
C39   C     C_R   0.496291 0.516549 0.575386 -0.232124
C40   C     C_R   0.677463 0.419845 0.988942 -0.191424
C41   C     C_R   0.392028 0.570999 0.605867 0.052110
C42   C     C_R   0.379859 0.625432 0.549145 0.021415
C43   C     C_R   0.473776 0.612284 0.452675 -0.230341
C44   C     C_R   0.577653 0.553801 0.420296 0.062094
C45   C     C_R   0.338634 0.517691 0.951972 -0.082877
C46   C     C_R   0.590856 0.508880 0.484010 0.065066
C47   C     C_R   0.225282 0.698102 0.527145 -0.135579
C48   C     C_R   0.129135 0.773572 0.569376 -0.015930
C49   C     C_R   0.081362 0.853184 0.677902 -0.078504
C50   C     C_R   0.130487 0.858859 0.744560 -0.107640
C51   C     C_R   0.227501 0.784881 0.702618 -0.128356
C52   C     C_R   0.101547 0.795328 0.206527 -0.086688
C53   C     C_R   0.275242 0.702554 0.593606 0.101650
C54   C     C_2   0.475635 0.393204 0.947894 -0.389127
C55   C     C_2   0.570899 0.429346 0.890075 0.761183
C56   C     C_R   0.962338 0.179717 0.781175 -0.116539
C57   C     C_2   0.838017 0.957388 0.078023 -0.160030
C58   C     C_2   0.809586 0.034400 0.179952 -0.185060
C59   C     C_R   0.782310 0.562523 0.313144 -0.094556
C60   C     C_R   0.903063 0.747449 0.952448 -0.240241
C61   C     C_R   0.915745 0.852664 0.025828 -0.057025
C62   C     C_R   0.201193 0.506335 0.694114 -0.092727
C63   C     C_R   0.055620 0.254064 0.084854 -0.128881
C64   C     C_R   0.955434 0.170419 0.990205 -0.157104
Cl1   Cl    Cl    0.019647 0.614848 0.368041 -0.752188
F1    F     F_    0.043661 0.914803 0.115588 -0.751907
F2    F     F_    0.472392 0.604656 0.173673 -0.740143
F3    F     F_    0.788390 0.544869 0.808226 -0.645135
F4    F     F_    0.900873 0.509389 0.584122 -0.649265
F5    F     F_    0.575116 0.461870 0.815628 -0.705840
H1    H     H_    0.926274 0.111244 0.803655 0.090800
H2    H     H_    0.608491 0.433166 0.199488 0.135552
H3    H     H_    0.355751 0.041363 0.319766 0.127512
H4    H     H_    0.555519 0.958547 0.187165 0.151978
H5    H     H_    0.229057 0.071391 0.516288 0.140261
H6    H     H_    0.892429 0.880833 0.461469 0.139010
H7    H     H_    0.807963 0.946900 0.722563 0.118804
H8    H     H_    0.599185 0.003138 0.839159 0.116877
H9    H     H_    0.496909 0.140035 0.824893 0.118583
H10   H     H_    0.604793 0.223938 0.696090 0.157340
H11   H     H_    0.814690 0.173507 0.583350 0.129465
H12   H     H_    0.168832 0.481415 0.634031 0.128634
H13   H     H_    0.987779 0.318916 0.404511 0.153106
H14   H     H_    0.901914 0.226209 0.275681 0.167020
H15   H     H_    0.718348 0.310610 0.310497 0.131693
H16   H     H_    0.708735 0.585965 0.606320 0.171233
H17   H     H_    0.503392 0.477248 0.622315 0.170196
H18   H     H_    0.468247 0.651249 0.405055 0.155461
H19   H     H_    0.260281 0.636079 0.443030 0.144092
H20   H     H_    0.091511 0.770874 0.518175 0.170265
H21   H     H_    0.006623 0.910715 0.710105 0.094754
H22   H     H_    0.094013 0.921186 0.828541 0.119696
H23   H     H_    0.093904 0.272515 0.139632 0.120614
H24   H     H_    0.266082 0.793018 0.755109 0.115020
H25   H     H_    0.476488 0.356264 0.998550 0.132752
H26   H     H_    0.795009 0.967996 0.035260 0.131395
H27   H     H_    0.844868 0.025743 0.229067 0.191693
H28   H     H_    0.633157 0.355360 0.014690 0.130806
H29   H     H_    0.156140 0.853631 0.177308 0.183527
H30   H     H_    0.806358 0.612405 0.378179 0.157501
H31   H     H_    0.840642 0.730587 0.919875 0.198833
H32   H     H_    0.397119 0.559993 0.905516 0.171978
H33   H     H_    0.901834 0.111523 0.956925 0.094398
H34   H     H_    0.359765 0.646334 0.820454 0.116327
H35   H     H_    0.249838 0.362283 0.086961 0.109686
H36   H     H_    0.086320 0.304023 0.618214 0.114190
H37   H     H_    0.611354 0.751778 0.117058 0.139449
H38   H     H_    0.266533 0.708063 0.312787 0.178017
N1    N     N_R   0.037320 0.720000 0.995830 -0.115399
N2    N     N_R   0.824900 0.517970 0.936430 -0.120222
N3    N     N_R   0.003190 0.648180 0.211390 -0.085521
N4    N     N_R   0.774330 0.457010 0.995830 -0.075972
N5    N     N_R   0.053760 0.709130 0.151980 -0.072044
N6    N     N_R   0.853840 0.498830 0.211390 -0.034538
N7    N     N_R   0.974250 0.667320 0.936430 -0.071159
N8    N     N_R   0.225670 0.542990 0.004170 -0.070888
N9    N     N_R   0.946240 0.290870 0.848020 -0.048522
N10   N     N_R   0.146160 0.501170 0.788610 -0.043395
N11   N     N_R   0.025750 0.332680 0.063570 -0.038233
N12   N     N_R   0.962680 0.280000 0.004170 -0.043498
N13   N     N_R   0.209230 0.553860 0.848010 -0.049526
N14   N     N_R   0.175100 0.482030 0.063570 -0.042955
N15   N     N_R   0.996810 0.351820 0.788610 -0.043798
N16   N     N_R   0.790770 0.446140 0.151990 -0.050467
Ni1   Ni    Ni4+2 0.130310 0.630310 0.000000 0.217974
Ni2   Ni    Ni4+2 0.869690 0.369690 0.000000 0.201075
Ni3   Ni    Ni4+2 0.985660 0.509480 0.863750 0.279227
Ni4   Ni    Ni4+2 0.014340 0.490520 0.136250 0.267475

loop_
_geom_bond_atom_site_label_1
_geom_bond_atom_site_label_2
_ccdc_geom_bond_type
C25   C31   A    
C64   H33   S    
C18   H5    S    
C6    C45   A    
C37   F4    S    
C38   H13   S    
C27   C29   A    
C9    C64   A    
C56   N9    A    
C35   C36   A    
C39   H17   S    
C3    C6    A    
C16   N2    A    
C39   C41   A    
C52   N5    A    
C3    H35   S    
C21   H6    S    
C26   C27   A    
C26   H8    S    
N8    N14   A    
C25   H7    S    
C43   H18   S    
C36   C37   A    
C49   H21   S    
C27   H9    S    
C17   H37   S    
C42   C53   S    
C40   H28   S    
C30   C31   A    
N12   Ni2   S    
N5    Ni1   S    
C10   C17   A    
C23   C40   A    
N7    Ni3   S    
C4    N16   A    
C18   C19   A    
C41   C42   A    
C33   H15   S    
C1    N1    A    
C12   C59   A    
C19   C20   A    
C57   H26   S    
C16   F3    S    
C32   C38   A    
C4    C12   A    
C29   C30   A    
N9    Ni2   S    
N4    Ni2   S    
C3    N14   A    
N2    Ni3   S    
C47   C53   A    
N6    N16   A    
N11   Ni4   S    
C11   H38   S    
C62   H12   S    
C28   C34   A    
C48   H20   S    
C21   C22   A    
C59   H30   S    
C47   H19   S    
C58   H27   S    
C7    C56   A    
C6    C54   S    
C32   H14   S    
C44   C46   A    
C50   C51   A    
C5    H36   S    
C28   N3    A    
C22   C34   S    
C14   H3    S    
C8    C41   S    
C40   N4    A    
C45   H32   S    
C5    C7    A    
C36   H16   S    
C25   C26   A    
C10   F2    S    
C13   C24   S    
C60   C61   A    
C51   C53   A    
N10   N13   A    
C43   C44   A    
N13   Ni1   S    
C37   C38   A    
N6    Ni4   S    
N15   Ni3   S    
C47   C48   A    
C2    H34   S    
C56   H1    S    
C1    F1    S    
N3    N5    A    
C57   C61   S    
C54   H25   S    
C39   C46   A    
N1    Ni1   S    
C48   C49   A    
C49   C50   A    
C16   C23   A    
C7    C19   S    
N8    Ni1   S    
C18   C24   A    
C42   C43   A    
C60   H31   S    
C4    H2    S    
N16   Ni2   S    
C2    N13   A    
C50   H22   S    
C15   C17   A    
C5    N15   A    
C54   C55   D    
C9    C63   A    
C2    C8    A    
C1    C61   A    
N11   N12   A    
C23   C55   S    
C63   H23   S    
C52   H29   S    
C34   C52   A    
C64   N12   A    
C32   C33   A    
C30   H11   S    
C28   Cl1   S    
N9    N15   A    
C12   C44   S    
C11   C13   A    
C45   N8    A    
C57   C58   D    
C29   H10   S    
C59   N6    A    
C33   C35   A    
C22   C24   A    
N14   Ni4   S    
N2    N4    A    
C62   N10   A    
C55   F5    S    
C10   C11   A    
N1    N7    A    
C51   H24   S    
C15   H4    S    
C20   C21   A    
C63   N11   A    
N10   Ni3   S    
N3    Ni4   S    
C14   C15   A    
C60   N7    A    
C13   C14   A    
C35   C46   S    
C8    C62   A    
C20   C31   S    
