data_mof_unit_7340.cif
_audit_creation_date              2012-12-10T17:15:11-0500
_audit_creation_method            fapswitch 2.2
_symmetry_space_group_name_H-M    P1
_symmetry_Int_Tables_number       1
_space_group_crystal_system       triclinic
_cell_length_a                    10.228762
_cell_length_b                    10.616517
_cell_length_c                    12.935771
_cell_angle_alpha                 91.749296
_cell_angle_beta                  91.479949
_cell_angle_gamma                 94.676084
_cell_volume                      1398.85128559

loop_
_atom_site_label
_atom_site_type_symbol
_atom_type_description
_atom_site_fract_x
_atom_site_fract_y
_atom_site_fract_z
_atom_type_partial_charge
C1    C     C_R   0.444791 0.266351 0.495866 0.822848
C2    C     C_R   0.554094 0.734018 0.510477 0.816773
C3    C     C_2   0.070145 0.485142 0.502786 0.052418
C4    C     C_2   0.929472 0.512066 0.494675 0.058811
C5    C     C_R   0.472497 0.497076 0.698156 0.916548
C6    C     C_R   0.527158 0.501182 0.301608 0.965985
C7    C     C_R   0.544550 0.503020 0.190558 -0.250138
C8    C     C_R   0.453792 0.489036 0.808702 -0.262462
C9    C     C_R   0.325843 0.518183 0.959909 0.342659
C10   C     C_R   0.670085 0.466416 0.039230 0.325771
C11   C     C_R   0.329869 0.489042 0.853831 0.333714
C12   C     C_R   0.667807 0.499016 0.144693 0.265926
C13   C     C_R   0.566113 0.484451 0.871021 -0.160222
C14   C     C_R   0.431242 0.503630 0.128582 -0.128787
C15   C     C_R   0.558174 0.481900 0.977203 -0.058792
C16   C     C_R   0.438106 0.503878 0.022173 -0.070368
C17   C     C_2   0.410889 0.131962 0.505795 0.230737
C18   C     C_2   0.581748 0.869268 0.531676 0.226435
C19   C     C_2   0.489307 0.069634 0.567344 -0.177152
C20   C     C_2   0.481965 0.933079 0.565043 -0.206217
H1    H     H_    0.336679 0.503843 0.163724 0.250661
H2    H     H_    0.661066 0.484198 0.836466 0.251494
H3    H     H_    0.386496 0.884552 0.578379 0.214120
H4    H     H_    0.571222 0.119500 0.610711 0.218192
H5    H     H_    0.900551 0.586886 0.446665 0.203371
H6    H     H_    0.098758 0.408534 0.549106 0.199584
N1    N     N_2   0.162330 0.550370 0.457540 -0.008356
N2    N     N_2   0.837670 0.449630 0.542460 -0.001247
O1    O     O_R   0.567930 0.307680 0.508550 -0.587680
O2    O     O_R   0.432070 0.692320 0.491450 -0.594406
O3    O     O_R   0.351090 0.340020 0.481290 -0.593557
O4    O     O_R   0.648910 0.659980 0.518710 -0.595685
O5    O     O_R   0.590490 0.486480 0.665020 -0.608919
O6    O     O_R   0.409510 0.513520 0.334980 -0.591814
O7    O     O_R   0.373660 0.518820 0.637760 -0.573456
O8    O     O_R   0.626340 0.481180 0.362240 -0.560294
Zn1   Zn    Zn3+2 0.644780 0.478400 0.518200 1.103913
Zn2   Zn    Zn3+2 0.355220 0.521600 0.481800 1.104437
S1    S     S_3+6 0.813197 0.569570 0.207063 0.119734
O9    O     O_2   0.781364 0.668797 0.285697 -0.266260
O10   O     O_2   0.884754 0.470019 0.259413 -0.211585
O11   O     O_3   0.910334 0.640072 0.119550 -0.430922
H7    H     H_    0.857869 0.704781 0.089070 0.363513
S2    S     S_3+6 0.186773 0.417482 0.788756 0.101698
O12   O     O_2   0.112415 0.516993 0.739027 -0.240062
O13   O     O_2   0.223328 0.323042 0.707639 -0.335255
O14   O     O_3   0.091767 0.340462 0.874462 -0.439289
H8    H     H_    0.043445 0.269818 0.834232 0.395348
S3    S     S_3+6 0.190499 0.589785 0.012316 0.134268
O15   O     O_2   0.108452 0.643220 0.929029 -0.183440
O16   O     O_2   0.109864 0.491960 0.069785 -0.144695
O17   O     O_3   0.246236 0.708229 0.095482 -0.526107
H9    H     H_    0.166503 0.742018 0.123519 0.430512
S4    S     S_3+6 0.801463 0.387848 0.987617 0.116848
O18   O     O_2   0.885588 0.480293 0.927634 -0.181852
O19   O     O_2   0.881584 0.333686 0.071759 -0.159906
O20   O     O_3   0.739498 0.269163 0.907002 -0.538808
H10   H     H_    0.816103 0.224363 0.885730 0.398269
S5    S     S_3+6 0.740841 0.944120 0.512626 0.108385
O21   O     O_2   0.731229 0.049584 0.438601 -0.199954
O22   O     O_2   0.796381 0.998940 0.614544 -0.269429
O23   O     O_3   0.842528 0.841815 0.464319 -0.440984
H11   H     H_    0.889275 0.810673 0.525243 0.375128
S6    S     S_3+6 0.276015 0.055830 0.432526 0.110023
O24   O     O_2   0.325060 0.957037 0.361018 -0.201250
O25   O     O_2   0.179762 0.992444 0.504285 -0.244228
O26   O     O_3   0.199997 0.159613 0.361261 -0.469078
H12   H     H_    0.134030 0.193210 0.407144 0.386472
Br1   Br    Br    0.871481 0.313733 0.627251 -0.256775
Br2   Br    Br    0.127783 0.686297 0.372938 -0.175166

loop_
_geom_bond_atom_site_label_1
_geom_bond_atom_site_label_2
_ccdc_geom_bond_type
C5    C8    S    
O26   H12   S    
S2    O14   S    
O3    Zn2   S    
C8    C13   A    
C14   C16   A    
C2    C18   S    
C6    C7    S    
C1    C17   S    
O14   H8    S    
C20   H3    S    
C1    O3    A    
O5    Zn1   S    
C2    O2    A    
S3    O17   S    
S6    O24   D    
C12   S1    S    
C3    N1    D    
C19   H4    S    
S5    O21   D    
S1    O10   D    
O4    Zn1   S    
S2    O12   D    
C9    C11   A    
C5    O5    A    
O20   H10   S    
O23   H11   S    
N1    Br2   S    
C10   C12   A    
N2    Zn1   S    
C8    C11   A    
C5    O7    A    
C14   H1    S    
C1    O1    A    
O8    Zn1   S    
C17   C19   D    
C9    C16   A    
S2    O13   D    
C13   H2    S    
C4    H5    S    
S1    O11   S    
C18   C20   D    
C10   C15   A    
C13   C15   A    
C17   S6    S    
C7    C12   A    
C10   S4    S    
S4    O19   D    
S5    O22   D    
O11   H7    S    
N1    Zn2   S    
C15   C16   A    
S6    O26   S    
C6    O6    A    
C18   S5    S    
C11   S2    S    
O7    Zn2   S    
C9    S3    S    
O17   H9    S    
O2    Zn2   S    
C2    O4    A    
S3    O15   D    
O1    Zn1   S    
S1    O9    D    
S4    O18   D    
S5    O23   S    
C4    N2    D    
O6    Zn2   S    
N2    Br1   S    
C3    H6    S    
C7    C14   A    
C3    C4    S    
C19   C20   S    
C6    O8    A    
S3    O16   D    
S4    O20   S    
S6    O25   D    
