data_mof_unit_30363.cif
_audit_creation_date              2012-12-10T17:18:53-0500
_audit_creation_method            fapswitch 2.2
_symmetry_space_group_name_H-M    P1
_symmetry_Int_Tables_number       1
_space_group_crystal_system       triclinic
_cell_length_a                    10.202031
_cell_length_b                    10.464437
_cell_length_c                    13.677735
_cell_angle_alpha                 92.478594
_cell_angle_beta                  100.838779
_cell_angle_gamma                 94.522851
_cell_volume                      1427.18144526

loop_
_atom_site_label
_atom_site_type_symbol
_atom_type_description
_atom_site_fract_x
_atom_site_fract_y
_atom_site_fract_z
_atom_type_partial_charge
C1    C     C_R   0.048100 0.733880 0.487733 0.942389
C2    C     C_2   0.963131 0.061569 0.411085 0.208032
C3    C     C_2   0.430710 0.511864 0.508911 -0.137205
C4    C     C_2   0.569296 0.488105 0.491142 -0.140194
C5    C     C_R   0.095073 0.516317 0.685778 0.873907
C6    C     C_R   0.906258 0.488489 0.314154 0.852975
C7    C     C_R   0.152719 0.548721 0.790647 -0.065868
C8    C     C_R   0.860408 0.497497 0.207391 -0.064302
C9    C     C_R   0.149422 0.655130 0.950682 -0.208165
C10   C     C_R   0.889789 0.473380 0.036543 -0.213323
C11   C     C_R   0.082881 0.610588 0.855121 -0.216896
C12   C     C_R   0.946215 0.265035 0.499982 0.943079
C13   C     C_R   0.938612 0.464058 0.137923 -0.198694
C14   C     C_R   0.287812 0.532356 0.821903 -0.264638
C15   C     C_R   0.737027 0.545462 0.175656 -0.281537
C16   C     C_R   0.358675 0.585485 0.913376 0.094176
C17   C     C_R   0.687468 0.558653 0.074901 0.100069
C18   C     C_R   0.286914 0.642077 0.980552 0.174677
C19   C     C_R   0.763410 0.517530 0.004398 0.174909
C20   C     C_R   0.497961 0.576585 0.941271 0.069159
C21   C     C_R   0.558612 0.600113 0.042545 0.067919
C22   C     C_3   0.028020 0.123681 0.332118 -0.837254
C23   C     C_R   0.486832 0.660521 0.108063 -0.235145
C24   C     C_3   0.829227 0.847951 0.354922 -0.843191
C25   C     C_R   0.578073 0.543551 0.871517 -0.232293
C26   C     C_R   0.353407 0.683380 0.076533 -0.237860
C27   C     C_R   0.709968 0.516732 0.902946 -0.246850
C28   C     C_2   0.061266 0.867858 0.463768 -0.390177
C29   C     C_2   0.913349 0.127228 0.481357 -0.394291
C30   C     C_2   0.955541 0.922415 0.411963 0.207590
H1    H     H_    0.301003 0.729247 0.128486 0.150200
H2    H     H_    0.541343 0.539686 0.791959 0.145177
H3    H     H_    0.856302 0.076921 0.529793 0.130658
H4    H     H_    0.154407 0.925466 0.494670 0.129662
H5    H     H_    0.578641 0.413132 0.436184 0.167377
H6    H     H_    0.421379 0.586780 0.563930 0.161946
H7    H     H_    0.664634 0.624029 0.590736 0.157845
H8    H     H_    0.335356 0.375950 0.409280 0.156723
H9    H     H_    0.037058 0.051115 0.272557 0.225426
H10   H     H_    0.965976 0.197937 0.296760 0.228078
H11   H     H_    0.130578 0.166836 0.364796 0.244004
H12   H     H_    0.767671 0.488789 0.847853 0.150162
H13   H     H_    0.768108 0.911064 0.305029 0.225620
H14   H     H_    0.855405 0.768850 0.307557 0.230698
H15   H     H_    0.766252 0.809302 0.406588 0.252111
H16   H     H_    0.677613 0.566852 0.230633 0.164960
H17   H     H_    0.336793 0.476441 0.773660 0.160686
H18   H     H_    0.035589 0.428245 0.161694 0.161626
H19   H     H_    0.978287 0.626045 0.831379 0.157958
H20   H     H_    0.093984 0.700564 0.000737 0.148649
H21   H     H_    0.948872 0.442566 0.983280 0.152865
H22   H     H_    0.532680 0.693809 0.183464 0.150855
N1    N     N_2   0.322180 0.446120 0.460900 -0.187946
N2    N     N_2   0.677820 0.553880 0.539100 -0.193229
O1    O     O_R   0.935190 0.693030 0.507870 -0.592554
O2    O     O_R   0.064810 0.306970 0.492130 -0.589581
O3    O     O_R   0.142080 0.658430 0.482770 -0.600100
O4    O     O_R   0.857920 0.341570 0.517230 -0.599069
O5    O     O_R   0.969700 0.527180 0.651960 -0.610322
O6    O     O_R   0.030300 0.472820 0.348040 -0.611794
O7    O     O_R   0.176600 0.492580 0.626860 -0.608960
O8    O     O_R   0.823400 0.507420 0.373140 -0.613183
Zn1   Zn    Zn3+2 0.861850 0.523100 0.516760 0.923935
Zn2   Zn    Zn3+2 0.138150 0.476900 0.483240 0.928518

loop_
_geom_bond_atom_site_label_1
_geom_bond_atom_site_label_2
_ccdc_geom_bond_type
C2    C22   S    
O7    Zn2   S    
O2    Zn2   S    
C8    C13   A    
C11   H19   S    
C1    O3    A    
C12   C29   S    
C1    C28   S    
C19   C27   A    
C9    H20   S    
O5    Zn1   S    
C13   H18   S    
C18   C26   A    
C22   H10   S    
C2    C30   S    
C10   C19   A    
C16   C20   A    
C12   O4    A    
C6    O8    A    
C25   H2    S    
C28   C30   D    
C1    O1    A    
C4    H5    S    
C28   H4    S    
C26   H1    S    
C7    C11   A    
C3    N1    D    
C27   H12   S    
C23   H22   S    
C12   O2    A    
H8    N1    S    
C3    H6    S    
C2    C29   D    
C24   H15   S    
C17   C19   A    
O6    Zn2   S    
C8    C15   A    
C24   C30   S    
C9    C11   A    
C21   C23   A    
C24   H14   S    
N1    Zn2   S    
C14   C16   A    
C22   H11   S    
C25   C27   A    
N2    Zn1   S    
H7    N2    S    
C5    O7    A    
C3    C4    S    
C6    O6    A    
C9    C18   A    
C10   H21   S    
C20   C21   A    
O3    Zn2   S    
C16   C18   A    
C20   C25   A    
C23   C26   A    
O4    Zn1   S    
C15   C17   A    
C24   H13   S    
C5    O5    A    
C5    C7    S    
C6    C8    S    
C15   H16   S    
C4    N2    D    
C14   H17   S    
C22   H9    S    
C7    C14   A    
C17   C21   A    
O8    Zn1   S    
C29   H3    S    
C10   C13   A    
O1    Zn1   S    
