data_mof_unit_11821.cif
_audit_creation_date              2012-12-10T17:06:42-0500
_audit_creation_method            fapswitch 2.2
_symmetry_space_group_name_H-M    P1
_symmetry_Int_Tables_number       1
_space_group_crystal_system       triclinic
_cell_length_a                    15.852101
_cell_length_b                    11.087218
_cell_length_c                    9.981832
_cell_angle_alpha                 111.67169
_cell_angle_beta                  98.371931
_cell_angle_gamma                 92.304384
_cell_volume                      1604.53552692

loop_
_atom_site_label
_atom_site_type_symbol
_atom_type_description
_atom_site_fract_x
_atom_site_fract_y
_atom_site_fract_z
_atom_type_partial_charge
C1    C     C_R   0.495089 0.254744 0.440258 0.846678
C2    C     C_R   0.504918 0.745256 0.559743 0.846666
C3    C     C_2   0.517924 0.065091 0.505454 -0.020791
C4    C     C_2   0.482104 0.934922 0.494568 -0.020731
C5    C     C_2   0.509745 0.508216 0.080396 0.140207
C6    C     C_2   0.490256 0.491779 0.919600 0.140180
C7    C     C_R   0.340217 0.499763 0.500474 0.801898
C8    C     C_R   0.659783 0.500237 0.499526 0.801892
C9    C     C_3   0.974905 0.415043 0.557442 0.305544
C10   C     C_3   0.025095 0.584957 0.442557 0.305540
C11   C     C_3   0.017039 0.379161 0.419738 0.294079
C12   C     C_3   0.982961 0.620839 0.580262 0.294081
C13   C     C_1   0.250758 0.500046 0.501784 -0.103076
C14   C     C_1   0.749242 0.499954 0.498216 -0.103074
C15   C     C_3   0.040356 0.536133 0.639271 0.312876
C16   C     C_3   0.959644 0.463867 0.360729 0.312868
C17   C     C_3   0.083667 0.500258 0.501605 -0.196538
C18   C     C_3   0.916333 0.499742 0.498395 -0.196539
C19   C     C_1   0.175310 0.500234 0.502226 0.167963
C20   C     C_1   0.824690 0.499766 0.497774 0.167961
C21   C     C_2   0.484217 0.115591 0.407832 -0.349602
C22   C     C_2   0.515815 0.884407 0.592169 -0.349560
Cu1   Cu    Cu3+1 0.514700 0.521810 0.644910 1.030537
Cu2   Cu    Cu3+1 0.485300 0.478190 0.355090 1.030525
H1    H     H_    0.562366 0.940583 0.688405 0.175973
H2    H     H_    0.437685 0.059392 0.311565 0.176020
N1    N     N_2   0.463210 0.445420 0.137360 -0.057930
N2    N     N_2   0.536790 0.554580 0.862640 -0.057938
O1    O     O_R   0.507840 0.332340 0.577400 -0.561253
O2    O     O_R   0.492160 0.667660 0.422600 -0.561237
O3    O     O_R   0.483020 0.295500 0.332650 -0.557678
O4    O     O_R   0.516980 0.704500 0.667350 -0.557670
O5    O     O_R   0.391490 0.518400 0.622350 -0.558405
O6    O     O_R   0.608510 0.481600 0.377650 -0.558425
O7    O     O_R   0.366660 0.481570 0.377600 -0.605124
O8    O     O_R   0.633340 0.518430 0.622400 -0.605094
O9    O     O_3   0.041919 0.256694 0.336578 -0.581330
C23   C     C_3   0.971062 0.160860 0.288163 -0.265477
H3    H     H_    0.911050 0.194747 0.247656 0.194161
H4    H     H_    0.960545 0.126499 0.376125 0.193652
H5    H     H_    0.985489 0.075641 0.195823 0.161773
O10   O     O_3   0.958080 0.743306 0.663421 -0.581333
C24   C     C_3   0.028937 0.839141 0.711835 -0.265479
H6    H     H_    0.039457 0.873496 0.623871 0.193659
H7    H     H_    0.088948 0.805256 0.752349 0.194165
H8    H     H_    0.014508 0.924362 0.804169 0.161774
O11   O     O_3   0.941537 0.327176 0.613781 -0.562462
C25   C     C_3   0.009070 0.274298 0.675295 -0.266871
H9    H     H_    0.037039 0.342732 0.787575 0.184111
H10   H     H_    0.060434 0.247435 0.607630 0.187922
H11   H     H_    0.982570 0.183893 0.684062 0.168027
O12   O     O_3   0.058462 0.672824 0.386219 -0.562466
C26   C     C_3   0.990929 0.725701 0.324704 -0.266863
H12   H     H_    0.939562 0.752554 0.392364 0.187921
H13   H     H_    0.962966 0.657269 0.212418 0.184108
H14   H     H_    0.017429 0.816113 0.315948 0.168026
O13   O     O_3   0.911226 0.428959 0.219036 -0.553504
C27   C     C_3   0.965101 0.387334 0.113205 -0.269641
H15   H     H_    0.976830 0.284172 0.089445 0.188833
H16   H     H_    0.027333 0.449263 0.145058 0.173394
H17   H     H_    0.931997 0.392718 0.010004 0.180974
O14   O     O_3   0.088774 0.571042 0.780964 -0.553505
C28   C     C_3   0.034899 0.612667 0.886795 -0.269655
H18   H     H_    0.972668 0.550734 0.854945 0.173398
H19   H     H_    0.023167 0.715827 0.910551 0.188835
H20   H     H_    0.068005 0.607287 0.989996 0.180972
C29   C     C_2   0.407782 0.860959 0.377853 0.901203
O15   O     O_2   0.342203 0.827912 0.412003 -0.593827
O16   O     O_R   0.414358 0.824900 0.230203 -0.713550
H21   H     H_    0.360476 0.772563 0.162132 0.340813
C30   C     C_2   0.592225 0.139080 0.622212 0.901246
O17   O     O_2   0.657804 0.172191 0.588114 -0.593822
O18   O     O_R   0.585626 0.175094 0.769848 -0.713540
H22   H     H_    0.639487 0.227466 0.837955 0.340822
C31   C     C_2   0.412818 0.406356 0.827562 0.928134
O19   O     O_2   0.343089 0.449639 0.832162 -0.606346
O20   O     O_R   0.417748 0.274145 0.748447 -0.701932
H23   H     H_    0.359850 0.225659 0.693562 0.317842
C32   C     C_2   0.587186 0.593631 0.172427 0.928115
O21   O     O_2   0.656912 0.550343 0.167810 -0.606370
O22   O     O_R   0.582262 0.725837 0.251559 -0.701944
H24   H     H_    0.640161 0.774310 0.306441 0.317825
O23   O     O_3   0.571182 0.675413 0.954244 -0.481231
C33   C     C_3   0.654711 0.693829 0.928450 -0.025261
H25   H     H_    0.653936 0.730293 0.838934 0.158833
H26   H     H_    0.688765 0.604278 0.906575 0.148732
H27   H     H_    0.692210 0.770273 0.028496 0.127617
O24   O     O_3   0.428800 0.324594 0.045753 -0.481238
C34   C     C_3   0.345273 0.306200 0.071570 -0.025261
H28   H     H_    0.311226 0.395759 0.093430 0.148729
H29   H     H_    0.346050 0.269763 0.161107 0.158852
H30   H     H_    0.307767 0.229746 0.971541 0.127618

loop_
_geom_bond_atom_site_label_1
_geom_bond_atom_site_label_2
_ccdc_geom_bond_type
C21   H2    S    
C28   H19   S    
C1    C21   S    
O18   H22   S    
C33   H27   S    
C31   O19   D    
C10   O12   S    
O22   H24   S    
C6    C31   S    
O20   H23   S    
O9    C23   S    
Cu1   O1    S    
C33   H26   S    
C5    C6    S    
C10   C17   S    
C27   H16   S    
C1    O3    A    
C2    O4    A    
C8    O8    A    
C11   O9    S    
C12   O10   S    
C5    N1    D    
C25   H11   S    
C6    N2    D    
O23   C33   S    
Cu1   O5    S    
C22   H1    S    
C2    C22   S    
Cu1   Cu2   S    
Cu2   N1    S    
C34   H29   S    
C27   H17   S    
C25   H10   S    
C28   H20   S    
N2    O23   S    
C7    O5    A    
N1    O24   S    
C26   H13   S    
Cu2   O7    S    
C13   C19   T    
C29   O15   D    
C14   C20   T    
C33   H25   S    
C23   H5    S    
C32   O22   S    
C27   H15   S    
C26   H12   S    
Cu2   O6    S    
C32   O21   D    
C29   O16   S    
C3    C30   S    
C24   H6    S    
O14   C28   S    
C4    C22   D    
C11   C16   S    
O11   C25   S    
C12   C15   S    
C1    O1    A    
C8    O6    A    
Cu1   N2    S    
C34   H30   S    
C24   H7    S    
C10   C12   S    
C25   H9    S    
C9    O11   S    
C9    C11   S    
C3    C21   D    
C5    C32   S    
O10   C24   S    
C3    C4    S    
O12   C26   S    
C30   O18   S    
C26   H14   S    
C15   C17   S    
C11   C17   S    
C8    C14   S    
C7    O7    A    
C4    C29   S    
C2    O2    A    
Cu1   O4    S    
C9    C15   S    
Cu2   O3    S    
C30   O17   D    
C10   C16   S    
C23   H4    S    
O13   C27   S    
C23   H3    S    
C17   C19   S    
C15   O14   S    
C18   C20   S    
C16   O13   S    
O16   H21   S    
C24   H8    S    
Cu2   O2    S    
C28   H18   S    
C9    C18   S    
C7    C13   S    
O24   C34   S    
C16   C18   S    
Cu1   O8    S    
C31   O20   S    
C12   C18   S    
C34   H28   S    
