data_mof_unit_65781.cif
_audit_creation_date              2012-12-10T16:56:09-0500
_audit_creation_method            fapswitch 2.2
_symmetry_space_group_name_H-M    P1
_symmetry_Int_Tables_number       1
_space_group_crystal_system       triclinic
_cell_length_a                    9.752276
_cell_length_b                    10.933947
_cell_length_c                    13.884372
_cell_angle_alpha                 90.426071
_cell_angle_beta                  84.866205
_cell_angle_gamma                 89.770611
_cell_volume                      1474.50658046

loop_
_atom_site_label
_atom_site_type_symbol
_atom_type_description
_atom_site_fract_x
_atom_site_fract_y
_atom_site_fract_z
_atom_type_partial_charge
C1    C     C_R   0.499605 0.734497 0.501257 0.851170
C2    C     C_1   0.463901 0.500100 0.785911 -0.129969
C3    C     C_2   0.612189 0.066605 0.503216 -0.133774
C4    C     C_2   0.498816 0.133453 0.493890 -0.302197
C5    C     C_2   0.612515 0.932596 0.498781 -0.127442
C6    C     C_2   0.496506 0.866628 0.506257 -0.298257
C7    C     C_2   0.067027 0.524126 0.574920 -0.062601
C8    C     C_2   0.918461 0.552770 0.565109 0.258840
C9    C     C_R   0.477632 0.499988 0.682780 0.826227
C10   C     C_R   0.500250 0.265526 0.498802 0.846815
C11   C     C_R   0.522339 0.499959 0.317218 0.809988
C12   C     C_1   0.535536 0.500099 0.214085 -0.111867
C13   C     C_2   0.552720 0.500475 0.023601 -0.202074
C14   C     C_2   0.438928 0.500130 0.976410 0.189884
C15   C     C_1   0.452032 0.500155 0.872748 -0.000529
C16   C     C_1   0.544811 0.500267 0.127248 0.076679
Cu1   Cu    Cu3+1 0.361370 0.499980 0.499980 0.993215
Cu2   Cu    Cu3+1 0.638630 0.500020 0.500020 1.032214
H1    H     H_    0.654013 0.500872 0.983972 0.160570
H2    H     H_    0.709551 0.110892 0.512942 0.193829
H3    H     H_    0.401421 0.092639 0.480436 0.159396
H4    H     H_    0.712386 0.887509 0.490559 0.190695
H5    H     H_    0.395499 0.908117 0.518397 0.155804
H6    H     H_    0.104753 0.532180 0.645761 0.176451
H7    H     H_    0.119378 0.521030 0.434687 0.237624
N1    N     N_2   0.152970 0.501340 0.501040 -0.275884
N2    N     N_2   0.846830 0.501370 0.501060 -0.118088
O1    O     O_R   0.382960 0.678040 0.499980 -0.577424
O2    O     O_R   0.617100 0.678080 0.500020 -0.562096
O3    O     O_R   0.366380 0.499950 0.637830 -0.580806
O4    O     O_R   0.600520 0.499990 0.637860 -0.553640
O5    O     O_R   0.382900 0.321920 0.499980 -0.560981
O6    O     O_R   0.617040 0.321960 0.500020 -0.554929
O7    O     O_R   0.399480 0.500010 0.362140 -0.565389
O8    O     O_R   0.633620 0.500050 0.362170 -0.549976
I1    I     I_    0.236905 0.499299 0.047704 -0.300209
I2    I     I_    0.921584 0.346317 0.422076 -0.252626
I3    I     I_    0.832679 0.687983 0.662930 -0.338643

loop_
_geom_bond_atom_site_label_1
_geom_bond_atom_site_label_2
_ccdc_geom_bond_type
C1    O1    A    
C11   C12   S    
C4    H3    S    
C7    H6    S    
Cu2   O8    S    
Cu2   N2    S    
C1    O2    A    
Cu1   Cu2   S    
C3    H2    S    
Cu2   O2    S    
C13   C14   D    
C2    C15   T    
C2    C9    S    
C7    N1    D    
C8    I3    S    
C9    O3    A    
N2    I2    S    
Cu1   N1    S    
C11   O8    A    
C10   O6    A    
C14   I1    S    
C5    C6    D    
Cu2   O6    S    
Cu1   O3    S    
Cu1   O7    S    
C6    H5    S    
C4    C10   S    
C3    C4    D    
C10   O5    A    
C7    C8    S    
C13   C16   S    
C1    C6    S    
C8    N2    D    
Cu1   O5    S    
C9    O4    A    
C14   C15   S    
C13   H1    S    
Cu2   O4    S    
H7    N1    S    
Cu1   O1    S    
C11   O7    A    
C5    H4    S    
C12   C16   T    
C3    C5    S    
