data_mof_unit_54507.cif
_audit_creation_date              2012-12-10T19:42:13-0500
_audit_creation_method            fapswitch 2.2
_symmetry_space_group_name_H-M    P1
_symmetry_Int_Tables_number       1
_space_group_crystal_system       triclinic
_cell_length_a                    10.909469
_cell_length_b                    10.926268
_cell_length_c                    9.723168
_cell_angle_alpha                 90.756129
_cell_angle_beta                  90.810545
_cell_angle_gamma                 90.409759
_cell_volume                      1158.75140769

loop_
_atom_site_label
_atom_site_type_symbol
_atom_type_description
_atom_site_fract_x
_atom_site_fract_y
_atom_site_fract_z
_atom_type_partial_charge
C1    C     C_R   0.500744 0.265280 0.498935 0.895671
C2    C     C_R   0.213420 0.537637 0.974273 -0.149690
C3    C     C_R   0.931105 0.514215 0.379051 -0.240917
C4    C     C_R   0.871247 0.499629 0.503876 -0.077557
C5    C     C_R   0.940705 0.488903 0.626777 -0.018126
C6    C     C_R   0.067260 0.496107 0.621075 -0.205816
C7    C     C_R   0.127775 0.506677 0.496051 -0.088851
C8    C     C_R   0.057894 0.516602 0.373092 0.001146
C9    C     C_R   0.877711 0.558780 0.860756 -0.120234
C10   C     C_R   0.827864 0.534895 0.989354 -0.152717
C11   C     C_R   0.788912 0.416461 0.020962 -0.131963
C12   C     C_R   0.262140 0.502754 0.498627 0.801723
C13   C     C_R   0.798661 0.321986 0.923562 -0.153639
C14   C     C_R   0.847385 0.345725 0.794350 -0.104598
C15   C     C_R   0.886783 0.464428 0.762262 0.144059
C16   C     C_2   0.516877 0.930866 0.388081 -0.276943
C17   C     C_2   0.514124 0.866698 0.504449 -0.364663
C18   C     C_2   0.530763 0.065197 0.387503 0.446841
C19   C     C_2   0.495609 0.132695 0.496854 -0.338376
C20   C     C_2   0.483600 0.402580 0.921308 -0.137398
C21   C     C_2   0.464211 0.406377 0.075867 0.509829
C22   C     C_R   0.502867 0.734632 0.500930 0.864157
C23   C     C_R   0.737545 0.498813 0.501338 0.780928
C24   C     C_R   0.214617 0.640856 0.060620 -0.198037
C25   C     C_R   0.163478 0.634872 0.191044 -0.100995
C26   C     C_R   0.111454 0.524936 0.235489 0.131094
C27   C     C_R   0.107636 0.422304 0.147563 -0.175044
C28   C     C_R   0.159467 0.427348 0.016944 0.093727
Cu1   Cu    Cu3+1 0.500020 0.500020 0.638630 0.962309
Cu2   Cu    Cu3+1 0.499980 0.499980 0.361370 0.998481
H1    H     H_    0.256522 0.544135 0.875521 0.175605
H2    H     H_    0.750705 0.397791 0.120646 0.160303
H3    H     H_    0.768181 0.230468 0.948119 0.131145
H4    H     H_    0.854698 0.271956 0.719480 0.117551
H5    H     H_    0.512023 0.883799 0.288975 0.166921
H6    H     H_    0.525951 0.909821 0.604820 0.146516
H7    H     H_    0.457694 0.091188 0.587608 0.106793
H8    H     H_    0.477173 0.314192 0.869962 0.184107
H9    H     H_    0.495152 0.582598 0.895644 0.178052
H10   H     H_    0.256483 0.725180 0.026865 0.132642
H11   H     H_    0.547376 0.567593 0.107468 0.138766
H12   H     H_    0.165594 0.714961 0.257902 0.116431
H13   H     H_    0.066239 0.337869 0.182305 0.118090
H14   H     H_    0.879120 0.523391 0.284324 0.157549
H15   H     H_    0.118399 0.489463 0.715606 0.191736
H16   H     H_    0.908579 0.650551 0.837578 0.118624
H17   H     H_    0.819662 0.608243 0.064420 0.122262
N1    N     N_2   0.498640 0.498660 0.846910 -0.292914
N2    N     N_2   0.498610 0.498630 0.153040 -0.289973
O1    O     O_R   0.500020 0.321960 0.617040 -0.590471
O2    O     O_R   0.499980 0.321920 0.382900 -0.459181
O3    O     O_R   0.319660 0.500030 0.617070 -0.565055
O4    O     O_R   0.319620 0.499990 0.382930 -0.550569
O5    O     O_R   0.500020 0.678080 0.617100 -0.594215
O6    O     O_R   0.499980 0.678040 0.382960 -0.587789
O7    O     O_R   0.680380 0.500010 0.617070 -0.565938
O8    O     O_R   0.680340 0.499970 0.382930 -0.601628
O9    O     O_3   0.577847 0.121915 0.273032 -0.701080
H18   H     H_    0.600204 0.058274 0.204414 0.304259
O10   O     O_3   0.408522 0.308022 0.137496 -0.659298
H19   H     H_    0.389585 0.244829 0.066172 0.302011
C29   C     C_2   0.159075 0.315494 0.929572 0.282531
H20   H     H_    0.106593 0.235797 0.960040 0.076987
O11   O     O_2   0.218780 0.309610 0.824522 -0.565171

loop_
_geom_bond_atom_site_label_1
_geom_bond_atom_site_label_2
_ccdc_geom_bond_type
C25   H12   S    
C14   H4    S    
C29   O11   D    
Cu2   O2    S    
C13   H3    S    
C22   O6    A    
C17   H6    S    
Cu1   Cu2   S    
C20   H8    S    
C1    O1    A    
Cu2   O6    S    
C12   O4    A    
C27   C28   A    
C10   C11   A    
C29   H20   S    
C21   N2    D    
C9    C15   A    
C23   O7    A    
C22   O5    A    
C13   C14   A    
C24   C25   A    
C1    O2    A    
C26   C27   A    
C20   N1    D    
O10   H19   S    
C24   H10   S    
H11   N2    S    
Cu1   O7    S    
Cu2   N2    S    
C11   H2    S    
C3    C8    A    
C6    C7    A    
C9    H16   S    
Cu1   O1    S    
C16   H5    S    
C2    C24   A    
C5    C6    A    
C7    C12   S    
Cu2   O4    S    
O9    H18   S    
C3    H14   S    
C5    C15   S    
C1    C19   S    
Cu1   O5    S    
Cu1   N1    S    
C3    C4    A    
Cu2   O8    S    
C27   H13   S    
C11   C13   A    
C8    C26   S    
C20   C21   S    
C21   O10   S    
C16   C18   S    
C18   C19   D    
C9    C10   A    
C10   H17   S    
C23   O8    A    
C7    C8    A    
C14   C15   A    
C2    H1    S    
C2    C28   A    
C19   H7    S    
C12   O3    A    
C25   C26   A    
C6    H15   S    
C18   O9    S    
C4    C23   S    
C17   C22   S    
C16   C17   D    
C4    C5    A    
H9    N1    S    
Cu1   O3    S    
C28   C29   S    
