data_mof_unit_48227.cif
_audit_creation_date              2012-12-11T16:19:10-0500
_audit_creation_method            fapswitch 2.2
_symmetry_space_group_name_H-M    P1
_symmetry_Int_Tables_number       1
_space_group_crystal_system       triclinic
_cell_length_a                    6.922576
_cell_length_b                    31.358074
_cell_length_c                    34.937618
_cell_angle_alpha                 89.990532
_cell_angle_beta                  90.157972
_cell_angle_gamma                 90.121333
_cell_volume                      7584.16503773

loop_
_atom_site_label
_atom_site_type_symbol
_atom_type_description
_atom_site_fract_x
_atom_site_fract_y
_atom_site_fract_z
_atom_type_partial_charge
O1    O     O_R   0.417270 0.211480 0.210950 -0.540985
O2    O     O_R   0.582730 0.788520 0.789050 -0.541587
O3    O     O_R   0.582730 0.788520 0.710950 -0.540866
O4    O     O_R   0.417270 0.211480 0.289050 -0.541391
O5    O     O_R   0.917270 0.288520 0.289050 -0.540841
O6    O     O_R   0.082730 0.711480 0.710950 -0.541113
O7    O     O_R   0.082730 0.711480 0.789050 -0.540980
O8    O     O_R   0.917270 0.288520 0.210950 -0.541410
O9    O     O_R   0.746940 0.206370 0.288750 -0.537208
O10   O     O_R   0.253060 0.793630 0.711250 -0.538019
O11   O     O_R   0.253060 0.793630 0.788750 -0.537156
O12   O     O_R   0.746940 0.206370 0.211250 -0.537904
O13   O     O_R   0.246940 0.293630 0.211250 -0.536944
O14   O     O_R   0.753060 0.706370 0.788750 -0.537839
O15   O     O_R   0.753060 0.706370 0.711250 -0.537175
O16   O     O_R   0.246940 0.293630 0.288750 -0.537952
C1    C     C_R   0.577747 0.195764 0.301831 0.716370
C2    C     C_R   0.422038 0.804094 0.698054 0.717764
C3    C     C_R   0.422563 0.804214 0.801841 0.716294
C4    C     C_R   0.577650 0.195930 0.198042 0.717844
C5    C     C_R   0.077604 0.304292 0.198189 0.716349
C6    C     C_R   0.922107 0.695916 0.801977 0.716846
C7    C     C_R   0.921911 0.695744 0.698161 0.716600
C8    C     C_R   0.078298 0.304103 0.301958 0.716625
O17   O     O_3   0.583760 0.276950 0.250000 -0.366682
O18   O     O_3   0.416240 0.723050 0.750000 -0.366585
O19   O     O_3   0.083760 0.223050 0.250000 -0.366601
O20   O     O_3   0.916240 0.776950 0.750000 -0.366667
V1    V     V_3+5 0.858600 0.245000 0.250000 1.438991
V2    V     V_3+5 0.141400 0.755000 0.750000 1.439082
V3    V     V_3+5 0.358600 0.255000 0.250000 1.439451
V4    V     V_3+5 0.641400 0.745000 0.750000 1.439479
C9    C     C_R   0.028619 0.586710 0.540158 0.675335
C10   C     C_R   0.991588 0.411063 0.461953 0.680518
C11   C     C_R   0.970027 0.413119 0.039745 0.674273
C12   C     C_R   0.988270 0.589563 0.962975 0.674038
C13   C     C_R   0.520753 0.912054 0.961116 0.670384
C14   C     C_R   0.517882 0.089144 0.037209 0.673589
C15   C     C_R   0.480167 0.087942 0.461020 0.670257
C16   C     C_R   0.481302 0.910900 0.537292 0.673430
N1    N     N_R   0.976291 0.572921 0.575791 -0.544540
N2    N     N_R   0.044814 0.424709 0.426336 -0.542499
N3    N     N_R   0.013249 0.427105 0.075849 -0.544401
N4    N     N_R   0.955956 0.575403 0.926514 -0.537918
N5    N     N_R   0.481941 0.926127 0.924861 -0.543781
N6    N     N_R   0.541370 0.075022 0.073932 -0.538636
N7    N     N_R   0.519189 0.073828 0.424833 -0.543711
N8    N     N_R   0.457600 0.925059 0.573967 -0.538703
C17   C     C_R   0.943124 0.530757 0.583001 0.606595
C18   C     C_R   0.099727 0.465941 0.419983 0.621116
C19   C     C_R   0.034542 0.469539 0.083580 0.604900
C20   C     C_R   0.918358 0.533438 0.919133 0.619344
C21   C     C_R   0.462670 0.968583 0.917127 0.601171
C22   C     C_R   0.567526 0.032777 0.081836 0.621705
C23   C     C_R   0.538251 0.031360 0.417167 0.601304
C24   C     C_R   0.431787 0.967322 0.581796 0.622400
C25   C     C_R   0.974764 0.499717 0.554320 -0.117469
C26   C     C_R   0.099503 0.496067 0.450169 -0.111485
C27   C     C_R   0.999844 0.500438 0.054888 -0.116998
C28   C     C_R   0.907054 0.503404 0.949335 -0.125693
C29   C     C_R   0.498014 0.999362 0.945890 -0.116659
C30   C     C_R   0.575112 0.002304 0.051948 -0.124438
C31   C     C_R   0.502564 0.000615 0.445914 -0.116235
C32   C     C_R   0.424552 0.997774 0.551870 -0.124711
C33   C     C_R   0.027072 0.513210 0.517171 -0.065192
C34   C     C_R   0.041971 0.482816 0.487099 -0.069354
C35   C     C_R   0.959325 0.486725 0.017196 -0.065505
C36   C     C_R   0.946637 0.517116 0.987095 -0.061514
C37   C     C_R   0.526735 0.985568 0.983978 -0.062164
C38   C     C_R   0.543375 0.016065 0.013904 -0.058618
C39   C     C_R   0.473600 0.014446 0.483950 -0.062252
C40   C     C_R   0.456515 0.983974 0.513881 -0.058760
C41   C     C_R   0.063766 0.557065 0.510128 -0.118545
C42   C     C_R   0.997757 0.439241 0.493854 -0.136313
C43   C     C_R   0.933531 0.442638 0.009614 -0.122361
C44   C     C_R   0.977558 0.561092 0.994608 -0.134003
C45   C     C_R   0.535426 0.941296 0.992155 -0.127627
C46   C     C_R   0.525758 0.060268 0.005874 -0.133876
C47   C     C_R   0.465039 0.058728 0.492069 -0.127723
C48   C     C_R   0.474004 0.939758 0.505919 -0.133965
C49   C     C_R   0.961984 0.455489 0.562229 0.377945
C50   C     C_R   0.159029 0.538785 0.444474 0.343080
C51   C     C_R   0.998148 0.544647 0.063230 0.372796
C52   C     C_R   0.854700 0.460230 0.942837 0.347524
C53   C     C_R   0.511022 0.043420 0.937281 0.369182
C54   C     C_R   0.608247 0.958350 0.059236 0.341355
C55   C     C_R   0.489451 0.956554 0.437333 0.369709
C56   C     C_R   0.391628 0.041746 0.559071 0.341179
C57   C     C_R   0.962062 0.425610 0.532069 -0.120957
C58   C     C_R   0.136173 0.569404 0.473652 -0.137199
C59   C     C_R   0.996377 0.574811 0.033293 -0.119856
C60   C     C_R   0.871323 0.429872 0.972440 -0.113576
C61   C     C_R   0.515796 0.073802 0.967011 -0.119549
C62   C     C_R   0.568442 0.927952 0.030531 -0.111432
C63   C     C_R   0.484442 0.926196 0.467083 -0.120074
C64   C     C_R   0.431677 0.072111 0.530383 -0.111033
O21   O     O_2   0.043775 0.629012 0.534035 -0.498058
O22   O     O_2   0.927752 0.370678 0.465917 -0.500063
O23   O     O_2   0.966386 0.370777 0.033189 -0.497560
O24   O     O_2   0.036918 0.630807 0.968116 -0.499868
O25   O     O_2   0.551646 0.870055 0.966562 -0.503134
O26   O     O_2   0.480115 0.130810 0.031499 -0.498512
O27   O     O_2   0.449476 0.129954 0.466378 -0.503358
O28   O     O_2   0.518744 0.869213 0.531677 -0.498552
O29   O     O_2   0.877425 0.519123 0.617796 -0.503818
O30   O     O_2   0.149967 0.477765 0.384244 -0.512528
O31   O     O_2   0.091619 0.481609 0.118913 -0.506514
O32   O     O_2   0.897427 0.520859 0.882453 -0.518274
O33   O     O_2   0.409802 0.980823 0.881598 -0.507021
O34   O     O_2   0.578980 0.020366 0.118722 -0.517968
O35   O     O_2   0.591183 0.019073 0.381717 -0.507420
O36   O     O_2   0.420432 0.979768 0.618657 -0.517966
C65   C     C_R   0.887852 0.389823 0.369683 0.024079
C66   C     C_R   0.122024 0.609233 0.632614 0.001948
C67   C     C_R   0.114167 0.610534 0.870204 0.028805
C68   C     C_R   0.871953 0.390463 0.132767 0.006885
C69   C     C_R   0.383385 0.110669 0.129894 0.028586
C70   C     C_R   0.626881 0.889897 0.868118 0.011084
C71   C     C_R   0.615740 0.889381 0.630070 0.028131
C72   C     C_R   0.374069 0.110049 0.367941 0.010823
C73   C     C_R   0.900453 0.360115 0.339448 -0.234562
C74   C     C_R   0.104064 0.639452 0.662293 -0.223543
C75   C     C_R   0.101178 0.640115 0.839829 -0.237643
C76   C     C_R   0.892709 0.360449 0.162546 -0.224339
C77   C     C_R   0.397085 0.140261 0.160220 -0.237920
C78   C     C_R   0.607276 0.860133 0.838095 -0.225834
C79   C     C_R   0.602155 0.859784 0.660384 -0.237776
C80   C     C_R   0.393544 0.139807 0.337926 -0.225619
H1    H     H_    0.778603 0.355843 0.320289 0.169805
H2    H     H_    0.224005 0.644553 0.681770 0.167234
H3    H     H_    0.222907 0.644347 0.820765 0.169504
H4    H     H_    0.773949 0.355270 0.182163 0.166652
H5    H     H_    0.275152 0.144649 0.179184 0.168751
H6    H     H_    0.726808 0.855191 0.818637 0.166260
H7    H     H_    0.724307 0.855343 0.679417 0.168874
H8    H     H_    0.273829 0.144774 0.318386 0.166388
C81   C     C_R   0.068744 0.335914 0.333495 -0.076211
C82   C     C_R   0.933798 0.663207 0.667245 -0.081294
C83   C     C_R   0.932602 0.664253 0.833646 -0.075241
C84   C     C_R   0.063841 0.336879 0.167316 -0.080766
C85   C     C_R   0.566477 0.164251 0.166431 -0.074350
C86   C     C_R   0.436151 0.836499 0.832927 -0.080066
C87   C     C_R   0.432687 0.835839 0.666488 -0.074294
C88   C     C_R   0.564689 0.163421 0.332877 -0.080015
C89   C     C_R   0.226279 0.341748 0.358334 -0.156882
C90   C     C_R   0.778717 0.656246 0.642021 -0.141654
C91   C     C_R   0.775602 0.658597 0.858460 -0.154916
C92   C     C_R   0.216981 0.343881 0.141814 -0.141824
C93   C     C_R   0.723547 0.158452 0.141695 -0.155572
C94   C     C_R   0.282227 0.843086 0.858286 -0.143113
C95   C     C_R   0.275324 0.841718 0.641669 -0.155765
C96   C     C_R   0.718860 0.156791 0.358336 -0.142753
H9    H     H_    0.357723 0.323564 0.354573 0.136879
H10   H     H_    0.645845 0.674094 0.645041 0.132245
H11   H     H_    0.644137 0.676783 0.854578 0.136403
H12   H     H_    0.350294 0.326126 0.144652 0.131987
H13   H     H_    0.855566 0.176560 0.145591 0.136563
H14   H     H_    0.149006 0.825228 0.855172 0.131116
H15   H     H_    0.143240 0.823650 0.645487 0.136661
H16   H     H_    0.852099 0.174631 0.355312 0.131106
C97   C     C_R   0.214706 0.370440 0.388852 -0.103164
C98   C     C_R   0.795254 0.626921 0.611987 -0.055431
C99   C     C_R   0.787534 0.630035 0.889066 -0.109154
C100  C     C_R   0.197701 0.373099 0.111714 -0.059770
C101  C     C_R   0.711020 0.129815 0.111165 -0.107869
C102  C     C_R   0.300416 0.872032 0.888578 -0.066170
C103  C     C_R   0.287714 0.870370 0.611143 -0.107970
C104  C     C_R   0.700825 0.127842 0.388627 -0.066922
H17   H     H_    0.337307 0.374109 0.407888 0.155191
H18   H     H_    0.675107 0.622531 0.592478 0.146800
H19   H     H_    0.665036 0.626429 0.908004 0.154572
H20   H     H_    0.316282 0.377489 0.091973 0.148610
H21   H     H_    0.833591 0.126074 0.092290 0.156744
H22   H     H_    0.181127 0.876133 0.908180 0.144414
H23   H     H_    0.164961 0.874162 0.592189 0.157015
H24   H     H_    0.820270 0.123718 0.408319 0.144466
C105  C     C_R   0.047418 0.394658 0.394922 0.309221
C106  C     C_R   0.965247 0.603266 0.606891 0.306008
C107  C     C_R   0.954578 0.605713 0.895271 0.308509
C108  C     C_R   0.026906 0.396615 0.106840 0.305171
C109  C     C_R   0.543291 0.105567 0.104977 0.306691
C110  C     C_R   0.470772 0.895728 0.893789 0.308060
C111  C     C_R   0.455606 0.894546 0.605048 0.306747
C112  C     C_R   0.530370 0.104189 0.393732 0.307997
O37   O     O_3   0.950940 0.440471 0.599581 -0.544325
C113  C     C_3   0.133717 0.444249 0.617908 0.132318
H25   H     H_    0.107606 0.444733 0.649264 0.176771
H26   H     H_    0.210127 0.474612 0.611034 0.131597
C114  C     C_3   0.264974 0.406318 0.608667 -0.395956
H27   H     H_    0.188930 0.376067 0.615662 0.227942
H28   H     H_    0.300613 0.406425 0.577697 0.221514
C115  C     C_3   0.453521 0.408626 0.631334 -0.673882
H29   H     H_    0.533996 0.438204 0.623992 0.263046
H30   H     H_    0.545045 0.380726 0.624195 0.270116
H31   H     H_    0.423792 0.408191 0.662557 0.220340
O38   O     O_3   0.241632 0.551159 0.410132 -0.534931
C116  C     C_3   0.443453 0.544667 0.412598 0.126650
H32   H     H_    0.477160 0.510632 0.418919 0.156085
H33   H     H_    0.507979 0.565050 0.435433 0.113695
C117  C     C_3   0.535622 0.556532 0.374389 -0.299840
H34   H     H_    0.474072 0.536074 0.351387 0.230764
H35   H     H_    0.502482 0.590370 0.367582 0.215250
C118  C     C_3   0.754259 0.550651 0.375608 -0.700501
H36   H     H_    0.819177 0.571314 0.398054 0.253253
H37   H     H_    0.817214 0.559498 0.347509 0.246773
H38   H     H_    0.790144 0.516852 0.381701 0.257239
O39   O     O_3   0.996990 0.559328 0.100754 -0.545255
C119  C     C_3   0.812687 0.552434 0.117482 0.136490
H39   H     H_    0.833463 0.551394 0.149009 0.177409
H40   H     H_    0.746340 0.521307 0.109356 0.129987
C120  C     C_3   0.672485 0.588709 0.107966 -0.404173
H41   H     H_    0.738443 0.619742 0.116174 0.230672
H42   H     H_    0.642272 0.588981 0.076734 0.218591
C121  C     C_3   0.481364 0.583125 0.129084 -0.666900
H43   H     H_    0.410658 0.552769 0.120414 0.261942
H44   H     H_    0.383408 0.609956 0.121930 0.276647
H45   H     H_    0.505786 0.582938 0.160518 0.222291
O40   O     O_3   0.792141 0.446571 0.907087 -0.542490
C122  C     C_3   0.599550 0.459986 0.900163 0.147890
H46   H     H_    0.593011 0.472192 0.870324 0.188020
H47   H     H_    0.549505 0.486526 0.919009 0.118466
C123  C     C_3   0.460468 0.422268 0.903679 -0.396327
H48   H     H_    0.519749 0.394223 0.888239 0.236712
H49   H     H_    0.442909 0.413831 0.934343 0.215608
C124  C     C_3   0.263139 0.433240 0.886946 -0.667996
H50   H     H_    0.204820 0.462103 0.901108 0.251666
H51   H     H_    0.162079 0.406232 0.891513 0.277626
H52   H     H_    0.274766 0.439297 0.855712 0.233982
O41   O     O_3   0.520340 0.057724 0.899681 -0.545829
C125  C     C_3   0.705021 0.048931 0.883945 0.139140
H53   H     H_    0.687797 0.047481 0.852349 0.179101
H54   H     H_    0.764226 0.017434 0.892833 0.129270
C126  C     C_3   0.851031 0.084137 0.893625 -0.410533
H55   H     H_    0.791955 0.115578 0.884804 0.232302
H56   H     H_    0.878079 0.084591 0.924967 0.217365
C127  C     C_3   0.043020 0.076650 0.873367 -0.661336
H57   H     H_    0.106683 0.045823 0.882626 0.261167
H58   H     H_    0.145399 0.102699 0.880680 0.279027
H59   H     H_    0.021890 0.076274 0.841843 0.225422
O42   O     O_3   0.660471 0.943910 0.095393 -0.546126
C128  C     C_3   0.854298 0.955572 0.103915 0.162254
H60   H     H_    0.859719 0.965016 0.134557 0.179292
H61   H     H_    0.909043 0.983477 0.087255 0.114405
C129  C     C_3   0.990118 0.917768 0.098159 -0.350725
H62   H     H_    0.933375 0.889498 0.113716 0.247285
H63   H     H_    0.999107 0.910098 0.067162 0.234082
C130  C     C_3   0.192076 0.928032 0.113129 -0.709183
H64   H     H_    0.250721 0.956463 0.098185 0.251109
H65   H     H_    0.289077 0.900501 0.108043 0.256022
H66   H     H_    0.187885 0.934476 0.144376 0.239141
O43   O     O_3   0.480157 0.942221 0.399735 -0.545859
C131  C     C_3   0.295445 0.950992 0.383796 0.138356
H67   H     H_    0.312456 0.952219 0.352206 0.178950
H68   H     H_    0.236694 0.982581 0.392455 0.129738
C132  C     C_3   0.149085 0.915928 0.393555 -0.410153
H69   H     H_    0.207672 0.884400 0.384931 0.232470
H70   H     H_    0.122353 0.915674 0.424880 0.217333
C133  C     C_3   0.956948 0.923407 0.373138 -0.661198
H71   H     H_    0.893842 0.954343 0.382176 0.261372
H72   H     H_    0.854276 0.897483 0.380548 0.279019
H73   H     H_    0.977691 0.923547 0.341625 0.225332
O44   O     O_3   0.339456 0.056240 0.595153 -0.546259
C134  C     C_3   0.145646 0.044599 0.603507 0.162432
H74   H     H_    0.140664 0.034845 0.634072 0.179804
H75   H     H_    0.090170 0.016911 0.586598 0.113712
C135  C     C_3   0.010238 0.082550 0.598015 -0.350281
H76   H     H_    0.068141 0.110682 0.613661 0.246691
H77   H     H_    0.000037 0.090412 0.567059 0.234578
C136  C     C_3   0.808769 0.072362 0.613069 -0.710376
H78   H     H_    0.749147 0.044019 0.598089 0.251084
H79   H     H_    0.711896 0.099970 0.608112 0.255769
H80   H     H_    0.814193 0.065803 0.644296 0.239004
C137  C     C_2   0.938427 0.380011 0.542397 0.898743
O45   O     O_2   0.794748 0.368361 0.559821 -0.536153
O46   O     O_R   0.083942 0.350798 0.533514 -0.642406
H81   H     H_    0.052439 0.320871 0.542564 0.316437
C138  C     C_2   0.201702 0.613415 0.465099 0.907478
O47   O     O_2   0.331991 0.629546 0.483911 -0.528668
O48   O     O_R   0.120818 0.635454 0.434217 -0.638835
H82   H     H_    0.179628 0.664827 0.430723 0.310939
C139  C     C_2   0.000585 0.620555 0.044086 0.899960
O49   O     O_2   0.133717 0.634457 0.063507 -0.536068
O50   O     O_R   0.848586 0.647290 0.033207 -0.642282
H83   H     H_    0.866432 0.677575 0.042750 0.317934
C140  C     C_2   0.809178 0.385610 0.963741 0.898415
O51   O     O_2   0.680697 0.368916 0.982513 -0.531177
O52   O     O_R   0.891830 0.363768 0.933033 -0.645520
H84   H     H_    0.835137 0.334189 0.929518 0.308208
C141  C     C_2   0.524370 0.119429 0.955891 0.900947
O53   O     O_2   0.397607 0.134595 0.935645 -0.535197
O54   O     O_R   0.681189 0.144557 0.967431 -0.642187
H85   H     H_    0.672186 0.174902 0.957587 0.317886
C142  C     C_2   0.543688 0.882840 0.042406 0.902070
O55   O     O_2   0.673930 0.864067 0.058943 -0.543982
O56   O     O_R   0.368166 0.862150 0.035201 -0.645540
H86   H     H_    0.367021 0.831670 0.044873 0.317440
C143  C     C_2   0.476304 0.880562 0.455980 0.901581
O57   O     O_2   0.603555 0.865419 0.435983 -0.534595
O58   O     O_R   0.319351 0.855404 0.467231 -0.642091
H87   H     H_    0.328699 0.825058 0.457421 0.318149
C144  C     C_2   0.456141 0.117241 0.542237 0.901923
O59   O     O_2   0.325569 0.136021 0.558517 -0.544461
O60   O     O_R   0.631723 0.137944 0.535306 -0.645951
H88   H     H_    0.632632 0.168438 0.544937 0.316555
C145  C     C_2   0.707886 0.415306 0.373762 0.741980
O61   O     O_2   0.670577 0.433464 0.403797 -0.573290
O62   O     O_R   0.579196 0.418407 0.342952 -0.662662
H89   H     H_    0.463208 0.436897 0.348942 0.327160
C146  C     C_2   0.305336 0.584583 0.629340 0.758256
O63   O     O_2   0.416400 0.582801 0.656593 -0.545479
O64   O     O_R   0.353461 0.563677 0.595342 -0.672249
H90   H     H_    0.481003 0.547953 0.597095 0.307616
C147  C     C_2   0.294716 0.585283 0.874752 0.754842
O65   O     O_2   0.331995 0.567432 0.904993 -0.570851
O66   O     O_R   0.423979 0.582058 0.844188 -0.662981
H91   H     H_    0.540404 0.563776 0.850535 0.314447
C148  C     C_2   0.687259 0.414582 0.129444 0.755260
O67   O     O_2   0.579923 0.417342 0.157091 -0.546841
O68   O     O_R   0.633502 0.433777 0.094902 -0.672876
H92   H     H_    0.506027 0.449513 0.096684 0.300512
C149  C     C_2   0.201576 0.085751 0.125181 0.761314
O69   O     O_2   0.162067 0.068758 0.094639 -0.567859
O70   O     O_R   0.073643 0.081897 0.155919 -0.662336
H93   H     H_    0.956249 0.063865 0.149441 0.312324
C150  C     C_2   0.811603 0.914009 0.872055 0.752659
O71   O     O_2   0.919407 0.917565 0.844544 -0.546134
O72   O     O_R   0.864950 0.932225 0.907063 -0.674467
H94   H     H_    0.992744 0.948014 0.905733 0.296886
C151  C     C_2   0.797715 0.914227 0.625479 0.761532
O73   O     O_2   0.836941 0.931259 0.594978 -0.567878
O74   O     O_R   0.926131 0.917970 0.656288 -0.662356
H95   H     H_    0.043604 0.935959 0.649891 0.312476
C152  C     C_2   0.189240 0.085982 0.371744 0.752621
O75   O     O_2   0.081057 0.082506 0.344166 -0.546158
O76   O     O_R   0.136223 0.067716 0.406698 -0.674705
H96   H     H_    0.008360 0.051951 0.405269 0.297166

loop_
_geom_bond_atom_site_label_1
_geom_bond_atom_site_label_2
_ccdc_geom_bond_type
C65   C105  A    
C132  H70   S    
C66   C146  S    
C143  O58   S    
O54   H85   S    
C10   N2    A    
O15   V4    S    
C144  O59   D    
O16   V3    S    
C118  H37   S    
N6    C109  S    
C26   C50   A    
C124  H52   S    
C129  H62   S    
C30   C38   A    
C134  H75   S    
C116  H33   S    
C54   O42   S    
C91   H11   S    
C87   C95   A    
C57   C137  S    
C63   C143  S    
N4    C107  S    
N1    C17   A    
O13   V3    S    
N5    C110  S    
C70   C110  A    
O17   V1    S    
N3    C108  S    
C102  H22   S    
C67   C75   A    
O19   V3    S    
O70   H93   S    
C115  H31   S    
O20   V4    S    
C53   O41   S    
O14   V4    S    
C60   C140  S    
C14   C46   A    
C152  O75   D    
C6    C83   S    
O41   C125  S    
O10   V2    S    
O60   H88   S    
C90   H10   S    
O12   C4    A    
O13   C5    A    
C79   C87   A    
C125  H54   S    
C80   C88   A    
C29   C53   A    
C9    C41   A    
O6    V2    S    
C31   C39   A    
C136  H79   S    
C12   N4    A    
C97   C105  A    
C15   N7    A    
C130  H66   S    
C21   O33   S    
C16   N8    A    
O1    C4    A    
C23   O35   S    
O2    C3    A    
C27   C51   A    
O38   C116  S    
O7    C6    A    
C51   C59   A    
C129  C130  S    
C47   C64   A    
C140  O52   S    
C89   C97   A    
O10   C2    A    
C95   C103  A    
C9    O21   S    
C37   C38   A    
O76   H96   S    
C78   H6    S    
C19   O31   S    
C149  O69   D    
C150  O71   D    
C113  H25   S    
C115  H30   S    
C131  H67   S    
O17   V3    S    
C130  H65   S    
O18   V4    S    
O12   V1    S    
O19   V1    S    
C37   C45   A    
C102  C110  A    
C39   C47   A    
O37   C113  S    
C56   O44   S    
C55   O43   S    
C30   C54   A    
C58   C138  S    
O8    V1    S    
C62   C142  S    
C2    C87   S    
C41   C58   A    
C121  H44   S    
C147  O66   S    
C122  H47   S    
C94   C102  A    
C75   C83   A    
C45   C62   A    
O1    V3    S    
C17   C25   A    
C127  H57   S    
C22   O34   S    
O2    V4    S    
C128  H60   S    
C73   C81   A    
C150  O72   S    
C51   O39   S    
C20   C28   A    
C27   C35   A    
C21   C29   A    
C77   C85   A    
C66   C106  A    
C23   C31   A    
C24   C32   A    
C11   N3    A    
C126  H55   S    
C97   H17   S    
N4    C20   A    
N5    C21   A    
C138  O47   D    
C151  O74   S    
O3    V4    S    
O8    C5    A    
C146  O64   S    
C92   C100  A    
C93   C101  A    
C123  C124  S    
C95   H15   S    
C142  O55   D    
C25   C33   A    
C141  O53   D    
C71   C111  A    
C48   C63   A    
C123  H49   S    
C72   C112  A    
C135  H77   S    
N2    C18   A    
C131  C132  S    
C117  H35   S    
O18   V2    S    
C99   C107  A    
C100  H20   S    
C35   C43   A    
C103  H23   S    
C114  H27   S    
C104  H24   S    
C4    C85   S    
C135  C136  S    
O44   C134  S    
C8    C81   S    
C36   C44   A    
C92   H12   S    
C127  H59   S    
C128  C129  S    
O14   C6    A    
C133  H71   S    
C39   C40   A    
C40   C48   A    
C91   C99   A    
C122  C123  S    
C13   O25   S    
C82   C90   A    
O42   C128  S    
C137  O46   S    
C129  H63   S    
C59   C139  S    
C116  H32   S    
C126  C127  S    
C98   C106  A    
C44   C59   A    
C120  C121  S    
C65   C73   A    
O50   H83   S    
C52   C60   A    
C69   C77   A    
C71   C79   A    
C56   C64   A    
C7    C82   S    
O46   H81   S    
O64   H90   S    
O43   C131  S    
C90   C98   A    
O11   C3    A    
C81   C89   A    
C79   H7    S    
C80   H8    S    
C29   C37   A    
C151  O73   D    
C148  O68   S    
C70   C150  S    
O11   V2    S    
C119  H39   S    
O48   H82   S    
C99   H19   S    
C50   O38   S    
C100  C108  A    
C49   C57   A    
C152  O76   S    
C132  C133  S    
O66   H91   S    
O7    V2    S    
C136  H78   S    
C96   C104  A    
C145  O62   S    
C144  O60   S    
C118  H38   S    
O39   C119  S    
C18   C26   A    
C74   C82   A    
C122  H46   S    
C17   O29   S    
C22   C30   A    
C13   C45   A    
C78   C86   A    
O62   H89   S    
C15   C47   A    
C116  C117  S    
O58   H87   S    
C140  O51   D    
C120  H41   S    
C98   H18   S    
C68   C148  S    
C11   C43   A    
N6    C22   A    
C12   O24   S    
C10   C42   A    
O4    C1    A    
C3    C86   S    
C1    C88   S    
C139  O50   S    
C113  H26   S    
O56   H86   S    
C131  H68   S    
C94   H14   S    
C75   H3    S    
C76   C84   A    
C73   H1    S    
N7    C112  S    
N8    C111  S    
C72   C80   A    
C15   O27   S    
C50   C58   A    
C61   C141  S    
C9    N1    A    
C86   C94   A    
C113  C114  S    
O72   H94   S    
N3    C19   A    
C147  O65   D    
C119  C120  S    
C72   C152  S    
O20   V2    S    
C10   O22   S    
C127  H58   S    
C125  H53   S    
O4    V3    S    
O68   H92   S    
C28   C36   A    
C88   C96   A    
C145  O61   D    
C136  H80   S    
C18   O30   S    
C46   C61   A    
C5    C84   S    
C93   H13   S    
C32   C56   A    
C34   C42   A    
C134  C135  S    
C118  H36   S    
C96   H16   S    
C38   C46   A    
C143  O57   D    
O74   H95   S    
C84   C92   A    
C85   C93   A    
C146  O63   D    
C83   C91   A    
C125  C126  S    
C42   C57   A    
C69   C109  A    
C69   C149  S    
N2    C105  S    
C101  H21   S    
C33   C41   A    
O3    C2    A    
C114  H28   S    
C54   C62   A    
C124  H51   S    
C26   C34   A    
C103  C111  A    
O52   H84   S    
C117  H34   S    
C149  O70   S    
C65   C145  S    
C16   C48   A    
C12   C44   A    
O9    V1    S    
C142  O56   S    
C89   H9    S    
O15   C7    A    
O16   C8    A    
C148  O67   D    
C53   C61   A    
C35   C36   A    
C11   O23   S    
C49   O37   S    
C76   H4    S    
O5    V1    S    
C14   N6    A    
N1    C106  S    
C121  H43   S    
C104  C112  A    
C139  O49   D    
C55   C63   A    
C128  H61   S    
C114  C115  S    
C133  H72   S    
C16   O28   S    
C124  H50   S    
C126  H56   S    
C52   O40   S    
C43   C60   A    
O9    C1    A    
C120  H42   S    
C138  O48   S    
C25   C49   A    
C133  H73   S    
C19   C27   A    
C64   C144  S    
C132  H69   S    
N7    C23   A    
C77   H5    S    
N8    C24   A    
C68   C108  A    
C31   C55   A    
C121  H45   S    
C130  H64   S    
C71   C151  S    
C101  C109  A    
C115  H29   S    
C134  H74   S    
C14   O26   S    
C28   C52   A    
O40   C122  S    
O5    C8    A    
C117  C118  S    
O6    C7    A    
C141  O54   S    
C74   H2    S    
C32   C40   A    
C123  H48   S    
C67   C147  S    
C135  H76   S    
C66   C74   A    
C20   O32   S    
C119  H40   S    
C33   C34   A    
C70   C78   A    
C68   C76   A    
C13   N5    A    
C24   O36   S    
C67   C107  A    
C137  O45   D    
