data_mof_unit_43805.cif
_audit_creation_date              2012-12-11T14:14:03-0500
_audit_creation_method            fapswitch 2.2
_symmetry_space_group_name_H-M    P1
_symmetry_Int_Tables_number       1
_space_group_crystal_system       triclinic
_cell_length_a                    17.066246
_cell_length_b                    7.252103
_cell_length_c                    16.921965
_cell_angle_alpha                 88.999147
_cell_angle_beta                  99.622175
_cell_angle_gamma                 91.119973
_cell_volume                      2064.29338731

loop_
_atom_site_label
_atom_site_type_symbol
_atom_type_description
_atom_site_fract_x
_atom_site_fract_y
_atom_site_fract_z
_atom_type_partial_charge
O1    O     O_R   0.414560 0.494370 0.416770 -0.546211
O2    O     O_R   0.585440 0.994370 0.583230 -0.541920
O3    O     O_R   0.578370 0.819590 0.429320 -0.544772
O4    O     O_R   0.421630 0.319590 0.570680 -0.537357
C1    C     C_R   0.603582 0.658525 0.412271 0.736073
C2    C     C_R   0.396924 0.153222 0.587965 0.750209
O5    O     O_R   0.414740 0.823790 0.407360 -0.539377
O6    O     O_R   0.585260 0.323790 0.592640 -0.539427
O7    O     O_R   0.420650 0.998510 0.561120 -0.545421
O8    O     O_R   0.579350 0.498510 0.438880 -0.510409
C3    C     C_R   0.387438 0.655024 0.385737 0.717452
C4    C     C_R   0.611850 0.155068 0.614934 0.743573
O9    O     O_3   0.502130 0.662240 0.550470 -0.394400
O10   O     O_3   0.497870 0.162240 0.449530 -0.375685
V1    V     V_3+5 0.499600 0.935390 0.490640 1.392698
V2    V     V_3+5 0.500400 0.435390 0.509360 1.403913
C5    C     C_2   0.784018 0.271048 0.789629 -0.129069
C6    C     C_2   0.216763 0.771759 0.209980 -0.129858
C7    C     C_2   0.820536 0.113324 0.817337 -0.306637
C8    C     C_2   0.180096 0.613424 0.182012 -0.309534
H1    H     H_    0.804932 0.400614 0.817522 0.140567
H2    H     H_    0.195957 0.902004 0.182337 0.140188
H3    H     H_    0.801465 0.982374 0.790197 0.129258
H4    H     H_    0.199948 0.481436 0.207911 0.126640
C9    C     C_2   0.716152 0.284292 0.721547 -0.131673
C10   C     C_2   0.285655 0.784324 0.277025 -0.134936
C11   C     C_2   0.678327 0.138536 0.683095 -0.297718
C12   C     C_2   0.319276 0.638821 0.319332 -0.302576
H5    H     H_    0.696684 0.422434 0.703028 0.135170
H6    H     H_    0.309319 0.921907 0.291675 0.138582
H7    H     H_    0.696091 0.999526 0.701210 0.130389
H8    H     H_    0.296692 0.500397 0.305978 0.131062
C13   C     C_R   0.335211 0.137464 0.640533 -0.121096
C14   C     C_R   0.663273 0.666317 0.357041 -0.147287
C15   C     C_R   0.167303 0.129496 0.864218 -0.040579
C16   C     C_R   0.833906 0.598694 0.138595 -0.056986
C17   C     C_R   0.299882 0.237740 0.849314 -0.172312
C18   C     C_R   0.737807 0.406726 0.196187 -0.193493
C19   C     C_R   0.239430 0.216707 0.895410 -0.172817
C20   C     C_R   0.790343 0.432314 0.142119 -0.168502
C21   C     C_R   0.157039 0.059073 0.786282 -0.203353
C22   C     C_R   0.822540 0.741103 0.190410 -0.211527
C23   C     C_R   0.216742 0.085217 0.738303 0.108165
C24   C     C_R   0.769367 0.715878 0.245523 0.105250
C25   C     C_R   0.288257 0.181928 0.768633 0.042464
C26   C     C_R   0.725200 0.548432 0.247743 0.052770
C27   C     C_R   0.346436 0.216341 0.717832 0.336342
C28   C     C_R   0.669250 0.526578 0.301260 0.351946
C29   C     C_R   0.265320 0.036283 0.613378 -0.249800
C30   C     C_R   0.709796 0.828884 0.355084 -0.218050
C31   C     C_R   0.206203 0.013661 0.660829 -0.185084
C32   C     C_R   0.760984 0.854430 0.299574 -0.195782
H9    H     H_    0.256082 0.975766 0.554384 0.137066
H10   H     H_    0.705835 0.939528 0.396356 0.165096
H11   H     H_    0.355482 0.297619 0.878003 0.131199
H12   H     H_    0.707821 0.274179 0.197687 0.140992
H13   H     H_    0.152440 0.937216 0.637209 0.129529
H14   H     H_    0.794621 0.982749 0.299457 0.136134
H15   H     H_    0.249455 0.266651 0.956317 0.113841
H16   H     H_    0.797646 0.318612 0.103463 0.132355
H17   H     H_    0.101956 0.987679 0.762484 0.106004
H18   H     H_    0.856856 0.868373 0.189836 0.121760
O11   O     O_R   0.920750 0.773600 0.061260 -0.535748
O12   O     O_R   0.079250 0.273600 0.938740 -0.533121
O13   O     O_R   0.085340 0.439850 0.092570 -0.542398
O14   O     O_R   0.914660 0.939850 0.907430 -0.542934
C33   C     C_R   0.112426 0.608357 0.114521 0.737811
C34   C     C_R   0.887721 0.108162 0.885389 0.728669
O15   O     O_R   0.921720 0.444130 0.070790 -0.544015
O16   O     O_R   0.078280 0.944130 0.929210 -0.537256
O17   O     O_R   0.914480 0.269530 0.916840 -0.535741
O18   O     O_R   0.085520 0.769530 0.083160 -0.535439
C35   C     C_R   0.895982 0.608978 0.086320 0.684446
C36   C     C_R   0.103434 0.114396 0.913562 0.682833
O19   O     O_3   0.997840 0.601520 0.949550 -0.375869
O20   O     O_3   0.002160 0.101520 0.050450 -0.379750
V3    V     V_3+5 0.000400 0.328340 0.009360 1.400684
V4    V     V_3+5 0.999600 0.828340 0.990640 1.403936
O21   O     O_3   0.418687 0.304498 0.745257 -0.577853
C37   C     C_3   0.408569 0.489835 0.766634 0.026164
H19   H     H_    0.435941 0.505293 0.830571 0.142254
H20   H     H_    0.345372 0.533623 0.759958 0.108602
C38   C     C_3   0.451998 0.620580 0.716392 -0.243044
H21   H     H_    0.510234 0.562066 0.709701 0.212143
H22   H     H_    0.414920 0.636950 0.656303 0.204716
C39   C     C_3   0.466363 0.809566 0.754974 -0.806796
H23   H     H_    0.409265 0.867558 0.765173 0.234661
H24   H     H_    0.494090 0.904716 0.715167 0.242243
H25   H     H_    0.507106 0.798056 0.813268 0.221369
O22   O     O_3   0.621613 0.369026 0.300816 -0.567164
C40   C     C_3   0.564073 0.362111 0.229761 0.044586
H26   H     H_    0.563794 0.220406 0.205739 0.140126
H27   H     H_    0.576145 0.458924 0.180983 0.105130
C41   C     C_3   0.481575 0.400529 0.248656 -0.258107
H28   H     H_    0.468205 0.303410 0.296283 0.221279
H29   H     H_    0.480673 0.543879 0.270434 0.170782
C42   C     C_3   0.417749 0.378018 0.174458 -0.869659
H30   H     H_    0.428847 0.476896 0.126517 0.234944
H31   H     H_    0.358416 0.405456 0.189826 0.235318
H32   H     H_    0.417293 0.235124 0.151758 0.229157

loop_
_geom_bond_atom_site_label_1
_geom_bond_atom_site_label_2
_ccdc_geom_bond_type
O14   C34   A    
C15   C36   S    
C20   H16   S    
O16   V4    S    
O12   V3    S    
C8    C33   S    
O15   V3    S    
O1    C3    A    
C27   O21   S    
O2    C4    A    
C2    O7    A    
C42   H30   S    
O5    C3    A    
C30   H10   S    
C39   H24   S    
C13   C29   A    
C33   O18   A    
O18   V4    S    
C16   C22   A    
C8    H4    S    
O13   C33   A    
C6    C10   S    
O16   C36   A    
C30   C32   A    
O15   C35   A    
C31   H13   S    
C21   H17   S    
C22   H18   S    
C24   C32   A    
O5    V1    S    
O6    V2    S    
C28   O22   S    
C21   C23   A    
C22   C24   A    
C37   C38   S    
C42   H31   S    
C24   C26   A    
C25   C27   A    
C9    H5    S    
O14   V4    S    
C26   C28   A    
C14   C30   A    
O13   V3    S    
C4    C11   S    
C11   H7    S    
C12   H8    S    
O20   V3    S    
C37   H20   S    
C40   H26   S    
C7    H3    S    
O11   C35   A    
C41   C42   S    
C29   C31   A    
C5    H1    S    
O4    V2    S    
C15   C19   A    
C40   H27   S    
C38   H21   S    
C16   C20   A    
O6    C4    A    
C19   H15   S    
C1    C14   S    
C7    C34   S    
O1    V2    S    
C41   H29   S    
O2    V1    S    
C23   C25   A    
C32   H14   S    
O4    C2    A    
C38   H22   S    
C10   H6    S    
C13   C27   A    
C14   C28   A    
C17   C25   A    
O17   V3    S    
C42   H32   S    
O3    V1    S    
C39   H23   S    
C37   H19   S    
O3    C1    A    
C39   H25   S    
C9    C11   D    
C10   C12   D    
C2    C13   S    
C5    C9    S    
C6    H2    S    
O7    V1    S    
C1    O8    A    
C17   C19   A    
O8    V2    S    
C40   C41   S    
C18   C20   A    
C23   C31   A    
O22   C40   S    
C3    C12   S    
C34   O17   A    
C29   H9    S    
C5    C7    D    
C6    C8    D    
C41   H28   S    
C15   C21   A    
O19   V4    S    
C18   C26   A    
C16   C35   S    
O21   C37   S    
C17   H11   S    
C38   C39   S    
C18   H12   S    
O9    V2    S    
O12   C36   A    
O10   V1    S    
O11   V4    S    
