data_mof_unit_22075.cif
_audit_creation_date              2012-12-10T18:11:03-0500
_audit_creation_method            fapswitch 2.2
_symmetry_space_group_name_H-M    P1
_symmetry_Int_Tables_number       1
_space_group_crystal_system       triclinic
_cell_length_a                    10.727431
_cell_length_b                    9.534266
_cell_length_c                    10.633296
_cell_angle_alpha                 90.866385
_cell_angle_beta                  90.163824
_cell_angle_gamma                 90.255232
_cell_volume                      1087.41438794

loop_
_atom_site_label
_atom_site_type_symbol
_atom_type_description
_atom_site_fract_x
_atom_site_fract_y
_atom_site_fract_z
_atom_type_partial_charge
C1    C     C_R   0.260188 0.499589 0.501577 0.802420
C2    C     C_3   0.500508 0.496819 0.122570 -0.194285
C3    C     C_3   0.072308 0.598125 0.605930 -0.342905
C4    C     C_3   0.070647 0.348970 0.523390 -0.358928
C5    C     C_3   0.928660 0.597064 0.606071 -0.387515
C6    C     C_3   0.927978 0.349967 0.523155 -0.398593
C7    C     C_3   0.074735 0.549124 0.371596 -0.349473
C8    C     C_3   0.122246 0.498833 0.500914 -0.014923
C9    C     C_3   0.878206 0.500552 0.498107 -0.013005
C10   C     C_3   0.929963 0.552303 0.368465 0.641223
C11   C     C_3   0.613307 0.084157 0.566606 0.335245
C12   C     C_3   0.615649 0.918254 0.561834 0.331142
C13   C     C_3   0.384236 0.083167 0.560172 0.349825
C14   C     C_3   0.386480 0.917378 0.564324 0.335386
C15   C     C_3   0.502811 0.081435 0.373036 -0.393634
C16   C     C_3   0.499042 0.914592 0.372735 -0.401941
C17   C     C_R   0.500074 0.498884 0.259674 0.901753
C18   C     C_R   0.739745 0.500197 0.499674 0.843098
C19   C     C_R   0.500486 0.501258 0.740188 0.899050
C20   C     C_3   0.399823 0.565217 0.042224 0.333777
C21   C     C_3   0.500182 0.367757 0.034798 0.447410
C22   C     C_3   0.397761 0.435199 0.954225 -0.199006
C23   C     C_3   0.500869 0.504127 0.876740 -0.146252
C24   C     C_3   0.501345 0.635509 0.962487 -0.076063
C25   C     C_3   0.603220 0.435638 0.955388 -0.110577
C26   C     C_3   0.603225 0.566286 0.044037 -0.232965
Cu1   Cu    Cu3+1 0.499860 0.642410 0.500060 1.030133
Cu2   Cu    Cu3+1 0.499860 0.357590 0.500060 1.018842
H1    H     H_    0.312896 0.382614 0.916122 0.217597
H2    H     H_    0.697270 0.119736 0.514639 0.080003
H3    H     H_    0.696488 0.888754 0.501700 0.119469
H4    H     H_    0.587982 0.117255 0.323177 0.243388
H5    H     H_    0.579913 0.873956 0.318166 0.240333
H6    H     H_    0.501561 0.746296 0.932209 0.267251
H7    H     H_    0.687469 0.382715 0.917711 0.215988
H8    H     H_    0.105920 0.707203 0.590963 0.218118
H9    H     H_    0.103721 0.275283 0.448498 0.201615
H10   H     H_    0.107686 0.564660 0.699268 0.205965
H11   H     H_    0.104698 0.309518 0.615242 0.224193
H12   H     H_    0.894441 0.559247 0.698406 0.199254
H13   H     H_    0.893712 0.312762 0.615714 0.214317
H14   H     H_    0.114086 0.654900 0.352695 0.222534
H15   H     H_    0.111359 0.478205 0.296401 0.211669
N1    N     N_3   0.500250 0.143650 0.502780 -0.243212
N2    N     N_3   0.500250 0.856350 0.502780 -0.239579
O1    O     O_R   0.317570 0.620260 0.500070 -0.583240
O2    O     O_R   0.317570 0.379740 0.500070 -0.583679
O3    O     O_R   0.499850 0.620240 0.316900 -0.573740
O4    O     O_R   0.499850 0.379760 0.316900 -0.574133
O5    O     O_R   0.682190 0.620260 0.500030 -0.549138
O6    O     O_R   0.682190 0.379740 0.500030 -0.587173
O7    O     O_R   0.499910 0.620280 0.683200 -0.501349
O8    O     O_R   0.499910 0.379720 0.683200 -0.490753
Cl1   Cl    Cl    0.880282 0.727592 0.333736 -0.604899
Cl2   Cl    Cl    0.873629 0.443086 0.240966 -0.597023
Cl3   Cl    Cl    0.641998 0.152823 0.722267 -0.455754
Cl4   Cl    Cl    0.659337 0.841782 0.708908 -0.490267
Cl5   Cl    Cl    0.339238 0.162215 0.707552 -0.473713
Cl6   Cl    Cl    0.355798 0.851026 0.718400 -0.457571
H16   H     H_    0.422029 0.120328 0.318120 0.238408
H17   H     H_    0.414511 0.877417 0.320979 0.230430
H18   H     H_    0.303780 0.111172 0.499164 0.063784
H19   H     H_    0.303294 0.880466 0.510274 0.079911
Cl7   Cl    Cl    0.264730 0.652211 0.100275 -0.557390
Cl8   Cl    Cl    0.500303 0.186607 0.071654 -0.500826
H20   H     H_    0.687245 0.620030 0.082815 0.249242
H21   H     H_    0.894335 0.706207 0.596095 0.243618
H22   H     H_    0.893379 0.273801 0.450697 0.227115

loop_
_geom_bond_atom_site_label_1
_geom_bond_atom_site_label_2
_ccdc_geom_bond_type
Cu1   O3    S    
C20   Cl7   S    
C7    C10   S    
C19   C23   S    
C11   C12   S    
C17   O3    A    
Cu2   O2    S    
C5    C9    S    
C14   Cl6   S    
C22   H1    S    
C7    H15   S    
C16   H5    S    
C1    C8    S    
C15   H16   S    
C4    H11   S    
C2    C17   S    
Cu1   O5    S    
C5    H21   S    
C23   C24   S    
C19   O8    A    
C2    C21   S    
C6    H22   S    
C11   H2    S    
C7    C8    S    
C2    C26   S    
C21   C22   S    
C4    H9    S    
Cu2   O8    S    
C10   Cl2   S    
Cu1   N2    S    
C11   Cl3   S    
C3    H8    S    
C25   H7    S    
C12   Cl4   S    
Cu1   O1    S    
Cu1   Cu2   S    
C24   C26   S    
C15   N1    S    
C14   N2    S    
C23   C25   S    
C12   H3    S    
C10   Cl1   S    
Cu2   O6    S    
C1    O1    A    
C5    H12   S    
C16   H17   S    
C14   H19   S    
C16   N2    S    
C2    C20   S    
C15   C16   S    
C26   H20   S    
C9    C18   S    
C11   N1    S    
C6    C9    S    
Cu1   O7    S    
C18   O5    A    
C4    C6    S    
C3    C8    S    
C9    C10   S    
C7    H14   S    
C17   O4    A    
C4    C8    S    
C18   O6    A    
C21   C25   S    
C22   C23   S    
C1    O2    A    
C6    H13   S    
C13   Cl5   S    
C21   Cl8   S    
C25   C26   S    
C13   C14   S    
C19   O7    A    
Cu2   N1    S    
C13   N1    S    
C24   H6    S    
C13   H18   S    
C20   C24   S    
C3    H10   S    
C20   C22   S    
C12   N2    S    
C3    C5    S    
Cu2   O4    S    
C15   H4    S    
