data_mof_unit_28792.cif
_audit_creation_date              2012-12-10T16:54:00-0500
_audit_creation_method            fapswitch 2.2
_symmetry_space_group_name_H-M    P1
_symmetry_Int_Tables_number       1
_space_group_crystal_system       triclinic
_cell_length_a                    7.745298
_cell_length_b                    8.572244
_cell_length_c                    10.629142
_cell_angle_alpha                 90.709483
_cell_angle_beta                  85.054269
_cell_angle_gamma                 93.788483
_cell_volume                      701.537657647

loop_
_atom_site_label
_atom_site_type_symbol
_atom_type_description
_atom_site_fract_x
_atom_site_fract_y
_atom_site_fract_z
_atom_type_partial_charge
C1    C     C_R   0.545146 0.794653 0.505421 0.962364
C2    C     C_3   0.312156 0.465714 0.940549 -0.434193
C3    C     C_3   0.309887 0.466947 0.083549 -0.407360
C4    C     C_3   0.616473 0.366663 0.920649 0.240672
C5    C     C_3   0.572967 0.659604 0.926538 0.169117
C6    C     C_3   0.501763 0.496666 0.879059 -0.020130
C7    C     C_3   0.258502 0.980129 0.621752 -0.339799
C8    C     C_3   0.152418 0.097761 0.699298 -0.744414
C9    C     C_3   0.497608 0.495834 0.122005 0.048087
C10   C     C_3   0.608561 0.363384 0.065287 -0.414239
C11   C     C_3   0.575478 0.656124 0.071094 -0.417954
C12   C     C_2   0.565165 0.958964 0.512073 -0.381785
C13   C     C_2   0.428566 0.045063 0.548275 -0.013179
C14   C     C_R   0.500679 0.498703 0.742431 0.926817
C15   C     C_R   0.453717 0.206129 0.515758 0.968118
C16   C     C_R   0.498366 0.496848 0.257929 0.872336
Cl1   Cl    Cl    0.556222 0.176240 0.859831 -0.672428
Cl2   Cl    Cl    0.785124 0.721491 0.855057 -0.668165
H1    H     H_    0.254292 0.351483 0.909413 0.222474
H2    H     H_    0.250986 0.353221 0.121587 0.189894
H3    H     H_    0.552100 0.248528 0.102463 0.204462
H4    H     H_    0.484636 0.749808 0.901822 0.159586
H5    H     H_    0.498923 0.751830 0.113946 0.160017
H6    H     H_    0.238802 0.181568 0.747935 0.274668
H7    H     H_    0.071672 0.161526 0.638380 0.262714
H8    H     H_    0.062482 0.034934 0.771595 0.277061
H9    H     H_    0.171659 0.921804 0.554965 0.219913
H10   H     H_    0.291690 0.892603 0.690760 0.243018
H11   H     H_    0.710354 0.677271 0.099047 0.219728
H12   H     H_    0.753792 0.393701 0.883483 0.173933
H13   H     H_    0.743618 0.378174 0.094019 0.172259
H14   H     H_    0.689867 0.009324 0.471486 0.160281
H15   H     H_    0.014686 0.382489 0.405230 0.186885
H16   H     H_    0.985395 0.617567 0.594742 0.229288
H17   H     H_    0.227600 0.557296 0.912449 0.208892
H18   H     H_    0.227049 0.560636 0.122434 0.199759
N1    N     N_2   0.950330 0.457950 0.465890 -0.177740
N2    N     N_2   0.049670 0.542050 0.534110 -0.176306
O1    O     O_R   0.389250 0.738570 0.508370 -0.636297
O2    O     O_R   0.678390 0.711620 0.486510 -0.608386
O3    O     O_R   0.355430 0.513500 0.696140 -0.642959
O4    O     O_R   0.644580 0.486550 0.674270 -0.578271
O5    O     O_R   0.321610 0.288380 0.513490 -0.631382
O6    O     O_R   0.610750 0.261430 0.491630 -0.626394
O7    O     O_R   0.355420 0.513450 0.325730 -0.632664
O8    O     O_R   0.644570 0.486500 0.303860 -0.629830
Zn1   Zn    Zn3+2 0.306940 0.517990 0.514600 0.931879
Zn2   Zn    Zn3+2 0.693060 0.482010 0.485400 0.969654

loop_
_geom_bond_atom_site_label_1
_geom_bond_atom_site_label_2
_ccdc_geom_bond_type
C2    H17   S    
C16   O7    A    
N1    N2    D    
C3    C9    S    
C6    C14   S    
C8    H8    S    
C9    C10   S    
C7    C13   S    
C14   O4    A    
C4    H12   S    
C7    H10   S    
C13   C15   S    
C2    C3    S    
O3    Zn1   S    
C15   O5    A    
C7    C8    S    
O4    Zn2   S    
C12   H14   S    
N1    Zn2   S    
C8    H7    S    
C9    C11   S    
N2    Zn1   S    
C2    C6    S    
C1    C12   S    
C3    H18   S    
C14   O3    A    
C4    Cl1   S    
C11   H5    S    
C8    H6    S    
C9    C16   S    
C15   O6    A    
C5    C11   S    
O7    Zn1   S    
C10   H3    S    
C5    C6    S    
O8    Zn2   S    
C1    O1    A    
C4    C10   S    
C3    H2    S    
C7    H9    S    
C12   C13   D    
C11   H11   S    
C4    C6    S    
C16   O8    A    
O2    Zn2   S    
C5    Cl2   S    
C1    O2    A    
C2    H1    S    
H16   N2    S    
O1    Zn1   S    
O5    Zn1   S    
C10   H13   S    
H15   N1    S    
C5    H4    S    
O6    Zn2   S    
