data_mof_unit_68293.cif
_audit_creation_date              2012-10-26T19:17:56-0400
_audit_creation_method            fapswitch 2.2
_symmetry_space_group_name_H-M    P1
_symmetry_Int_Tables_number       1
_space_group_crystal_system       triclinic
_cell_length_a                    10.85296
_cell_length_b                    12.513487
_cell_length_c                    13.361522
_cell_angle_alpha                 117.412769
_cell_angle_beta                  74.37593
_cell_angle_gamma                 101.382544
_cell_volume                      1545.6053895

loop_
_atom_site_label
_atom_site_type_symbol
_atom_type_description
_atom_site_fract_x
_atom_site_fract_y
_atom_site_fract_z
_atom_type_partial_charge
C1    C     C_R   0.516214 0.854452 0.286692 0.688701
C2    C     C_R   0.283017 0.298415 0.336883 0.262916
C3    C     C_R   0.366560 0.223837 0.240135 0.460228
C4    C     C_R   0.735838 0.005039 0.507490 0.580134
C5    C     C_R   0.354138 0.099351 0.205059 0.413391
C6    C     C_R   0.259036 0.046899 0.267806 0.255079
C7    C     C_R   0.183670 0.121336 0.373482 -0.030072
C8    C     C_R   0.312792 0.288148 0.023381 0.462828
C9    C     C_R   0.453794 0.227779 0.836083 -0.037436
C10   C     C_R   0.661391 0.793385 0.098190 0.296285
C11   C     C_R   0.721191 0.702190 0.995956 0.279936
C12   C     C_R   0.681878 0.749769 0.751854 -0.198377
C13   C     C_R   0.670537 0.582024 0.967502 0.266092
C14   C     C_R   0.545429 0.553883 0.024170 -0.091068
C15   C     C_R   0.481550 0.649024 0.123766 -0.125938
C16   C     C_R   0.480612 0.144839 0.713283 0.560324
C17   C     C_R   0.481473 0.434703 0.984838 -0.079524
C18   C     C_R   0.370148 0.407731 0.056437 0.021865
C19   C     C_R   0.310111 0.501344 0.154404 0.410276
C20   C     C_R   0.356321 0.623062 0.181371 0.290654
C21   C     C_R   0.517612 0.344044 0.872529 -0.141726
C22   C     C_R   0.352528 0.198785 0.912909 0.296853
C23   C     C_R   0.037804 0.936678 0.547229 -0.172177
C24   C     C_R   0.545657 0.767791 0.164101 0.019756
C25   C     C_R   0.682965 0.327652 0.306646 0.269340
C26   C     C_R   0.331679 0.768495 0.653855 0.037471
C27   C     C_R   0.316985 0.695810 0.709624 0.223975
C28   C     C_R   0.263916 0.997188 0.494920 0.556546
C29   C     C_R   0.407659 0.609244 0.670635 0.282909
C30   C     C_R   0.477744 0.568107 0.553978 -0.029040
C31   C     C_R   0.497841 0.653242 0.505526 0.145799
C32   C     C_R   0.534979 0.451855 0.485216 -0.045452
C33   C     C_R   0.612923 0.430532 0.374468 -0.056268
C34   C     C_R   0.130273 0.998151 0.492806 -0.033551
C35   C     C_R   0.624142 0.512723 0.330612 -0.051101
C36   C     C_R   0.591795 0.629704 0.400965 0.317236
C37   C     C_R   0.511255 0.349408 0.511886 0.378186
C38   C     C_R   0.663383 0.236614 0.342676 0.413690
C39   C     C_R   0.660429 0.868983 0.785790 -0.133836
C40   C     C_R   0.732002 0.931841 0.721874 0.269549
C41   C     C_R   0.818595 0.870668 0.618007 0.087877
C42   C     C_R   0.833996 0.748138 0.582674 0.319397
C43   C     C_R   0.766474 0.688766 0.649775 -0.083880
C44   C     C_3   0.162812 0.880626 0.142300 -0.100280
C45   C     C_R   0.092185 0.069648 0.450536 0.016243
C46   C     C_3   0.175568 0.087009 0.845229 -0.111975
C47   C     C_3   0.825177 0.470139 0.944940 -0.133493
C48   C     C_3   0.869839 0.837494 0.934907 -0.072362
C49   C     C_3   0.151459 0.694530 0.268496 -0.029882
C50   C     C_3   0.856468 0.148505 0.255727 0.022947
C51   C     C_3   0.877780 0.386910 0.214852 -0.150246
C52   C     C_3   0.306777 0.353157 0.626748 -0.066265
C53   C     C_3   0.392657 0.635497 0.861332 -0.076077
C54   C     C_3   0.116174 0.635668 0.781128 -0.134462
C55   C     C_3   0.775226 0.700458 0.295552 -0.137286
C56   C     C_R   0.962174 0.091094 0.482157 0.219202
C57   C     C_3   0.777083 0.122009 0.853768 -0.116500
C58   C     C_3   0.894316 0.279990 0.588429 -0.096228
C59   C     C_3   0.191426 0.484419 0.436355 -0.030870
C60   C     C_R   0.869033 0.012532 0.518037 0.006507
C61   C     C_R   0.907729 0.938262 0.556392 -0.020443
C62   C     C_R   0.193090 0.245721 0.403570 -0.227201
Cu1   Cu    Cu3+1 0.529370 0.098270 0.475420 1.091526
Cu2   Cu    Cu3+1 0.470630 0.901730 0.524580 1.060083
F1    F     F_    0.458804 0.272145 0.177685 -0.576757
F2    F     F_    0.433217 0.028508 0.108216 -0.585457
F3    F     F_    0.199664 0.473957 0.217956 -0.641381
F4    F     F_    0.212521 0.258149 0.094930 -0.604017
F5    F     F_    0.726701 0.902443 0.144194 -0.635091
F6    F     F_    0.919338 0.687397 0.486153 -0.726561
H1    H     H_    0.636403 0.705543 0.806668 0.179497
H2    H     H_    0.063955 0.909643 0.184068 0.100483
H3    H     H_    0.155568 0.780528 0.100251 0.123312
H4    H     H_    0.123483 0.995733 0.817994 0.117540
H5    H     H_    0.199643 0.110055 0.770645 0.078727
H6    H     H_    0.108901 0.150754 0.917783 0.139064
H7    H     H_    0.764488 0.435628 0.007367 0.134285
H8    H     H_    0.886801 0.552142 0.989859 0.120503
H9    H     H_    0.890234 0.400175 0.880324 0.108356
H10   H     H_    0.925333 0.894380 0.003326 0.177931
H11   H     H_    0.784142 0.881690 0.947303 0.165550
H12   H     H_    0.587487 0.364763 0.808069 0.220488
H13   H     H_    0.932496 0.831043 0.852009 0.107473
H14   H     H_    0.105320 0.653729 0.328835 0.232884
H15   H     H_    0.128361 0.637679 0.181685 0.081686
H16   H     H_    0.107610 0.780467 0.303852 0.163510
H17   H     H_    0.894822 0.076130 0.261497 0.181030
H18   H     H_    0.894382 0.236793 0.318154 0.111707
H19   H     H_    0.893819 0.138697 0.166330 0.148951
H20   H     H_    0.889668 0.440537 0.305948 0.148571
H21   H     H_    0.960627 0.331404 0.166515 0.201508
H22   H     H_    0.884275 0.449799 0.175951 0.103867
H23   H     H_    0.592688 0.914402 0.864781 0.195965
H24   H     H_    0.259084 0.261626 0.595819 0.124387
H25   H     H_    0.284422 0.402853 0.584920 0.088702
H26   H     H_    0.262186 0.396577 0.719571 0.125933
H27   H     H_    0.408216 0.735030 0.890330 0.175966
H28   H     H_    0.447500 0.615052 0.907429 0.119213
H29   H     H_    0.291091 0.604372 0.886401 0.143036
H30   H     H_    0.142309 0.541119 0.732002 0.074483
H31   H     H_    0.063238 0.656776 0.732700 0.144995
H32   H     H_    0.051923 0.640852 0.862706 0.196334
H33   H     H_    0.766063 0.645933 0.204420 0.082298
H34   H     H_    0.669624 0.489293 0.241581 0.163293
H35   H     H_    0.835507 0.658532 0.320575 0.158330
H36   H     H_    0.825988 0.788679 0.301779 0.142878
H37   H     H_    0.882134 0.111856 0.828006 0.075615
H38   H     H_    0.733305 0.099610 0.928014 0.183261
H39   H     H_    0.763808 0.218054 0.883306 0.158571
H40   H     H_    0.972765 0.305552 0.636684 0.076578
H41   H     H_    0.804337 0.253800 0.638673 0.169962
H42   H     H_    0.878323 0.361493 0.582319 0.137951
H43   H     H_    0.180376 0.500700 0.526879 0.036807
H44   H     H_    0.102583 0.436826 0.403275 0.174034
H45   H     H_    0.273291 0.843434 0.690216 0.164871
H46   H     H_    0.205291 0.574728 0.436542 0.197754
H47   H     H_    0.781960 0.595972 0.623956 0.152173
H48   H     H_    0.066892 0.886927 0.584231 0.161199
H49   H     H_    0.134114 0.302377 0.482199 0.137769
H50   H     H_    0.204761 0.910486 0.072549 0.196307
N1    N     N_R   0.573890 0.246290 0.438210 -0.277013
N2    N     N_R   0.426890 0.754320 0.561170 -0.281149
O1    O     O_R   0.536940 0.972510 0.318130 -0.392367
O2    O     O_3   0.287517 0.084793 0.878833 -0.505592
O3    O     O_3   0.749295 0.492676 0.887082 -0.564165
O4    O     O_3   0.840059 0.720051 0.929620 -0.577224
O5    O     O_3   0.285023 0.718717 0.265770 -0.532071
O6    O     O_3   0.721012 0.129532 0.276232 -0.439884
O7    O     O_3   0.762284 0.310154 0.200388 -0.562462
O8    O     O_3   0.439749 0.354136 0.616436 -0.477503
O9    O     O_3   0.439917 0.570331 0.742257 -0.548579
O10   O     O_3   0.222947 0.720154 0.808431 -0.604972
O11   O     O_3   0.652218 0.720825 0.368989 -0.518613
O12   O     O_R   0.487330 0.806530 0.359650 -0.428528
O13   O     O_3   0.716282 0.052286 0.759708 -0.570000
O14   O     O_3   0.926711 0.187500 0.475400 -0.591830
O15   O     O_3   0.301109 0.422023 0.366139 -0.509287
O16   O     O_R   0.705160 0.082990 0.479250 -0.455260
O17   O     O_R   0.655550 0.917010 0.520760 -0.448230
O18   O     O_R   0.512670 0.193470 0.640350 -0.485323
O19   O     O_R   0.463060 0.027490 0.681870 -0.452141
O20   O     O_R   0.344450 0.082990 0.479240 -0.528551
O21   O     O_R   0.294840 0.917010 0.520750 -0.517469
O22   O     O_3   0.240465 0.922811 0.224977 -0.538896

loop_
_geom_bond_atom_site_label_1
_geom_bond_atom_site_label_2
_ccdc_geom_bond_type
C27   C29   A    
Cu1   O18   S    
C54   H31   S    
C35   C36   A    
C47   H9    S    
C25   O7    S    
C36   O11   S    
C23   H48   S    
C46   H6    S    
C51   O7    S    
C3    F1    S    
C53   H29   S    
C26   C27   A    
C55   H35   S    
C58   H42   S    
C7    C45   S    
C49   H14   S    
C9    C16   S    
C12   C43   A    
C2    C3    A    
C31   C36   A    
C51   H20   S    
C30   C31   A    
C25   C38   A    
C9    C22   A    
Cu2   O19   S    
C59   O15   S    
C55   H33   S    
C42   F6    S    
C37   O8    S    
C52   H25   S    
C18   C19   A    
C41   C42   A    
C26   H45   S    
C39   H23   S    
C51   H21   S    
C44   H2    S    
C57   H39   S    
C19   C20   A    
C45   C56   A    
C59   H46   S    
C8    C22   A    
C52   H24   S    
C53   O9    S    
C41   C61   S    
C50   H18   S    
C13   O3    S    
C28   C34   S    
C13   C14   A    
C27   O10   S    
C14   C17   A    
C46   O2    S    
C16   O18   A    
C46   H5    S    
C56   O14   S    
C47   O3    S    
C15   C20   A    
C49   O5    S    
C40   O13   S    
Cu2   O12   S    
C55   H36   S    
C58   H41   S    
C49   H15   S    
C11   O4    S    
C20   O5    S    
C35   H34   S    
C39   C40   A    
C28   O21   A    
C10   C24   A    
C55   O11   S    
C48   O4    S    
C17   C21   A    
C56   C60   A    
C60   C61   A    
C1    O1    A    
C7    C62   A    
C29   C30   A    
C51   H22   S    
C50   H19   S    
Cu1   O1    S    
C59   H43   S    
C23   C34   A    
C4    C60   S    
C17   C18   A    
Cu1   N1    S    
C29   O9    S    
C34   C45   A    
C32   C37   A    
C19   F3    S    
C62   H49   S    
C50   H17   S    
C43   H47   S    
C37   N1    A    
C40   C41   A    
C57   H37   S    
C12   H1    S    
C8    F4    S    
Cu1   O16   S    
C28   O20   A    
C42   C43   A    
C47   H7    S    
C6    O22   S    
C1    O12   A    
C46   H4    S    
C15   C24   A    
C58   H40   S    
C2    O15   S    
C49   H16   S    
C54   H32   S    
C31   N2    A    
C5    F2    S    
C3    C5    A    
C38   O6    S    
C22   O2    S    
C6    C7    A    
Cu2   O21   S    
C53   H28   S    
C54   O10   S    
C48   H13   S    
C52   O8    S    
C32   C33   A    
C48   H10   S    
C12   C39   A    
C16   O19   A    
C4    O17   A    
C30   C32   A    
C11   C13   A    
C33   C35   A    
C9    C21   A    
C5    C6    A    
C48   H11   S    
C59   H44   S    
Cu2   N2    S    
C54   H30   S    
Cu1   O20   S    
C53   H27   S    
C52   H26   S    
C44   H3    S    
C8    C18   A    
C38   N1    A    
C10   C11   A    
C4    O16   A    
Cu1   Cu2   S    
C10   F5    S    
C23   C61   A    
C57   H38   S    
C50   O6    S    
C21   H12   S    
C1    C24   S    
C44   H50   S    
C14   C15   A    
C57   O13   S    
C44   O22   S    
C26   N2    A    
C47   H8    S    
C2    C62   A    
C25   C33   A    
Cu2   O17   S    
C58   O14   S    
