data_mof_unit_13793.cif
_audit_creation_date              2013-03-05T16:34:12-0500
_audit_creation_method            fapswitch 2.2
_symmetry_space_group_name_H-M    P1
_symmetry_Int_Tables_number       1
_space_group_crystal_system       triclinic
_cell_length_a                    10.880029
_cell_length_b                    10.860014
_cell_length_c                    9.623532
_cell_angle_alpha                 91.399372
_cell_angle_beta                  90.983231
_cell_angle_gamma                 91.180539
_cell_volume                      1136.33234757

loop_
_atom_site_label
_atom_site_type_symbol
_atom_site_description
_atom_site_fract_x
_atom_site_fract_y
_atom_site_fract_z
_atom_type_partial_charge
O1    O     O_R   0.500000 0.319640 0.618810 -0.583160
O2    O     O_R   0.500010 0.319680 0.381230 -0.600910
C1    C     C_R   0.490931 0.262999 0.498287 0.763567
O3    O     O_R   0.319640 0.499990 0.618790 -0.584561
O4    O     O_R   0.319650 0.500030 0.381210 -0.604294
C2    C     C_R   0.262194 0.499107 0.498346 0.800225
Cu1   Cu    Cu3+1 0.499990 0.499980 0.640670 0.999913
Cu2   Cu    Cu3+1 0.500010 0.500020 0.359330 0.969148
O5    O     O_R   0.499990 0.680320 0.618770 -0.544708
O6    O     O_R   0.500000 0.680360 0.381190 -0.598477
O7    O     O_R   0.680350 0.499970 0.618790 -0.538574
O8    O     O_R   0.680360 0.500010 0.381210 -0.562673
C3    C     C_R   0.492540 0.737500 0.502196 0.891892
C4    C     C_R   0.737327 0.500100 0.501486 0.889135
H1    H     H_    0.197986 0.520462 0.857757 0.172469
C5    C     C_R   0.176519 0.641968 0.033971 -0.052710
H2    H     H_    0.204834 0.722856 0.978460 0.214153
C6    C     C_R   0.144611 0.652918 0.173805 -0.046540
H3    H     H_    0.147407 0.742489 0.225890 0.158996
C7    C     C_R   0.105645 0.548196 0.244204 0.121365
C8    C     C_R   0.101676 0.432836 0.175377 -0.147764
H4    H     H_    0.071244 0.352402 0.230984 0.159708
C9    C     C_R   0.135719 0.420838 0.036322 -0.039073
C10   C     C_R   0.172306 0.526730 0.965575 -0.160853
C11   C     C_R   0.934043 0.572340 0.404586 0.308228
C12   C     C_R   0.871349 0.503866 0.504867 -0.162830
C13   C     C_R   0.937816 0.432010 0.599233 0.034812
C14   C     C_R   0.065457 0.438158 0.599354 -0.183548
H5    H     H_    0.116696 0.385381 0.673038 0.124458
C15   C     C_R   0.127607 0.499137 0.495094 -0.118454
C16   C     C_R   0.060230 0.554495 0.387484 -0.095959
C17   C     C_R   0.851250 0.361369 0.829095 0.002575
C18   C     C_R   0.805824 0.263993 0.908403 -0.199280
H6    H     H_    0.784077 0.279064 0.016885 0.137722
C19   C     C_R   0.790792 0.145632 0.850035 -0.048569
H7    H     H_    0.757429 0.071107 0.912851 0.179739
C20   C     C_R   0.816950 0.123556 0.710517 -0.068297
H8    H     H_    0.804283 0.031818 0.665296 0.185469
C21   C     C_R   0.859937 0.219471 0.629343 -0.207028
H9    H     H_    0.881486 0.200344 0.521538 0.149425
C22   C     C_R   0.878798 0.338508 0.687308 0.087891
C23   C     C_R   0.523759 0.070828 0.613672 0.025923
C24   C     C_R   0.479365 0.129311 0.496895 -0.156661
C25   C     C_R   0.413370 0.058869 0.393631 -0.017972
C26   C     C_R   0.413326 0.929602 0.401175 -0.103428
H10   H     H_    0.358780 0.874026 0.327911 0.171962
C27   C     C_R   0.475995 0.871150 0.508764 -0.082686
C28   C     C_R   0.521446 0.943092 0.622142 0.036690
C29   C     C_3   0.471887 0.956581 0.768636 0.165663
C30   C     C_3   0.476062 0.093566 0.755311 -0.442915
H11   H     H_    0.537179 0.931707 0.851890 0.138934
H12   H     H_    0.384195 0.136899 0.753941 0.213196
H13   H     H_    0.544327 0.141183 0.825818 0.184374
C31   C     C_R   0.579381 0.574929 0.075778 0.133565
N1    N     N_R   0.500790 0.500930 0.147930 -0.204096
C32   C     C_R   0.434464 0.414463 0.070565 -0.047240
H14   H     H_    0.378618 0.347145 0.122544 0.146687
C33   C     C_R   0.434079 0.414795 0.922110 -0.077554
H15   H     H_    0.378050 0.347921 0.863903 0.125116
N2    N     N_R   0.500790 0.500890 0.852020 -0.206241
C34   C     C_R   0.584235 0.570046 0.928885 0.144474
C35   C     C_3   0.598871 0.705027 0.920193 0.050379
C36   C     C_3   0.588824 0.713099 0.077602 -0.270360
H16   H     H_    0.519920 0.739621 0.860983 0.143389
H17   H     H_    0.670778 0.749308 0.136214 0.269185
C37   C     C_2   0.333213 0.117489 0.288830 0.433486
H18   H     H_    0.310663 0.213864 0.299443 0.045010
O9    O     O_2   0.287318 0.057625 0.191512 -0.442465
N3    N     N_R   0.345585 0.910077 0.787764 0.135849
O10   O     O_R   0.281361 0.954906 0.889256 -0.269599
O11   O     O_R   0.302651 0.813654 0.718637 -0.381143
N4    N     N_R   0.718236 0.744771 0.866611 0.151699
O12   O     O_R   0.794491 0.812337 0.942944 -0.296030
O13   O     O_R   0.737862 0.734142 0.734062 -0.309297
C38   C     C_2   0.473951 0.778290 0.114104 0.381161
H19   H     H_    0.393622 0.727755 0.147800 0.089146
O14   O     O_2   0.470026 0.889652 0.102089 -0.504154
C39   C     C_2   0.134057 0.298157 0.965772 0.367015
H20   H     H_    0.169308 0.287028 0.862046 0.049621
O15   O     O_2   0.093907 0.207172 0.023322 -0.470127
N5    N     N_R   0.869895 0.660832 0.322916 0.118801
O16   O     O_R   0.882053 0.664167 0.188935 -0.364850
O17   O     O_R   0.801344 0.741786 0.384254 -0.347856
C40   C     C_2   0.869854 0.483037 0.899823 0.415824
H21   H     H_    0.841369 0.495208 0.006508 0.100635
O18   O     O_2   0.918080 0.569944 0.842313 -0.445735

loop_
_geom_bond_atom_site_label_1
_geom_bond_atom_site_label_2
_geom_bond_distance
_ccdc_geom_bond_type
C11   C16   1.402391 A    
C37   O9    1.220639 D    
N1    C32   1.369788 A    
C36   H17   1.106931 S    
C25   C37   1.485621 S    
C19   H7    1.082380 S    
C24   C25   1.415668 A    
N5    O16   1.299707 A    
Cu1   Cu2   2.707498 S    
C21   C22   1.405125 A    
C26   H10   1.078737 S    
Cu1   O7    1.977178 S    
C1    C24   1.454432 S    
C12   C13   1.411358 A    
C35   C36   1.521169 S    
C14   H5    1.077763 S    
C19   C20   1.393347 A    
C40   O18   1.219613 D    
O4    C2    1.298491 A    
O7    C4    1.297197 A    
C39   O15   1.221131 D    
C31   C36   1.501586 S    
C33   N2    1.369538 A    
C32   H14   1.078834 S    
C6    H3    1.082976 S    
N3    O11   1.300945 A    
O5    C3    1.297583 A    
C35   H16   1.100293 S    
C5    H2    1.081364 S    
C29   H11   1.103848 S    
C30   H12   1.113512 S    
C17   C22   1.419115 A    
C37   H18   1.082728 S    
C5    C10   1.399266 A    
C29   N3    1.470346 S    
C8    H4    1.084435 S    
C11   N5    1.440172 S    
C34   C35   1.475819 S    
O3    Cu1   1.969884 S    
Cu2   N1    2.034843 S    
N5    O17   1.301704 A    
C26   C27   1.401993 A    
C17   C40   1.480016 S    
C30   H13   1.108693 S    
C40   H21   1.083321 S    
N4    O13   1.299701 A    
C21   H9    1.083647 S    
C3    C27   1.466204 S    
C39   H20   1.080409 S    
C33   H15   1.078428 S    
N2    C34   1.362794 A    
O1    C1    1.300809 A    
C38   H19   1.081129 S    
C20   H8    1.082613 S    
C13   C22   1.481783 S    
C27   C28   1.403346 A    
Cu2   O8    1.969885 S    
C18   H6    1.083699 S    
C35   N4    1.466133 S    
C5    C6    1.398391 A    
C23   C28   1.391329 A    
C4    C12   1.457677 S    
C38   O14   1.219262 D    
C23   C30   1.483694 S    
O3    C2    1.307133 A    
C28   C29   1.522809 S    
C2    C15   1.464114 S    
O8    C4    1.303543 A    
C8    C9    1.398372 A    
C23   C24   1.388704 A    
Cu1   N2    2.033585 S    
C25   C26   1.407481 A    
Cu1   O5    1.974912 S    
C31   N1    1.370556 A    
H1    C10   1.080075 S    
O1    Cu1   1.964649 S    
O2    Cu2   1.974914 S    
N4    O12   1.301551 A    
O6    C3    1.310629 A    
O4    Cu2   1.977178 S    
C31   C34   1.415261 A    
C17   C18   1.405680 A    
C14   C15   1.392758 A    
O2    C1    1.301094 A    
C11   C12   1.409375 A    
C20   C21   1.395056 A    
C15   C16   1.412014 A    
C36   C38   1.491999 S    
C18   C19   1.395499 A    
C32   C33   1.428684 A    
C6    C7    1.399905 A    
C9    C39   1.480114 S    
N3    O10   1.301323 A    
C9    C10   1.404686 A    
C7    C8    1.402283 A    
Cu2   O6    1.964649 S    
C29   C30   1.496118 S    
C13   C14   1.388945 A    
C7    C16   1.473175 S    
