data_mof_unit_58617.cif
_audit_creation_date              2012-10-26T20:32:48-0400
_audit_creation_method            fapswitch 2.2
_symmetry_space_group_name_H-M    P1
_symmetry_Int_Tables_number       1
_space_group_crystal_system       triclinic
_cell_length_a                    27.828719
_cell_length_b                    10.820603
_cell_length_c                    9.532211
_cell_angle_alpha                 89.89955
_cell_angle_beta                  90.059337
_cell_angle_gamma                 90.142623
_cell_volume                      2870.35810209

loop_
_atom_site_label
_atom_site_type_symbol
_atom_type_description
_atom_site_fract_x
_atom_site_fract_y
_atom_site_fract_z
_atom_type_partial_charge
C1    C     C_R   0.500859 0.262261 0.500050 0.552560
C2    C     C_R   0.974422 0.388954 0.458880 0.018209
C3    C     C_R   0.974508 0.606201 0.538634 0.018216
C4    C     C_R   0.407455 0.499875 0.499916 0.551592
C5    C     C_R   0.949230 0.497463 0.498746 0.034185
C6    C     C_R   0.947375 0.281801 0.425945 -0.141051
C7    C     C_R   0.897484 0.282484 0.427513 -0.111755
C8    C     C_R   0.872424 0.389571 0.462617 0.024382
C9    C     C_R   0.898106 0.497229 0.498749 -0.026993
C10   C     C_R   0.872517 0.604653 0.534908 0.024530
C11   C     C_R   0.822071 0.602481 0.534211 0.398290
C12   C     C_R   0.278876 0.497905 0.372434 -0.056082
C13   C     C_R   0.821973 0.391254 0.463519 0.398655
C14   C     C_R   0.721081 0.490900 0.372518 -0.055240
C15   C     C_R   0.670977 0.491624 0.372687 -0.142137
C16   C     C_R   0.500886 0.737715 0.499856 0.552122
C17   C     C_R   0.671278 0.502461 0.626788 -0.140684
C18   C     C_R   0.721377 0.502130 0.626339 -0.054546
C19   C     C_R   0.746423 0.496530 0.499264 0.242604
C20   C     C_R   0.025497 0.390666 0.454086 0.017984
C21   C     C_R   0.050773 0.497899 0.498903 0.034054
C22   C     C_R   0.025580 0.604924 0.543606 0.017995
C23   C     C_R   0.253651 0.498755 0.499474 0.241509
C24   C     C_R   0.052462 0.288718 0.404990 -0.141234
C25   C     C_R   0.102508 0.705663 0.593723 -0.111722
C26   C     C_R   0.947548 0.713138 0.571448 -0.141108
C27   C     C_R   0.897659 0.711997 0.569901 -0.111777
C28   C     C_R   0.592569 0.499408 0.500044 0.552547
C29   C     C_R   0.052621 0.707095 0.592837 -0.141206
C30   C     C_R   0.506922 0.063301 0.625720 0.028794
C31   C     C_R   0.505682 0.129196 0.499768 0.012235
C32   C     C_R   0.511352 0.064692 0.372905 -0.154735
C33   C     C_R   0.511332 0.935884 0.372773 -0.155130
C34   C     C_R   0.101898 0.498109 0.499034 -0.027034
C35   C     C_R   0.505690 0.870791 0.499501 0.009933
C36   C     C_R   0.506900 0.936115 0.625559 0.019972
C37   C     C_3   0.474271 0.928974 0.749673 -0.262776
C38   C     C_3   0.474356 0.069289 0.750010 -0.272633
C39   C     C_R   0.517016 0.599852 0.073513 0.156455
C40   C     C_R   0.177948 0.396157 0.452968 0.398210
C41   C     C_R   0.478303 0.407942 0.074560 -0.013785
C42   C     C_R   0.478245 0.408041 0.925611 -0.012935
C43   C     C_R   0.517035 0.599798 0.926132 0.155225
C44   C     C_3   0.566497 0.652581 0.920230 -0.273554
C45   C     C_R   0.127495 0.394093 0.451879 0.024733
C46   C     C_3   0.566477 0.652744 0.079521 -0.274151
C47   C     C_R   0.178020 0.600686 0.545532 0.398565
C48   C     C_R   0.278881 0.499942 0.626659 -0.056617
C49   C     C_R   0.328986 0.500292 0.626959 -0.145597
C50   C     C_R   0.328981 0.498303 0.372418 -0.143069
C51   C     C_R   0.102353 0.290561 0.404351 -0.111765
C52   C     C_R   0.127571 0.602336 0.546330 0.024651
C53   C     C_R   0.354519 0.499526 0.499760 0.003077
C54   C     C_R   0.645551 0.497957 0.499886 0.005618
Cu1   Cu    Cu3+1 0.500000 0.499980 0.640670 0.943252
Cu2   Cu    Cu3+1 0.500000 0.500020 0.359330 0.941815
H1    H     H_    0.347650 0.497685 0.272797 0.132096
H2    H     H_    0.513284 0.888053 0.273265 0.129722
H3    H     H_    0.438634 0.888142 0.723834 0.149264
H4    H     H_    0.259583 0.497339 0.273721 0.132650
H5    H     H_    0.492343 0.888368 0.842956 0.133832
H6    H     H_    0.438753 0.110177 0.724651 0.138983
H7    H     H_    0.492610 0.109206 0.843363 0.131624
H8    H     H_    0.461450 0.332324 0.130322 0.116368
H9    H     H_    0.461216 0.332788 0.869986 0.112753
H10   H     H_    0.592980 0.587294 0.875253 0.148063
H11   H     H_    0.567046 0.746880 0.873854 0.130302
H12   H     H_    0.259593 0.500236 0.725263 0.132602
H13   H     H_    0.593025 0.587755 0.125362 0.149117
H14   H     H_    0.566968 0.747205 0.125031 0.123644
H15   H     H_    0.121187 0.209909 0.365950 0.168355
H16   H     H_    0.652262 0.486834 0.273315 0.121520
H17   H     H_    0.740275 0.486435 0.273903 0.130283
H18   H     H_    0.878583 0.197984 0.401128 0.168346
H19   H     H_    0.963520 0.194447 0.400440 0.109116
H20   H     H_    0.036253 0.205988 0.363837 0.110508
H21   H     H_    0.347659 0.501119 0.726686 0.131141
H22   H     H_    0.121401 0.786467 0.632231 0.168370
H23   H     H_    0.963760 0.800661 0.596863 0.109106
H24   H     H_    0.652826 0.506147 0.726414 0.119839
H25   H     H_    0.878827 0.796336 0.596253 0.168351
H26   H     H_    0.740803 0.505860 0.724738 0.130010
H27   H     H_    0.036476 0.789681 0.633942 0.110521
H28   H     H_    0.513395 0.112996 0.273452 0.132494
N1    N     N_R   0.202095 0.498520 0.499327 -0.397952
N2    N     N_R   0.797942 0.496743 0.498957 -0.398855
N3    N     N_R   0.500300 0.500930 0.147930 -0.230482
N4    N     N_R   0.500310 0.500890 0.852020 -0.230233
O1    O     O_R   0.500000 0.319640 0.618810 -0.504115
O2    O     O_R   0.569730 0.499960 0.618810 -0.503125
O3    O     O_R   0.569740 0.500000 0.381220 -0.504466
O4    O     O_2   0.202704 0.296310 0.409197 -0.494379
O5    O     O_2   0.797099 0.288142 0.430197 -0.490560
O6    O     O_2   0.202845 0.700745 0.589435 -0.493740
O7    O     O_2   0.797291 0.705372 0.567606 -0.491584
O8    O     O_R   0.500010 0.319680 0.381230 -0.513896
O9    O     O_R   0.430260 0.500000 0.618780 -0.504411
O10   O     O_R   0.430270 0.500040 0.381190 -0.500572
O11   O     O_R   0.499990 0.680320 0.618770 -0.498590
O12   O     O_R   0.500000 0.680360 0.381190 -0.504668

loop_
_geom_bond_atom_site_label_1
_geom_bond_atom_site_label_2
_ccdc_geom_bond_type
C10   C27   A    
Cu1   Cu2   S    
C33   H2    S    
C22   C29   A    
C4    O10   A    
C4    C53   S    
C41   C42   A    
C44   H10   S    
C35   C36   A    
C39   N3    A    
C19   N2    S    
C6    H19   S    
C15   H16   S    
C12   C23   A    
C26   C27   A    
C8    C13   A    
C43   N4    A    
C47   N1    A    
C36   C37   S    
C29   H27   S    
Cu1   O2    S    
C16   C35   S    
C30   C31   A    
C45   C51   A    
C11   N2    A    
C1    C31   S    
C30   C38   S    
C18   C19   A    
Cu1   N4    S    
C46   H13   S    
C33   C35   A    
Cu2   O3    S    
C20   C24   A    
C8    C9    A    
C13   N2    A    
C42   H9    S    
Cu2   O10   S    
C9    C10   A    
C3    C22   A    
C24   C51   A    
C4    O9    A    
C2    C6    A    
C51   H15   S    
C41   N3    A    
C44   C46   S    
C7    H18   S    
C25   C29   A    
C40   C45   A    
C32   H28   S    
C50   C53   A    
C2    C20   A    
C25   H22   S    
C15   C54   A    
C27   H25   S    
C28   C54   S    
C16   O12   A    
Cu2   N3    S    
C39   C43   A    
C21   C34   A    
C17   H24   S    
C40   O4    S    
C13   O5    S    
C40   N1    A    
C47   C52   A    
C43   C44   S    
C14   H17   S    
C5    C9    A    
C37   C38   S    
C37   H5    S    
C31   C32   A    
Cu1   O9    S    
C17   C18   A    
C34   C45   A    
C48   H12   S    
C37   H3    S    
C39   C46   S    
C48   C49   A    
C2    C5    A    
C42   N4    A    
Cu2   O12   S    
C38   H7    S    
C11   O7    S    
Cu2   O8    S    
C1    O1    A    
C23   C48   A    
C50   H1    S    
C14   C19   A    
C3    C26   A    
C24   H20   S    
C3    C5    A    
C12   C50   A    
C16   O11   A    
C6    C7    A    
C34   C52   A    
C26   H23   S    
C30   C36   A    
C32   C33   A    
C25   C52   A    
Cu1   O1    S    
C1    O8    A    
C49   C53   A    
C18   H26   S    
C47   O6    S    
C49   H21   S    
C28   O3    A    
C46   H14   S    
C7    C8    A    
C10   C11   A    
C12   H4    S    
C20   C21   A    
C23   N1    S    
Cu1   O11   S    
C14   C15   A    
C44   H11   S    
C28   O2    A    
C41   H8    S    
C21   C22   A    
C17   C54   A    
C38   H6    S    
