data_mof_unit_7647.cif
_audit_creation_date              2012-12-11T14:23:02-0500
_audit_creation_method            fapswitch 2.2
_symmetry_space_group_name_H-M    P1
_symmetry_Int_Tables_number       1
_space_group_crystal_system       triclinic
_cell_length_a                    11.160727
_cell_length_b                    11.110726
_cell_length_c                    18.720648
_cell_angle_alpha                 90.692657
_cell_angle_beta                  89.907435
_cell_angle_gamma                 61.034372
_cell_volume                      2030.82174538

loop_
_atom_site_label
_atom_site_type_symbol
_atom_type_description
_atom_site_fract_x
_atom_site_fract_y
_atom_site_fract_z
_atom_type_partial_charge
C1    C     C_R   0.277868 0.627512 0.616288 0.531276
C2    C     C_3   0.691617 0.579029 0.799427 -0.242390
C3    C     C_3   0.731183 0.694278 0.805942 0.028348
C4    C     C_3   0.685936 0.657882 0.671091 0.128419
C5    C     C_3   0.819143 0.669187 0.676934 -0.002715
C6    C     C_3   0.695511 0.538899 0.720635 -0.031336
C7    C     C_R   0.692083 0.172449 0.827877 0.043329
C8    C     C_R   0.807300 0.133467 0.781967 -0.021562
C9    C     C_R   0.792190 0.124012 0.706696 -0.052461
C10   C     C_R   0.546816 0.251770 0.725693 -0.177857
C11   C     C_R   0.562601 0.243174 0.798859 -0.166958
C12   C     C_R   0.656137 0.623948 0.598669 0.570086
C13   C     C_R   0.930553 0.123730 0.807203 0.130186
C14   C     C_R   0.042613 0.083584 0.760655 0.225893
C15   C     C_R   0.035051 0.041995 0.690233 -0.095492
C16   C     C_R   0.911398 0.062035 0.662789 0.231856
C17   C     C_R   0.658169 0.189125 0.678454 0.003481
C18   C     C_R   0.212167 0.647129 0.844591 0.044055
C19   C     C_R   0.217860 0.535805 0.806889 -0.008522
C20   C     C_R   0.222012 0.533085 0.730979 0.000679
C21   C     C_R   0.266276 0.725626 0.736598 -0.162110
C22   C     C_R   0.255854 0.728730 0.811454 0.071657
C23   C     C_R   0.625925 0.231330 0.603473 0.577294
C24   C     C_R   0.212130 0.430426 0.844243 -0.116955
C25   C     C_R   0.171145 0.347793 0.810112 -0.117981
C26   C     C_R   0.159908 0.351883 0.736140 -0.151208
C27   C     C_R   0.196888 0.433644 0.696746 -0.149287
C28   C     C_R   0.246433 0.631923 0.694549 -0.042448
C29   C     C_R   0.653595 0.680855 0.169201 -0.029532
C30   C     C_R   0.697423 0.548933 0.195022 0.003567
C31   C     C_R   0.728503 0.525299 0.267916 0.006811
C32   C     C_R   0.628652 0.772105 0.290871 0.040637
C33   C     C_R   0.621768 0.791260 0.217126 -0.103996
C34   C     C_R   0.229823 0.645375 0.399321 0.555732
C35   C     C_R   0.734856 0.436870 0.147151 -0.077576
C36   C     C_R   0.831066 0.306110 0.166838 -0.111818
C37   C     C_R   0.880097 0.283989 0.235846 -0.157053
C38   C     C_R   0.828161 0.389730 0.286286 -0.100434
C39   C     C_R   0.671048 0.640104 0.317105 -0.008519
C40   C     C_R   0.659035 0.153328 0.176080 -0.027660
C41   C     C_R   0.529481 0.244418 0.202953 0.010043
C42   C     C_R   0.507915 0.236866 0.275978 -0.042676
C43   C     C_R   0.754247 0.088411 0.295160 0.244583
C44   C     C_R   0.764753 0.068854 0.222306 -0.134318
C45   C     C_R   0.644780 0.619167 0.392095 0.524003
C46   C     C_R   0.417352 0.325120 0.158066 0.303538
C47   C     C_R   0.285408 0.359562 0.180787 -0.097982
C48   C     C_R   0.265000 0.324153 0.248797 -0.175807
C49   C     C_R   0.372796 0.269525 0.297181 -0.079395
C50   C     C_R   0.625768 0.181402 0.322190 0.050161
C51   C     C_R   0.053242 0.739177 0.195258 -0.029268
C52   C     C_R   0.118179 0.810708 0.225943 0.053266
C53   C     C_R   0.205141 0.747986 0.281763 -0.015290
C54   C     C_R   0.077839 0.625397 0.307754 0.097225
C55   C     C_R   0.026943 0.651934 0.237924 -0.131467
C56   C     C_R   0.612114 0.231550 0.394896 0.567960
C57   C     C_R   0.107249 0.936579 0.200863 -0.070796
C58   C     C_R   0.199456 0.980016 0.221254 -0.149197
C59   C     C_R   0.303697 0.899750 0.266566 -0.126774
C60   C     C_R   0.311790 0.779535 0.293230 -0.095677
C61   C     C_R   0.174397 0.666483 0.327864 0.048909
C62   C     C_R   0.703396 0.104059 0.897138 0.586117
C63   C     C_R   0.755504 0.709997 0.883371 0.572967
C64   C     C_R   0.124308 0.702243 0.908908 0.565048
C65   C     C_R   0.677111 0.105501 0.103374 0.588236
C66   C     C_R   0.696730 0.692788 0.097456 0.523972
C67   C     C_3   0.609296 0.827627 0.775526 -0.002275
C68   C     C_R   0.025448 0.749767 0.118679 0.522867
C69   C     C_3   0.570131 0.797141 0.699837 -0.058874
C70   C     C_3   0.860688 0.655617 0.757712 -0.209599
Cr1   Cr    Cr6+3 0.392940 0.397950 0.502230 1.004786
Cr2   Cr    Cr6+3 0.398400 0.708500 0.501260 0.981526
Cr3   Cr    Cr6+3 0.708640 0.393530 0.496460 1.025090
Cr4   Cr    Cr6+3 0.937880 0.938320 0.007620 0.994250
Cr5   Cr    Cr6+3 0.625560 0.937220 0.994510 1.038671
Cr6   Cr    Cr6+3 0.938080 0.625010 0.001190 0.992168
H1    H     H_    0.936202 0.549670 0.769784 0.177747
H2    H     H_    0.445690 0.303911 0.705369 0.169693
H3    H     H_    0.473401 0.279220 0.832726 0.148658
H4    H     H_    0.120775 0.002537 0.653565 0.139892
H5    H     H_    0.288679 0.795297 0.709248 0.118591
H6    H     H_    0.519985 0.860255 0.810647 0.143679
H7    H     H_    0.231231 0.416682 0.901057 0.145517
H8    H     H_    0.144094 0.286301 0.843160 0.184894
H9    H     H_    0.116229 0.297382 0.708366 0.162924
H10   H     H_    0.196237 0.419219 0.640212 0.160892
H11   H     H_    0.701809 0.452423 0.092045 0.128762
H12   H     H_    0.598883 0.891392 0.197309 0.160064
H13   H     H_    0.871849 0.223828 0.127595 0.133259
H14   H     H_    0.959203 0.184798 0.251066 0.108358
H15   H     H_    0.484119 0.776918 0.706116 0.098953
H16   H     H_    0.881716 0.362943 0.336140 0.149923
H17   H     H_    0.852447 0.980461 0.201594 0.133489
H18   H     H_    0.200147 0.407779 0.144629 0.152405
H19   H     H_    0.164743 0.340690 0.264435 0.135193
H20   H     H_    0.348768 0.241427 0.347962 0.173373
H21   H     H_    0.027952 0.003799 0.165245 0.137114
H22   H     H_    0.966428 0.607051 0.217432 0.128116
H23   H     H_    0.191018 0.074773 0.201101 0.115099
H24   H     H_    0.373350 0.935340 0.282486 0.149031
H25   H     H_    0.397250 0.713726 0.324919 0.163577
H26   H     H_    0.907291 0.721921 0.770418 0.104136
H27   H     H_    0.797239 0.772427 0.660837 0.121357
H28   H     H_    0.756710 0.488261 0.832200 0.160071
H29   H     H_    0.587717 0.614281 0.821270 0.098314
H30   H     H_    0.605228 0.522883 0.711414 0.115209
O1    O     O_R   0.507340 0.255690 0.581430 -0.537317
O2    O     O_R   0.524510 0.695820 0.424050 -0.523728
O3    O     O_R   0.736370 0.504260 0.414810 -0.535870
O4    O     O_R   0.691220 0.277270 0.422180 -0.512980
O5    O     O_3   0.499990 0.499990 0.499980 -0.281533
O6    O     O_R   0.089570 0.825450 0.930590 -0.489847
O7    O     O_R   0.818700 0.054260 0.929860 -0.478553
O8    O     O_R   0.606310 0.077010 0.915520 -0.502422
O9    O     O_R   0.646730 0.806540 0.917560 -0.489813
O10   O     O_R   0.837290 0.593240 0.915240 -0.536111
O11   O     O_R   0.065320 0.635310 0.931580 -0.528568
O12   O     O_R   0.280360 0.527380 0.578910 -0.523970
O13   O     O_R   0.068470 0.828620 0.091850 -0.540196
O14   O     O_R   0.799150 0.057200 0.079350 -0.558654
O15   O     O_R   0.585220 0.080180 0.076770 -0.475044
O16   O     O_R   0.627170 0.809480 0.067050 -0.506855
O17   O     O_R   0.816200 0.596410 0.076500 -0.520244
O18   O     O_R   0.045770 0.638240 0.081070 -0.514295
O19   O     O_3   0.833840 0.833520 0.001110 -0.302161
O20   O     O_R   0.260600 0.739610 0.584580 -0.516854
O21   O     O_R   0.532370 0.695050 0.573830 -0.539550
O22   O     O_R   0.744850 0.503430 0.576380 -0.472595
O23   O     O_R   0.699080 0.276500 0.571950 -0.464369
O24   O     O_R   0.498860 0.256520 0.419860 -0.541975
O25   O     O_R   0.272490 0.528150 0.429140 -0.474009
O26   O     O_R   0.252110 0.740440 0.423010 -0.540887
N1    N     N_3   0.639380 0.941469 0.777152 -0.603799
H31   H     H_    0.549091 0.029175 0.764553 0.261800
H32   H     H_    0.711359 0.930377 0.738708 0.236035
N2    N     N_3   0.821579 0.409948 0.704151 -0.627039
H33   H     H_    0.796913 0.344014 0.676119 0.271883
H34   H     H_    0.877147 0.358799 0.748837 0.231505
N3    N     N_3   0.925183 0.578215 0.626540 -0.630177
H35   H     H_    0.967618 0.475894 0.640718 0.283487
H36   H     H_    0.999182 0.609342 0.621954 0.221596
N4    N     N_3   0.933280 0.181733 0.875860 -0.587262
H37   H     H_    0.943917 0.269109 0.868534 0.225837
H38   H     H_    0.018576 0.109997 0.903855 0.264374
O27   O     O_3   0.147018 0.104861 0.786623 -0.640403
C71   C     C_3   0.266650 0.050895 0.745310 -0.161218
H39   H     H_    0.250580 0.079626 0.688380 0.115115
H40   H     H_    0.322263 0.942928 0.753534 0.125771
H41   H     H_    0.332408 0.090321 0.767522 0.167257
O28   O     O_3   0.908533 0.034964 0.590706 -0.558165
C72   C     C_3   0.899249 0.913866 0.582310 -0.103914
H42   H     H_    0.791635 0.937107 0.589894 0.105277
H43   H     H_    0.969292 0.831295 0.618726 0.117308
H44   H     H_    0.930054 0.874168 0.526906 0.152580
N5    N     N_3   0.294658 0.808026 0.856653 -0.619731
H45   H     H_    0.223964 0.911379 0.854511 0.296934
H46   H     H_    0.392122 0.788120 0.843638 0.208819
N6    N     N_3   0.604547 0.885071 0.337597 -0.632969
H47   H     H_    0.692987 0.856589 0.367588 0.262728
H48   H     H_    0.524853 0.903970 0.373050 0.236637
O29   O     O_3   0.852369 0.986956 0.337519 -0.590982
C73   C     C_3   0.929362 0.035472 0.376114 -0.096542
H49   H     H_    0.906123 0.038163 0.433869 0.177255
H50   H     H_    0.913164 0.137939 0.360443 0.108395
H51   H     H_    0.039475 0.962660 0.368604 0.158268
O30   O     O_3   0.438236 0.357455 0.089727 -0.564854
C74   C     C_3   0.410410 0.495465 0.089817 -0.118935
H52   H     H_    0.452272 0.513819 0.039843 0.143809
H53   H     H_    0.458304 0.520792 0.135586 0.108049
H54   H     H_    0.298751 0.565918 0.090620 0.173846
N7    N     N_3   0.035615 0.554999 0.357152 -0.617354
H55   H     H_    0.980577 0.624725 0.398274 0.241492
H56   H     H_    0.967202 0.529210 0.332532 0.221086
N8    N     N_3   0.530178 0.913737 0.650865 -0.658605
H57   H     H_    0.440406 0.932758 0.624502 0.240568
H58   H     H_    0.602640 0.891904 0.610489 0.230916

loop_
_geom_bond_atom_site_label_1
_geom_bond_atom_site_label_2
_ccdc_geom_bond_type
C36   H13   S    
N7    H55   S    
C5    H27   S    
C8    C13   A    
Cr6   O19   S    
C48   H19   S    
Cr1   O1    S    
N5    H46   S    
Cr5   O16   S    
C41   C42   A    
C35   C36   A    
C68   O18   A    
O29   C73   S    
C10   H2    S    
C7    C8    A    
C74   H53   S    
C12   O21   A    
C7    C11   A    
Cr4   O13   S    
N7    H56   S    
C14   O27   S    
C26   C27   A    
C37   C38   A    
C37   H14   S    
C36   C37   A    
C67   N1    S    
C33   H12   S    
C62   O8    A    
C68   O13   A    
O27   C71   S    
C30   C31   A    
C45   O3    A    
C64   O6    A    
Cr4   O19   S    
C10   C17   A    
C15   C16   A    
C73   H51   S    
C29   C33   A    
C23   O23   A    
C18   C19   A    
C72   H44   S    
N8    H57   S    
C6    N2    S    
C44   H17   S    
C54   C55   A    
C53   C61   A    
C47   H18   S    
Cr2   O2    S    
C8    C9    A    
Cr1   O5    S    
C1    C28   S    
C41   C46   A    
C66   O16   A    
C5    N3    S    
C65   O15   A    
C4    C12   S    
C71   H40   S    
C45   O2    A    
C39   C45   S    
C63   O9    A    
Cr2   O5    S    
C34   O26   A    
C59   C60   A    
Cr5   O15   S    
C13   C14   A    
C70   H1    S    
N6    H48   S    
C59   H24   S    
C2    C6    S    
C35   H11   S    
C23   O1    A    
C56   O4    A    
C4    C69   S    
C51   C68   S    
C53   C60   A    
Cr2   O26   S    
C74   H54   S    
C32   N6    S    
C22   N5    S    
Cr3   O23   S    
C71   H39   S    
Cr2   O21   S    
C51   C52   A    
Cr6   O18   S    
C47   C48   A    
Cr3   O4    S    
Cr3   O5    S    
C1    O20   A    
C62   O7    A    
C4    C6    S    
C10   C11   A    
C74   H52   S    
N2    H33   S    
C20   C28   A    
C58   C59   A    
Cr4   O7    S    
C34   C61   S    
C50   C56   S    
C64   O11   A    
Cr2   O20   S    
C67   C69   S    
N6    H47   S    
C27   H10   S    
C43   C44   A    
C7    C62   S    
C29   C30   A    
C25   H8    S    
C71   H41   S    
C15   H4    S    
C14   C15   A    
C2    H28   S    
C72   H42   S    
C57   H21   S    
C3    C70   S    
C6    H30   S    
Cr5   O8    S    
C17   C23   S    
C13   N4    S    
C24   C25   A    
C11   H3    S    
C42   C50   A    
C63   O10   A    
C43   O29   S    
C9    C17   A    
C48   C49   A    
C54   C61   A    
C21   C28   A    
C21   H5    S    
C34   O25   A    
C40   C65   S    
N1    H31   S    
N4    H38   S    
Cr5   O9    S    
C69   N8    S    
C60   H25   S    
Cr4   O14   S    
C52   C53   A    
N2    H34   S    
C73   H49   S    
C46   C47   A    
C40   C41   A    
C46   O30   S    
Cr1   O12   S    
C18   C22   A    
Cr6   O17   S    
C54   N7    S    
C24   H7    S    
C3    C67   S    
C58   H23   S    
C4    C5    S    
C5    C70   S    
N3    H35   S    
C70   H26   S    
C43   C50   A    
Cr3   O3    S    
C12   O22   A    
C20   C27   A    
C3    C63   S    
Cr3   O22   S    
C30   C35   A    
C2    H29   S    
Cr6   O11   S    
O28   C72   S    
C31   C38   A    
C32   C33   A    
C19   C20   A    
C19   C24   A    
C25   C26   A    
C73   H50   S    
C69   H15   S    
Cr1   O24   S    
Cr4   O6    S    
N3    H36   S    
C18   C64   S    
C57   C58   A    
O30   C74   S    
C26   H9    S    
C55   H22   S    
Cr6   O10   S    
C65   O14   A    
C31   C39   A    
C2    C3    S    
C51   C55   A    
C1    O12   A    
C72   H43   S    
C49   H20   S    
C32   C39   A    
N8    H58   S    
C52   C57   A    
C42   C49   A    
Cr1   O25   S    
C29   C66   S    
C66   O17   A    
C40   C44   A    
C67   H6    S    
N5    H45   S    
N1    H32   S    
N4    H37   S    
C16   O28   S    
Cr5   O19   S    
C21   C22   A    
C56   O24   A    
C38   H16   S    
C9    C16   A    
