data_mof_unit_15443.cif
_audit_creation_date              2012-12-11T16:53:53-0500
_audit_creation_method            fapswitch 2.2
_symmetry_space_group_name_H-M    P1
_symmetry_Int_Tables_number       1
_space_group_crystal_system       triclinic
_cell_length_a                    15.009163
_cell_length_b                    14.75378
_cell_length_c                    17.101969
_cell_angle_alpha                 108.528411
_cell_angle_beta                  106.421058
_cell_angle_gamma                 108.2528
_cell_volume                      3087.65177185

loop_
_atom_site_label
_atom_site_type_symbol
_atom_type_description
_atom_site_fract_x
_atom_site_fract_y
_atom_site_fract_z
_atom_type_partial_charge
C1    C     C_R   0.086499 0.281390 0.070213 -0.202209
C2    C     C_R   0.066416 0.486709 0.254550 -0.136422
C3    C     C_R   0.278017 0.784573 0.173792 -0.128175
C4    C     C_R   0.939402 0.461228 0.734910 -0.129078
C5    C     C_R   0.742780 0.469159 0.051818 -0.139006
C6    C     C_R   0.336659 0.781450 0.250646 0.087502
C7    C     C_R   0.715833 0.544810 0.034914 0.068828
C8    C     C_R   0.977080 0.429263 0.258990 0.055163
C9    C     C_R   0.999878 0.818832 0.970312 0.055726
C10   C     C_R   0.477254 0.574905 0.987135 0.119012
C11   C     C_R   0.463285 0.585252 0.065943 0.068961
C12   C     C_R   0.032206 0.472580 0.727630 0.075056
C13   C     C_R   0.545620 0.606082 0.144116 -0.180163
C14   C     C_R   0.633915 0.598776 0.136954 -0.196697
C15   C     C_R   0.639439 0.574559 0.052786 -0.001421
C16   C     C_R   0.758402 0.199886 0.813232 -0.148970
C17   C     C_R   0.564572 0.571642 0.980602 0.098718
C18   C     C_3   0.504127 0.487365 0.882970 0.102888
C19   C     C_3   0.407428 0.491464 0.891319 -0.542099
C20   C     C_R   0.975882 0.394538 0.329894 0.114118
C21   C     C_R   0.048370 0.436988 0.644360 0.086006
C22   C     C_R   0.151798 0.492334 0.567851 -0.221002
C23   C     C_R   0.724540 0.192852 0.726696 0.061613
C24   C     C_R   0.143155 0.498472 0.647172 -0.234888
C25   C     C_R   0.967624 0.354338 0.559956 0.220932
C26   C     C_R   0.972303 0.356204 0.479309 0.130379
C27   C     C_R   0.064387 0.429064 0.485269 0.144009
C28   C     C_R   0.300861 0.598444 0.005756 0.252926
C29   C     C_R   0.065922 0.446024 0.410797 -0.251533
C30   C     C_R   0.886692 0.315142 0.320306 -0.182706
C31   C     C_R   0.885279 0.294677 0.394199 -0.212115
C32   C     C_R   0.674495 0.096218 0.641129 0.133182
C33   C     C_R   0.445694 0.854663 0.316476 0.071483
C34   C     C_R   0.360707 0.567759 0.058423 -0.016106
C35   C     C_R   0.586740 0.033370 0.399378 -0.262630
C36   C     C_R   0.505191 0.952348 0.317615 0.330207
C37   C     C_R   0.485699 0.834224 0.390603 -0.348458
C38   C     C_R   0.561241 0.917625 0.473179 0.195099
C39   C     C_R   0.606882 0.019068 0.477883 0.136780
C40   C     C_R   0.754941 0.296305 0.736040 -0.137521
C41   C     C_R   0.663385 0.106997 0.561383 -0.254284
C42   C     C_R   0.637558 0.994098 0.637239 -0.180024
C43   C     C_R   0.581580 0.904496 0.552998 -0.205493
C44   C     C_R   0.076109 0.140766 0.167212 0.135970
C45   C     C_R   0.273646 0.689404 0.251241 -0.120171
C46   C     C_R   0.999923 0.110423 0.081586 0.053911
C47   C     C_R   0.918307 0.006143 0.037155 -0.196979
C48   C     C_R   0.904882 0.943545 0.084240 -0.182387
C49   C     C_R   0.973856 0.983088 0.175231 0.028200
C50   C     C_R   0.063110 0.078262 0.212834 0.157005
C51   C     C_3   0.110482 0.172633 0.303072 -0.472916
C52   C     C_R   0.297497 0.503403 0.083596 0.283733
C53   C     C_3   0.125284 0.241425 0.253501 -0.510354
C54   C     C_R   0.110796 0.536029 0.814233 -0.145670
C55   C     C_R   0.914735 0.201589 0.000913 0.327777
C56   C     C_R   0.752042 0.566428 0.974681 -0.129569
C57   C     C_R   0.000298 0.188263 0.043835 0.013133
C58   C     C_3   0.527706 0.525287 0.814232 -0.979226
C59   C     C_3   0.877120 0.267835 0.555107 -1.082705
C60   C     C_3   0.484093 0.977646 0.237692 -1.065694
C61   C     C_3   0.342199 0.697338 0.993391 -1.042984
C62   C     C_3   0.334293 0.484891 0.165486 -1.058674
C63   C     C_3   0.809018 0.147916 0.996348 -1.082912
C64   C     C_R   0.893932 0.400516 0.179291 -0.128357
C65   C     C_R   0.084380 0.804770 0.013234 -0.116772
C66   C     C_R   0.914314 0.720875 0.933589 -0.138510
H1    H     H_    0.742183 0.620321 0.946660 0.108175
H2    H     H_    0.135852 0.507320 0.419796 0.117071
H3    H     H_    0.817150 0.271347 0.257155 0.119730
H4    H     H_    0.208659 0.559026 0.710319 0.132834
H5    H     H_    0.690778 0.184316 0.562844 0.126198
H6    H     H_    0.746872 0.135064 0.831279 0.119315
H7    H     H_    0.547845 0.826405 0.550371 0.122678
H8    H     H_    0.861450 0.975435 0.968374 0.138920
H9    H     H_    0.837827 0.866961 0.051757 0.133164
H10   H     H_    0.054188 0.177314 0.332946 0.205171
H11   H     H_    0.184774 0.181439 0.349602 0.191147
H12   H     H_    0.814571 0.343662 0.154957 0.093106
H13   H     H_    0.077758 0.285798 0.254480 0.211412
H14   H     H_    0.208056 0.289808 0.271594 0.188439
H15   H     H_    0.294779 0.653061 0.294521 0.092332
H16   H     H_    0.163489 0.302798 0.116382 0.136887
H17   H     H_    0.164769 0.861466 0.041932 0.093619
H18   H     H_    0.694346 0.606050 0.194634 0.137579
H19   H     H_    0.541005 0.609517 0.834508 0.252446
H20   H     H_    0.596953 0.517743 0.808275 0.240110
H21   H     H_    0.461478 0.474230 0.746019 0.259400
H22   H     H_    0.505704 0.409658 0.872975 0.139927
H23   H     H_    0.837520 0.700018 0.886477 0.092111
H24   H     H_    0.368835 0.523016 0.848427 0.203582
H25   H     H_    0.223597 0.545976 0.572196 0.134518
H26   H     H_    0.813538 0.236295 0.385479 0.145786
H27   H     H_    0.890901 0.265641 0.621550 0.271850
H28   H     H_    0.807517 0.280667 0.530865 0.239704
H29   H     H_    0.863638 0.188608 0.506796 0.265990
H30   H     H_    0.647330 0.983181 0.698184 0.114786
H31   H     H_    0.627864 0.111144 0.403777 0.137032
H32   H     H_    0.552011 0.046970 0.248778 0.253026
H33   H     H_    0.470029 0.910044 0.176270 0.253228
H34   H     H_    0.145315 0.506957 0.296342 0.087485
H35   H     H_    0.418858 0.999529 0.227850 0.250232
H36   H     H_    0.449700 0.757753 0.389458 0.132836
H37   H     H_    0.415713 0.757851 0.053138 0.252410
H38   H     H_    0.358444 0.679407 0.932392 0.243073
H39   H     H_    0.285722 0.731317 0.985878 0.252429
H40   H     H_    0.732047 0.321695 0.684384 0.088955
H41   H     H_    0.356319 0.418423 0.148878 0.256416
H42   H     H_    0.400304 0.558236 0.223017 0.242679
H43   H     H_    0.273700 0.468079 0.190680 0.243513
H44   H     H_    0.191763 0.558154 0.833427 0.120997
H45   H     H_    0.301436 0.835192 0.143148 0.121952
H46   H     H_    0.765230 0.066610 0.938860 0.241768
H47   H     H_    0.815774 0.142880 0.061038 0.265244
H48   H     H_    0.764958 0.194511 0.986706 0.253412
H49   H     H_    0.723202 0.431729 0.093529 0.103800
H50   H     H_    0.541023 0.622717 0.208511 0.139699
H51   H     H_    0.864185 0.425401 0.679519 0.112595
H52   H     H_    0.354011 0.416782 0.887776 0.174786
N1    N     N_R   0.055640 0.348550 0.045600 -0.050163
N2    N     N_R   0.811290 0.303400 0.871650 -0.038768
N3    N     N_R   0.205180 0.552990 0.997660 -0.073404
N4    N     N_R   0.814810 0.361830 0.823710 -0.038203
N5    N     N_R   0.201660 0.494570 0.045600 -0.069761
N6    N     N_R   0.068420 0.560530 0.871650 -0.037445
N7    N     N_R   0.948050 0.295860 0.997660 -0.055734
N8    N     N_R   0.185190 0.638170 0.176290 -0.038982
N9    N     N_R   0.798340 0.505430 0.954400 -0.042626
N10   N     N_R   0.931580 0.439470 0.128350 -0.036072
N11   N     N_R   0.051950 0.704140 0.002340 -0.040857
N12   N     N_R   0.944360 0.651450 0.954400 -0.038939
N13   N     N_R   0.039170 0.492150 0.176290 -0.035816
N14   N     N_R   0.188710 0.696600 0.128350 -0.042692
N15   N     N_R   0.794820 0.447010 0.002340 -0.041772
N16   N     N_R   0.960830 0.507850 0.823710 -0.041118
Ni1   Ni    Ni4+2 0.119330 0.493420 0.109950 0.201364
Ni2   Ni    Ni4+2 0.880670 0.506580 0.890050 0.208506
Ni3   Ni    Ni4+2 0.872590 0.372590 0.000000 0.208547
Ni4   Ni    Ni4+2 0.127410 0.627410 0.000000 0.204945

loop_
_geom_bond_atom_site_label_1
_geom_bond_atom_site_label_2
_ccdc_geom_bond_type
C43   H7    S    
C58   H19   S    
N15   Ni3   S    
C6    C45   A    
C27   C29   A    
C35   C36   A    
C16   H6    S    
C14   H18   S    
C60   H33   S    
C58   H21   S    
C24   H4    S    
C39   C41   A    
C20   C30   A    
C5    N15   A    
C26   C27   A    
C8    C20   S    
C42   H30   S    
N6    Ni4   S    
C53   H13   S    
N13   Ni1   S    
C16   N2    A    
C37   H36   S    
C52   N5    A    
C65   H17   S    
C62   H42   S    
C10   C17   A    
N14   Ni4   S    
C23   C40   A    
C33   C36   A    
C54   H44   S    
C18   C19   S    
C1    N1    A    
C56   N9    A    
C63   H46   S    
C9    C66   A    
C54   N6    A    
C34   C52   A    
C63   H48   S    
C44   C53   S    
C18   C58   S    
N11   Ni4   S    
C55   N7    A    
C19   H52   S    
C3    H45   S    
C64   N10   A    
C55   C63   S    
C22   H25   S    
C59   H28   S    
C4    C12   A    
C61   H39   S    
C45   N8    A    
C41   H5    S    
C28   C61   S    
C3    C6    A    
C7    C15   S    
C28   C34   A    
C26   C31   A    
C13   C14   A    
C5    H49   S    
C48   H9    S    
C59   H29   S    
C7    C56   A    
C4    N16   A    
C58   H20   S    
C44   C46   A    
C2    N13   A    
C66   H23   S    
C20   C29   A    
C38   C39   A    
N12   Ni2   S    
C3    N14   A    
C61   H38   S    
C51   H10   S    
C5    C7    A    
C28   N3    A    
N16   Ni2   S    
C62   H41   S    
N7    Ni3   S    
C25   C26   A    
C12   C21   S    
N1    Ni1   S    
N5    Ni1   S    
C51   C53   S    
N3    Ni4   S    
C35   C39   A    
N10   Ni3   S    
C51   H11   S    
C37   C38   A    
C1    C57   A    
C29   H2    S    
C47   C48   A    
N8    N14   A    
C10   C19   S    
C32   C41   A    
C53   H14   S    
C17   C18   S    
C50   C51   S    
N9    Ni2   S    
N4    Ni2   S    
C8    C64   A    
N1    N7    A    
C48   C49   A    
N8    Ni1   S    
C31   H26   S    
C16   C23   A    
C22   C27   A    
C55   C57   A    
C46   C57   S    
C22   C24   A    
C4    H51   S    
C42   C43   A    
C60   H35   S    
N10   N13   A    
C30   H3    S    
N2    N4    A    
C40   H40   S    
N11   N12   A    
C44   C50   A    
C15   C17   A    
C21   C25   A    
C46   C47   A    
C61   H37   S    
C64   H12   S    
C11   C34   S    
C45   H15   S    
N9    N15   A    
C47   H8    S    
C36   C60   S    
C65   N11   A    
C56   H1    S    
C40   N4    A    
C60   H32   S    
C6    C33   S    
N6    N16   A    
C23   C32   S    
C1    H16   S    
C38   C43   A    
C19   H24   S    
C52   C62   S    
C11   C13   A    
C30   C31   A    
C62   H43   S    
C33   C37   A    
C9    C65   A    
N3    N5    A    
C13   H50   S    
C18   H22   S    
C10   C11   A    
C2    H34   S    
C63   H47   S    
C49   C50   A    
C21   C24   A    
C2    C8    A    
C32   C42   A    
C14   C15   A    
C25   C59   S    
N2    Ni3   S    
C59   H27   S    
C35   H31   S    
C12   C54   A    
C66   N12   A    
