data_mof_unit_38253.cif
_audit_creation_date              2012-12-10T17:35:33-0500
_audit_creation_method            fapswitch 2.2
_symmetry_space_group_name_H-M    P1
_symmetry_Int_Tables_number       1
_space_group_crystal_system       triclinic
_cell_length_a                    10.759249
_cell_length_b                    12.371841
_cell_length_c                    13.173815
_cell_angle_alpha                 116.694843
_cell_angle_beta                  76.722913
_cell_angle_gamma                 101.029381
_cell_volume                      1516.94747176

loop_
_atom_site_label
_atom_site_type_symbol
_atom_type_description
_atom_site_fract_x
_atom_site_fract_y
_atom_site_fract_z
_atom_type_partial_charge
C1    C     C_R   0.510384 0.855189 0.286574 0.782702
C2    C     C_3   0.119422 0.005103 0.508580 -0.054072
C3    C     C_3   0.058320 0.114921 0.619703 0.926244
C4    C     C_3   0.043287 0.884057 0.507409 -0.412987
C5    C     C_R   0.355391 0.276927 0.033492 -0.252845
C6    C     C_R   0.462764 0.228036 0.837366 -0.055247
C7    C     C_R   0.585093 0.815885 0.082217 -0.198736
C8    C     C_R   0.607420 0.737228 0.966280 -0.150753
C9    C     C_R   0.565748 0.614070 0.929793 -0.188617
C10   C     C_R   0.495366 0.567293 0.009080 0.089840
C11   C     C_R   0.459129 0.650742 0.125008 0.083387
C12   C     C_R   0.739623 0.997735 0.497332 0.822622
C13   C     C_R   0.460213 0.440684 0.977799 0.074297
C14   C     C_R   0.383824 0.401135 0.060365 0.143289
C15   C     C_R   0.334745 0.485947 0.168576 -0.229930
C16   C     C_R   0.368628 0.609006 0.199233 -0.200978
C17   C     C_R   0.500078 0.351903 0.867488 -0.315155
C18   C     C_R   0.395559 0.189705 0.922810 0.144950
C19   C     C_R   0.514133 0.773614 0.163149 -0.100057
C20   C     C_R   0.713351 0.351536 0.336390 -0.306311
C21   C     C_R   0.331697 0.766784 0.652610 0.096081
C22   C     C_R   0.308454 0.683400 0.699642 -0.258438
C23   C     C_R   0.483888 0.144906 0.713984 0.778396
C24   C     C_R   0.378449 0.583283 0.649332 -0.212757
C25   C     C_R   0.467242 0.559882 0.546143 -0.002775
C26   C     C_R   0.495776 0.654510 0.507892 0.286694
C27   C     C_R   0.534713 0.451783 0.483653 -0.082203
C28   C     C_R   0.640526 0.451055 0.396028 0.154764
C29   C     C_R   0.672253 0.548640 0.366232 -0.272459
C30   C     C_R   0.599644 0.646527 0.418881 -0.189249
C31   C     C_R   0.500495 0.341219 0.498290 0.297120
C32   C     C_R   0.679888 0.250414 0.360219 0.019256
C33   C     C_R   0.259296 0.002958 0.504339 0.806787
C34   C     C_3   0.960123 0.995659 0.385952 0.334899
C35   C     C_3   0.103581 0.011965 0.396845 -0.504037
C36   C     C_3   0.921399 0.120555 0.600542 -0.146978
C37   C     C_3   0.899552 0.887715 0.516664 -0.348168
C38   C     C_3   0.876566 0.999447 0.500714 -0.050985
Cu1   Cu    Cu3+1 0.529690 0.098270 0.475420 0.944579
Cu2   Cu    Cu3+1 0.470310 0.901730 0.524580 0.923041
H1    H     H_    0.941358 0.074803 0.373914 0.067986
H2    H     H_    0.058425 0.867422 0.579767 0.199906
H3    H     H_    0.269847 0.457083 0.230045 0.142034
H4    H     H_    0.299997 0.247272 0.098020 0.132306
H5    H     H_    0.559574 0.376786 0.802130 0.157865
H6    H     H_    0.626281 0.909610 0.108788 0.149226
H7    H     H_    0.589036 0.558786 0.838776 0.125079
H8    H     H_    0.661498 0.771180 0.904539 0.143265
H9    H     H_    0.321266 0.670461 0.281470 0.173203
H10   H     H_    0.736660 0.173932 0.315200 0.120296
H11   H     H_    0.752771 0.548190 0.299193 0.160319
H12   H     H_    0.795600 0.351756 0.271065 0.142008
H13   H     H_    0.279826 0.846214 0.693848 0.126075
H14   H     H_    0.365436 0.531025 0.697789 0.138071
H15   H     H_    0.239281 0.698559 0.777575 0.139788
H16   H     H_    0.630522 0.715920 0.389026 0.214766
H17   H     H_    0.155686 0.941209 0.319646 0.200016
H18   H     H_    0.147773 0.101636 0.398449 0.169443
H19   H     H_    0.928429 0.194121 0.572001 0.129382
H20   H     H_    0.848700 0.891326 0.601515 0.182386
H21   H     H_    0.861048 0.801454 0.449960 0.208659
H22   H     H_    0.077460 0.805943 0.426124 0.195556
N1    N     N_R   0.574690 0.246280 0.438200 -0.169595
N2    N     N_R   0.426100 0.754320 0.561190 -0.211899
O1    O     O_R   0.537340 0.972510 0.318130 -0.582621
O2    O     O_R   0.487200 0.806530 0.359650 -0.602514
O3    O     O_R   0.707380 0.082980 0.479220 -0.606162
O4    O     O_R   0.657240 0.917000 0.520740 -0.601216
O5    O     O_R   0.512800 0.193470 0.640350 -0.587692
O6    O     O_R   0.462660 0.027490 0.681870 -0.553559
O7    O     O_R   0.342760 0.083000 0.479260 -0.523499
O8    O     O_R   0.292620 0.917020 0.520780 -0.617204
N3    N     N_3   0.829336 0.153991 0.709112 -0.562269
H23   H     H_    0.754262 0.192870 0.703950 0.210447
H24   H     H_    0.789891 0.077465 0.724030 0.246783
O9    O     O_3   0.041625 0.092661 0.720000 -0.603109
C39   C     C_3   0.155436 0.110161 0.763829 -0.320917
H25   H     H_    0.132445 0.151734 0.859190 0.179708
H26   H     H_    0.233634 0.170906 0.739577 0.188601
H27   H     H_    0.189627 0.020939 0.736396 0.172786
N4    N     N_3   0.365321 0.063221 0.897635 -0.586602
H28   H     H_    0.265988 0.046324 0.918528 0.190506
H29   H     H_    0.408263 0.045310 0.951331 0.223726
O10   O     O_3   0.930701 0.882387 0.293471 -0.565738
C40   C     C_3   0.931994 0.898132 0.193624 -0.349911
H30   H     H_    0.025789 0.943613 0.168775 0.155436
H31   H     H_    0.851999 0.950459 0.206303 0.157289
H32   H     H_    0.917434 0.807345 0.121551 0.196528
N5    N     N_3   0.382139 0.319137 0.564222 -0.500411
H33   H     H_    0.307544 0.351172 0.550149 0.233748
H34   H     H_    0.391416 0.352576 0.650544 0.215423
O11   O     O_3   0.135886 0.226176 0.632033 -0.634863
C41   C     C_3   0.086954 0.329502 0.728472 -0.343293
H35   H     H_    0.033874 0.310559 0.802656 0.223391
H36   H     H_    0.024403 0.371040 0.702447 0.169327
H37   H     H_    0.168553 0.398333 0.759466 0.166532

loop_
_geom_bond_atom_site_label_1
_geom_bond_atom_site_label_2
_ccdc_geom_bond_type
C2    C35   S    
C24   C25   A    
C41   H35   S    
Cu1   O1    S    
N3    H23   S    
C23   O5    A    
C36   H19   S    
N4    H28   S    
C7    C8    A    
C39   H25   S    
C12   O4    A    
C11   C19   A    
C37   C38   S    
Cu2   O6    S    
C35   H18   S    
C28   C29   A    
C17   H5    S    
C20   C32   A    
C39   H27   S    
C24   H14   S    
C15   C16   A    
C4    H22   S    
C18   N4    S    
C34   C35   S    
C26   N2    A    
C21   N2    A    
C33   O8    A    
C8    C9    A    
C31   N5    S    
C1    O1    A    
N5    H34   S    
C9    C10   A    
C40   H31   S    
C41   H36   S    
Cu2   O2    S    
C13   C14   A    
N3    H24   S    
C23   O6    A    
C34   H1    S    
C34   O10   S    
N4    H29   S    
C39   H26   S    
C6    C18   A    
C12   O3    A    
C1    C19   S    
C27   C31   A    
C7    H6    S    
C31   N1    A    
O10   C40   S    
C10   C11   A    
Cu1   Cu2   S    
C5    C18   A    
C20   C28   A    
C25   C26   A    
C40   H30   S    
C30   H16   S    
C3    O11   S    
C2    C4    S    
C8    H8    S    
C29   C30   A    
C11   C16   A    
C1    O2    A    
Cu1   O5    S    
O9    C39   S    
C3    O9    S    
C32   H10   S    
C5    C14   A    
C2    C33   S    
C5    H4    S    
C26   C30   A    
C41   H37   S    
C7    C19   A    
C22   C24   A    
C16   H9    S    
C29   H11   S    
C40   H32   S    
C6    C17   A    
Cu2   O8    S    
C34   C38   S    
Cu1   O3    S    
C32   N1    A    
C10   C13   A    
C37   H21   S    
C9    H7    S    
C22   H15   S    
C25   C27   A    
Cu1   N1    S    
Cu2   N2    S    
C13   C17   A    
C35   H17   S    
C36   C38   S    
C2    C3    S    
C15   H3    S    
C20   H12   S    
C21   H13   S    
C4    H2    S    
C3    C36   S    
C6    C23   S    
O11   C41   S    
C12   C38   S    
C37   H20   S    
C36   N3    S    
C33   O7    A    
C4    C37   S    
Cu2   O4    S    
C27   C28   A    
Cu1   O7    S    
C14   C15   A    
N5    H33   S    
C21   C22   A    
