data_mof_unit_14780.cif
_audit_creation_date              2012-10-26T19:04:45-0400
_audit_creation_method            fapswitch 2.2
_symmetry_space_group_name_H-M    P1
_symmetry_Int_Tables_number       1
_space_group_crystal_system       triclinic
_cell_length_a                    9.624105
_cell_length_b                    10.811098
_cell_length_c                    13.467296
_cell_angle_alpha                 95.434305
_cell_angle_beta                  71.447854
_cell_angle_gamma                 89.475448
_cell_volume                      1321.30087526

loop_
_atom_site_label
_atom_site_type_symbol
_atom_type_description
_atom_site_fract_x
_atom_site_fract_y
_atom_site_fract_z
_atom_type_partial_charge
C1    C     C_R   0.496267 0.737771 0.506927 0.534915
C2    C     C_R   0.366727 0.492806 0.817553 -0.038578
C3    C     C_R   0.249489 0.891569 0.657614 -0.111073
C4    C     C_R   0.419702 0.496071 0.700660 0.525061
C5    C     C_R   0.131349 0.965320 0.725021 -0.126319
C6    C     C_R   0.131302 0.093864 0.724751 -0.121152
C7    C     C_R   0.249589 0.149549 0.657267 -0.103591
C8    C     C_R   0.369278 0.076649 0.586085 0.021957
C9    C     C_R   0.368789 0.945391 0.585969 0.025867
C10   C     C_R   0.491243 0.872691 0.517461 -0.001512
C11   C     C_R   0.615837 0.929459 0.458967 -0.158779
C12   C     C_R   0.427105 0.495870 0.983509 0.035950
C13   C     C_R   0.617535 0.056733 0.461009 -0.147766
C14   C     C_R   0.493212 0.130840 0.518699 -0.002580
C15   C     C_R   0.931230 0.308416 0.359713 0.016615
C16   C     C_R   0.497278 0.263545 0.507023 0.547404
C17   C     C_R   0.038605 0.214994 0.308284 -0.163701
C18   C     C_R   0.178158 0.223400 0.310795 -0.170815
C19   C     C_R   0.212969 0.322699 0.367683 -0.047922
C20   C     C_R   0.106908 0.411070 0.434441 0.147977
C21   C     C_R   0.957310 0.408611 0.432607 0.132662
C22   C     C_R   0.897865 0.585308 0.561439 0.001042
C23   C     C_R   0.465117 0.462733 0.872414 -0.026772
C24   C     C_R   0.045546 0.585759 0.560710 0.010503
C25   C     C_R   0.579369 0.504777 0.300108 0.564426
C26   C     C_R   0.791298 0.414874 0.015342 -0.121925
C27   C     C_R   0.626298 0.498005 0.184475 -0.015068
C28   C     C_R   0.219194 0.527048 0.877079 -0.068812
C29   C     C_R   0.176713 0.542413 0.985871 -0.128982
C30   C     C_R   0.277937 0.535932 0.040108 0.253601
C31   C     C_1   0.812010 0.287616 0.318811 0.244650
C32   C     C_1   0.104768 0.546116 0.831336 0.198052
C33   C     C_3   0.176050 0.676836 0.183739 -0.039081
C34   C     C_R   0.539971 0.483507 0.031344 0.040093
C35   C     C_3   0.124179 0.695123 0.303390 -0.364761
C36   C     C_R   0.679073 0.427099 0.970627 0.050299
C37   C     C_R   0.704527 0.380344 0.866524 -0.118266
C38   C     C_R   0.598628 0.395519 0.818983 -0.109472
C39   C     C_R   0.521295 0.524653 0.137179 -0.114120
C40   C     C_R   0.765197 0.450504 0.121835 -0.125440
Cu1   Cu    Cu3+1 0.359340 0.500010 0.500010 0.921759
Cu2   Cu    Cu3+1 0.640660 0.499990 0.499990 0.939299
H1    H     H_    0.851183 0.435283 0.155610 0.146565
H2    H     H_    0.326851 0.324230 0.355077 0.202403
H3    H     H_    0.807229 0.331183 0.821318 0.116475
H4    H     H_    0.077507 0.657014 0.610012 0.129499
H5    H     H_    0.897784 0.373363 0.968651 0.115276
H6    H     H_    0.426961 0.577971 0.186696 0.182442
H7    H     H_    0.061920 0.562621 0.030123 0.121735
H8    H     H_    0.621686 0.349606 0.740342 0.153531
H9    H     H_    0.712096 0.874727 0.409328 0.129753
H10   H     H_    0.082629 0.704819 0.157827 0.130466
H11   H     H_    0.268046 0.739696 0.154045 0.122500
H12   H     H_    0.247840 0.793031 0.665177 0.134754
H13   H     H_    0.213280 0.667726 0.333752 0.184106
H14   H     H_    0.091396 0.794387 0.331049 0.094628
H15   H     H_    0.027915 0.637927 0.334720 0.170724
H16   H     H_    0.040828 0.922644 0.779297 0.119061
H17   H     H_    0.040707 0.150982 0.778805 0.109459
H18   H     H_    0.247405 0.249883 0.664548 0.151802
H19   H     H_    0.716359 0.096105 0.414525 0.141386
H20   H     H_    0.819804 0.655441 0.612077 0.128347
H21   H     H_    0.018104 0.136985 0.258193 0.115676
H22   H     H_    0.262127 0.154707 0.264384 0.125104
N1    N     N_R   0.852480 0.498790 0.499000 -0.255828
N2    N     N_R   0.148360 0.498710 0.498970 -0.254333
N3    N     N_1   0.721574 0.260435 0.281855 -0.334086
N4    N     N_1   0.011386 0.561306 0.796364 -0.334489
O1    O     O_R   0.381190 0.680360 0.500010 -0.516649
O2    O     O_R   0.618760 0.680340 0.500000 -0.507947
O3    O     O_R   0.323240 0.499990 0.650990 -0.491945
O4    O     O_R   0.560820 0.499960 0.650980 -0.503750
O5    O     O_R   0.381240 0.319660 0.500000 -0.529658
O6    O     O_R   0.618810 0.319640 0.499990 -0.498746
O7    O     O_R   0.439180 0.500040 0.349020 -0.523761
O8    O     O_R   0.676760 0.500010 0.349010 -0.486255
O9    O     O_3   0.222461 0.550711 0.148988 -0.573890

loop_
_geom_bond_atom_site_label_1
_geom_bond_atom_site_label_2
_ccdc_geom_bond_type
Cu1   Cu2   S    
C19   C20   A    
C18   H22   S    
C7    C8    A    
C29   H7    S    
C33   H10   S    
C31   N3    T    
C12   C23   A    
C37   C38   A    
C5    H16   S    
C16   O6    A    
C22   C24   A    
C20   N2    A    
C36   C37   A    
C5    C6    A    
C3    H12   S    
C22   H20   S    
Cu2   O2    S    
C18   C19   A    
C33   O9    S    
C30   O9    S    
C40   H1    S    
C27   C39   A    
C8    C9    A    
Cu2   N1    S    
C9    C10   A    
C24   N2    A    
C32   N4    T    
C21   N1    A    
C13   C14   A    
C33   H11   S    
Cu2   O6    S    
C35   H13   S    
C16   O5    A    
C28   C32   S    
C1    O1    A    
C34   C39   A    
C25   O7    A    
C2    C4    S    
C22   N1    A    
C29   C30   A    
C3    C9    A    
Cu1   O7    S    
C27   C40   A    
Cu2   O4    S    
C17   C18   A    
Cu1   N2    S    
C26   H5    S    
C26   C36   A    
C14   C16   S    
C12   C34   A    
C7    H18   S    
C4    O4    A    
C19   H2    S    
Cu1   O1    S    
C15   C17   A    
C28   C29   A    
C8    C14   A    
C12   C30   A    
C35   H14   S    
C6    H17   S    
C1    C10   S    
C3    C5    A    
C15   C31   S    
C6    C7    A    
C38   H8    S    
C25   C27   S    
C23   C38   A    
Cu2   O8    S    
C1    O2    A    
Cu1   O3    S    
C35   H15   S    
C25   O8    A    
C24   H4    S    
C17   H21   S    
C11   C13   A    
C26   C40   A    
C33   C35   S    
C34   C36   A    
C11   H9    S    
C10   C11   A    
Cu1   O5    S    
C15   C21   A    
C13   H19   S    
C20   C21   A    
C2    C23   A    
C2    C28   A    
C37   H3    S    
C4    O3    A    
C39   H6    S    
