data_mof_unit_64534.cif
_audit_creation_date              2012-12-10T20:56:49-0500
_audit_creation_method            fapswitch 2.2
_symmetry_space_group_name_H-M    P1
_symmetry_Int_Tables_number       1
_space_group_crystal_system       triclinic
_cell_length_a                    26.349532
_cell_length_b                    33.029392
_cell_length_c                    21.138046
_cell_angle_alpha                 89.998286
_cell_angle_beta                  128.614524
_cell_angle_gamma                 90.003063
_cell_volume                      14374.434755

loop_
_atom_site_label
_atom_site_type_symbol
_atom_type_description
_atom_site_fract_x
_atom_site_fract_y
_atom_site_fract_z
_atom_type_partial_charge
C1    C     C_R   0.500000 0.145568 0.500001 0.497241
C2    C     C_R   0.633217 0.619267 0.474037 0.235218
C3    C     C_R   0.640697 0.749501 0.499110 0.514574
C4    C     C_R   0.140689 0.750512 0.499095 0.514751
C5    C     C_R   0.859308 0.249492 0.500900 0.514671
C6    C     C_R   0.859303 0.750499 0.500890 0.514585
C7    C     C_R   0.140696 0.249500 0.499109 0.514600
C8    C     C_R   0.395549 0.250034 0.291103 0.501683
C9    C     C_R   0.604451 0.749966 0.708897 0.501642
C10   C     C_R   0.604451 0.250034 0.708898 0.501781
C11   C     C_R   0.395549 0.749966 0.291102 0.501805
C12   C     C_R   0.895549 0.750034 0.291103 0.501631
C13   C     C_R   0.634173 0.380897 0.475492 0.235317
C14   C     C_R   0.104451 0.249966 0.708897 0.501681
C15   C     C_R   0.104451 0.750034 0.708898 0.501806
C16   C     C_R   0.895548 0.249966 0.291102 0.501784
C17   C     C_1   0.649536 0.250045 0.799030 0.003409
C18   C     C_1   0.350464 0.749954 0.200970 0.003433
C19   C     C_1   0.350464 0.250045 0.200970 0.003342
C20   C     C_1   0.649536 0.749955 0.799029 0.003307
C21   C     C_1   0.149536 0.750046 0.799030 0.003439
C22   C     C_1   0.850464 0.249955 0.200970 0.003411
C23   C     C_1   0.850464 0.750045 0.200970 0.003302
C24   C     C_R   0.365411 0.619034 0.523851 0.235370
C25   C     C_1   0.149536 0.249955 0.799029 0.003340
C26   C     C_1   0.686993 0.250036 0.873947 -0.020018
C27   C     C_1   0.313007 0.749964 0.126053 -0.019994
C28   C     C_1   0.313008 0.250036 0.126053 -0.020078
C29   C     C_1   0.686992 0.749964 0.873946 -0.020103
C30   C     C_1   0.186993 0.750036 0.873947 -0.019988
C31   C     C_1   0.813007 0.249964 0.126053 -0.020016
C32   C     C_1   0.813008 0.750036 0.126053 -0.020105
C33   C     C_1   0.186992 0.249964 0.873946 -0.020080
C34   C     C_1   0.731278 0.250012 0.962542 0.015546
C35   C     C_R   0.866762 0.880736 0.525929 0.235226
C36   C     C_1   0.268722 0.749988 0.037457 0.015568
C37   C     C_1   0.268722 0.250012 0.037457 0.015495
C38   C     C_1   0.731278 0.749988 0.962542 0.015478
C39   C     C_1   0.231278 0.750012 0.962542 0.015570
C40   C     C_1   0.768722 0.249988 0.037457 0.015547
C41   C     C_1   0.768722 0.750012 0.037457 0.015478
C42   C     C_1   0.231278 0.249988 0.962542 0.015495
C43   C     C_1   0.500002 0.399525 0.500002 0.026873
C44   C     C_1   0.500000 0.600475 0.499994 0.026978
C45   C     C_1   0.000000 0.899525 0.500004 0.026954
C46   C     C_R   0.133372 0.119242 0.474291 0.235248
C47   C     C_1   0.999998 0.100475 0.499998 0.026872
C48   C     C_1   0.500002 0.436980 0.500001 -0.049582
C49   C     C_1   0.500003 0.563020 0.499994 -0.049513
C50   C     C_1   0.999997 0.936980 0.500005 -0.049502
C51   C     C_1   0.999998 0.063020 0.499999 -0.049583
C52   C     C_R   0.134710 0.880989 0.476322 0.235381
C53   C     C_R   0.865818 0.119101 0.524494 0.235317
C54   C     C_R   0.347740 0.343195 0.535354 -0.025776
C55   C     C_R   0.652112 0.656849 0.464455 -0.025726
C56   C     C_R   0.652818 0.343339 0.465447 -0.025768
C57   C     C_R   0.500000 0.854432 0.499999 0.497246
C58   C     C_R   0.346875 0.656581 0.534097 -0.025763
C59   C     C_R   0.847870 0.843157 0.535528 -0.025740
C60   C     C_R   0.152233 0.156814 0.464618 -0.025759
C61   C     C_R   0.153224 0.843455 0.465994 -0.025841
C62   C     C_R   0.847175 0.156658 0.534545 -0.025773
C63   C     C_R   0.287009 0.326514 0.472838 -0.052269
C64   C     C_R   0.712900 0.673465 0.526976 -0.052275
C65   C     C_R   0.713384 0.326452 0.527887 -0.052204
C66   C     C_R   0.286402 0.673585 0.471701 -0.052163
C67   C     C_R   0.787092 0.826532 0.473006 -0.052278
C68   C     C_R   1.000000 0.645568 0.500001 0.497247
C69   C     C_R   0.212977 0.173481 0.527132 -0.052267
C70   C     C_R   0.213645 0.826399 0.528399 -0.052174
C71   C     C_R   0.786612 0.173549 0.472105 -0.052204
C72   C     C_R   0.244576 0.348080 0.400343 -0.038579
C73   C     C_R   0.755350 0.651816 0.599360 -0.038647
C74   C     C_R   0.755861 0.347789 0.600675 -0.038510
C75   C     C_R   0.243909 0.652380 0.398747 -0.038465
C76   C     C_R   0.744648 0.848166 0.400602 -0.038626
C77   C     C_R   0.255416 0.151898 0.599602 -0.038599
C78   C     C_R   0.256106 0.847533 0.601452 -0.038381
C79   C     C_R   0.000000 0.354432 0.499999 0.497242
C80   C     C_R   0.744137 0.152217 0.399310 -0.038504
C81   C     C_R   0.262723 0.385620 0.389347 0.239923
C82   C     C_R   0.737165 0.614260 0.610242 0.239922
C83   C     C_R   0.737915 0.385309 0.612028 0.239936
C84   C     C_R   0.261750 0.614875 0.387191 0.239930
C85   C     C_R   0.762830 0.885719 0.389703 0.239922
C86   C     C_R   0.237262 0.114354 0.610575 0.239917
C87   C     C_R   0.238281 0.885021 0.613095 0.239946
C88   C     C_R   0.762082 0.114699 0.387950 0.239937
C89   C     C_R   0.324003 0.401926 0.452227 -0.091095
C90   C     C_1   0.500003 0.481271 0.499998 -0.011662
C91   C     C_R   0.675827 0.598021 0.547358 -0.091134
C92   C     C_R   0.676801 0.401830 0.549210 -0.091068
C93   C     C_R   0.322770 0.598233 0.449971 -0.091037
C94   C     C_R   0.824159 0.901968 0.452588 -0.091125
C95   C     C_R   0.175969 0.098062 0.547697 -0.091098
C96   C     C_R   0.177316 0.901719 0.550300 -0.091014
C97   C     C_R   0.823192 0.098173 0.450769 -0.091065
C98   C     C_R   0.213123 0.284953 0.481053 -0.138572
C99   C     C_R   0.786843 0.715037 0.518877 -0.138554
C100  C     C_R   0.787050 0.284907 0.519276 -0.138627
C101  C     C_1   0.500004 0.518729 0.499996 -0.011663
C102  C     C_R   0.212853 0.715119 0.480531 -0.138665
C103  C     C_R   0.713156 0.784962 0.481121 -0.138554
C104  C     C_R   0.286874 0.215046 0.518941 -0.138570
C105  C     C_R   0.287155 0.784876 0.519486 -0.138672
C106  C     C_R   0.712950 0.215093 0.480722 -0.138629
C107  C     C_R   0.195733 0.248840 0.497896 0.021017
C108  C     C_R   0.804267 0.751159 0.502105 0.021028
C109  C     C_R   0.804261 0.248832 0.502094 0.020957
C110  C     C_R   0.195744 0.751169 0.497916 0.020928
C111  C     C_R   0.695732 0.748840 0.497893 0.021025
C112  C     C_1   0.999997 0.981271 0.500003 -0.011662
C113  C     C_R   0.304265 0.251159 0.502100 0.021019
C114  C     C_R   0.304262 0.748827 0.502095 0.020914
C115  C     C_R   0.695738 0.251168 0.497905 0.020956
C116  C     C_R   0.232459 0.213289 0.516026 -0.027802
C117  C     C_R   0.767573 0.786718 0.484039 -0.027781
C118  C     C_R   0.767352 0.213329 0.483619 -0.027918
C119  C     C_R   0.232763 0.786642 0.516606 -0.028016
C120  C     C_R   0.732424 0.713280 0.515956 -0.027772
C121  C     C_R   0.267536 0.286709 0.483965 -0.027815
C122  C     C_R   0.267253 0.713350 0.483424 -0.027964
C123  C     C_1   0.999997 0.018729 0.500001 -0.011657
C124  C     C_R   0.732646 0.286672 0.516379 -0.027914
C125  C     C_R   0.500001 0.354469 0.500001 0.540967
C126  C     C_R   0.499999 0.645531 0.499998 0.540948
C127  C     C_R   0.000001 0.854469 0.500001 0.540871
C128  C     C_R   0.999999 0.145531 0.499999 0.540977
C129  C     C_1   0.500000 0.100496 0.500002 -0.001357
C130  C     C_1   0.500000 0.899504 0.499998 -0.001360
C131  C     C_1   0.999999 0.600496 0.500002 -0.001355
C132  C     C_1   0.000000 0.399504 0.499998 -0.001355
C133  C     C_1   0.500000 0.063033 0.500002 -0.023428
C134  C     C_R   0.366594 0.380764 0.525658 0.235250
C135  C     C_1   0.500000 0.936967 0.499998 -0.023432
C136  C     C_1   0.999999 0.563033 0.500002 -0.023426
C137  C     C_1   0.000000 0.436967 0.499998 -0.023426
C138  C     C_1   0.500000 0.018731 0.500001 0.013255
C139  C     C_1   0.500000 0.981269 0.499999 0.013253
C140  C     C_1   1.000000 0.518731 0.500000 0.013259
C141  C     C_1   1.000000 0.481269 0.499999 0.013259
C142  C     C_R   0.640692 0.250508 0.499100 0.514670
C143  C     C_R   0.359311 0.749488 0.500906 0.514710
C144  C     C_R   0.359303 0.250500 0.500891 0.514608
H1    H     H_    0.338395 0.430961 0.444156 0.085328
H2    H     H_    0.619352 0.673136 0.407951 0.136644
H3    H     H_    0.620042 0.327286 0.408650 0.136669
H4    H     H_    0.379662 0.672534 0.591017 0.136677
H5    H     H_    0.880626 0.826881 0.592046 0.136651
H6    H     H_    0.119480 0.173051 0.408050 0.136661
H7    H     H_    0.120462 0.827552 0.409007 0.136709
H8    H     H_    0.879949 0.172708 0.591347 0.136671
H9    H     H_    0.197503 0.335500 0.351922 0.151986
H10   H     H_    0.802467 0.664344 0.647781 0.151989
H11   H     H_    0.802806 0.335044 0.649038 0.151966
H12   H     H_    0.661406 0.568974 0.555341 0.085321
H13   H     H_    0.197035 0.665217 0.350413 0.151951
H14   H     H_    0.697539 0.835630 0.352179 0.151993
H15   H     H_    0.302499 0.164466 0.648022 0.151984
H16   H     H_    0.302936 0.834651 0.649795 0.151955
H17   H     H_    0.697195 0.164966 0.350946 0.151965
H18   H     H_    0.185561 0.312347 0.468564 0.136900
H19   H     H_    0.814379 0.687638 0.531310 0.136853
H20   H     H_    0.814749 0.312271 0.532034 0.137081
H21   H     H_    0.185076 0.687773 0.467614 0.137176
H22   H     H_    0.685619 0.812361 0.468687 0.136860
H23   H     H_    0.662568 0.430853 0.557554 0.085308
H24   H     H_    0.314435 0.187651 0.531427 0.136890
H25   H     H_    0.314934 0.812223 0.532412 0.137212
H26   H     H_    0.685250 0.187729 0.467963 0.137084
H27   H     H_    0.432143 0.422926 0.573228 0.325476
H28   H     H_    0.567585 0.577155 0.426377 0.325450
H29   H     H_    0.568944 0.423245 0.428235 0.325411
H30   H     H_    0.430469 0.576585 0.570929 0.325416
H31   H     H_    0.932384 0.922855 0.573575 0.325449
H32   H     H_    0.067805 0.077090 0.426705 0.325485
H33   H     H_    0.069719 0.923477 0.429299 0.325414
H34   H     H_    0.336921 0.569220 0.441472 0.085314
H35   H     H_    0.931041 0.076751 0.571747 0.325412
H36   H     H_    0.239566 0.431453 0.318484 0.328783
H37   H     H_    0.760314 0.568339 0.680917 0.328788
H38   H     H_    0.761245 0.430927 0.683405 0.328923
H39   H     H_    0.238331 0.569381 0.315521 0.328949
H40   H     H_    0.739686 0.931623 0.318997 0.328790
H41   H     H_    0.260421 0.068501 0.681397 0.328778
H42   H     H_    0.261674 0.930434 0.684923 0.328963
H43   H     H_    0.738752 0.069086 0.316562 0.328924
H44   H     H_    0.838578 0.931012 0.444591 0.085321
H45   H     H_    0.161572 0.069024 0.555750 0.085339
H46   H     H_    0.163179 0.930720 0.558865 0.085309
H47   H     H_    0.837424 0.069151 0.442420 0.085310
H48   H     H_    0.380489 0.326970 0.591939 0.136667
O1    O     O_3   0.500000 0.250010 0.500000 -0.410400
O2    O     O_R   0.008350 0.334000 0.455930 -0.526204
O3    O     O_R   0.008350 0.666000 0.455930 -0.526192
O4    O     O_R   0.991650 0.334000 0.544070 -0.526189
O5    O     O_R   0.552380 0.334020 0.544040 -0.521454
O6    O     O_R   0.447620 0.665980 0.455960 -0.521444
O7    O     O_R   0.447620 0.334020 0.455960 -0.521542
O8    O     O_R   0.552380 0.665980 0.544040 -0.521575
O9    O     O_R   0.052380 0.834020 0.544040 -0.521461
O10   O     O_R   0.947620 0.165980 0.455960 -0.521452
O11   O     O_R   0.947620 0.834020 0.455960 -0.521586
O12   O     O_3   0.500000 0.749990 0.500000 -0.410395
O13   O     O_R   0.052380 0.165980 0.544040 -0.521540
O14   O     O_R   0.593780 0.227990 0.455960 -0.540109
O15   O     O_R   0.406220 0.772010 0.544040 -0.540129
O16   O     O_R   0.406220 0.227990 0.544040 -0.540085
O17   O     O_R   0.593780 0.772010 0.455960 -0.540078
O18   O     O_R   0.093780 0.727990 0.455960 -0.540120
O19   O     O_R   0.906220 0.272010 0.544040 -0.540108
O20   O     O_R   0.906220 0.727990 0.544040 -0.540076
O21   O     O_R   0.093780 0.272010 0.455960 -0.540086
O22   O     O_R   0.362170 0.272040 0.455960 -0.527620
O23   O     O_3   0.000000 0.750010 0.500000 -0.410392
O24   O     O_R   0.637830 0.727960 0.544040 -0.527598
O25   O     O_R   0.637830 0.272040 0.544040 -0.527689
O26   O     O_R   0.362170 0.727960 0.455960 -0.527719
O27   O     O_R   0.862170 0.772040 0.455960 -0.527594
O28   O     O_R   0.137830 0.227960 0.544040 -0.527617
O29   O     O_R   0.137830 0.772040 0.544040 -0.527727
O30   O     O_R   0.862170 0.227960 0.455960 -0.527691
O31   O     O_R   0.446360 0.228000 0.332000 -0.525506
O32   O     O_R   0.553640 0.772000 0.668000 -0.525513
O33   O     O_R   0.553640 0.228000 0.668000 -0.525496
O34   O     O_3   0.000000 0.249990 0.500000 -0.410401
O35   O     O_R   0.446360 0.772000 0.332000 -0.525490
O36   O     O_R   0.946360 0.728000 0.332000 -0.525510
O37   O     O_R   0.053640 0.272000 0.668000 -0.525505
O38   O     O_R   0.053640 0.728000 0.668000 -0.525493
O39   O     O_R   0.946360 0.272000 0.332000 -0.525496
O40   O     O_R   0.385640 0.272040 0.331990 -0.522130
O41   O     O_R   0.614360 0.727960 0.668010 -0.522159
O42   O     O_R   0.614360 0.272040 0.668010 -0.522066
O43   O     O_R   0.385640 0.727960 0.331990 -0.522046
O44   O     O_R   0.885640 0.772040 0.331990 -0.522165
O45   O     O_R   0.491650 0.166000 0.544070 -0.526203
O46   O     O_R   0.114360 0.227960 0.668010 -0.522135
O47   O     O_R   0.114360 0.772040 0.668010 -0.522034
O48   O     O_R   0.885640 0.227960 0.331990 -0.522063
O49   O     O_3   0.426607 0.395980 0.588892 -0.696605
O50   O     O_3   0.573145 0.604120 0.410802 -0.696656
O51   O     O_3   0.574325 0.396329 0.412312 -0.696606
O52   O     O_3   0.425164 0.603479 0.587000 -0.696571
O53   O     O_3   0.926824 0.895894 0.589165 -0.696650
O54   O     O_3   0.073345 0.104041 0.411059 -0.696606
O55   O     O_3   0.075010 0.896599 0.413160 -0.696535
O56   O     O_R   0.508350 0.834000 0.455930 -0.526191
O57   O     O_3   0.925661 0.103665 0.587674 -0.696604
O58   O     O_3   0.219685 0.405556 0.316770 -0.676457
O59   O     O_3   0.780226 0.594238 0.682708 -0.676412
O60   O     O_3   0.780982 0.405016 0.684882 -0.676367
O61   O     O_3   0.218675 0.595301 0.314179 -0.676394
O62   O     O_3   0.719777 0.905725 0.317218 -0.676416
O63   O     O_3   0.280307 0.094400 0.683126 -0.676466
O64   O     O_3   0.281317 0.904522 0.686206 -0.676399
O65   O     O_3   0.719017 0.094997 0.315089 -0.676371
O66   O     O_R   0.508350 0.166000 0.455930 -0.526189
O67   O     O_R   0.491650 0.834000 0.544070 -0.526196
O68   O     O_R   0.991650 0.666000 0.544070 -0.526192
Zn1   Zn    Zn3+2 0.574840 0.281480 0.562930 0.979844
Zn2   Zn    Zn3+2 0.488090 0.781450 0.562930 0.962614
Zn3   Zn    Zn3+2 0.488090 0.218550 0.562930 0.962732
Zn4   Zn    Zn3+2 0.511910 0.781450 0.437070 0.962765
Zn5   Zn    Zn3+2 0.011910 0.718550 0.437070 0.962616
Zn6   Zn    Zn3+2 0.988090 0.281450 0.562930 0.962658
Zn7   Zn    Zn3+2 0.988090 0.718550 0.562930 0.962766
Zn8   Zn    Zn3+2 0.011910 0.281450 0.437070 0.962734
Zn9   Zn    Zn3+2 0.425160 0.718520 0.437070 0.979835
Zn10  Zn    Zn3+2 0.425160 0.281480 0.437070 0.979783
Zn11  Zn    Zn3+2 0.574840 0.718520 0.562930 0.979743
Zn12  Zn    Zn3+2 0.074840 0.781480 0.562930 0.979823
Zn13  Zn    Zn3+2 0.925160 0.218520 0.437070 0.979848
Zn14  Zn    Zn3+2 0.925160 0.781480 0.437070 0.979721
Zn15  Zn    Zn3+2 0.074840 0.218520 0.562930 0.979783
Zn16  Zn    Zn3+2 0.511910 0.218550 0.437070 0.962658

loop_
_geom_bond_atom_site_label_1
_geom_bond_atom_site_label_2
_ccdc_geom_bond_type
C61   C70   A    
C3    O17   A    
C98   C121  A    
C52   O55   S    
C11   C18   S    
O23   Zn14  S    
C83   O60   S    
O45   Zn3   S    
C51   C123  S    
C69   C77   A    
O4    Zn6   S    
C130  C135  T    
C9    O32   A    
C12   O44   A    
C81   O58   S    
C136  C140  S    
O67   Zn2   S    
C43   C125  S    
O12   Zn4   S    
C47   C128  S    
C90   C101  T    
H33   O55   S    
C31   C40   S    
O1    Zn16  S    
C89   H1    S    
C99   C108  A    
C12   C23   S    
C44   C126  S    
C85   O62   S    
O1    Zn3   S    
O16   Zn3   S    
C105  H25   S    
O47   Zn12  S    
C34   C40   T    
C33   C42   S    
C60   C69   A    
C103  C111  A    
C94   H44   S    
C1    C129  S    
C2    C55   A    
C11   O35   A    
C49   C101  S    
H35   O57   S    
C58   H4    S    
C75   C84   A    
C12   O36   A    
C70   C78   A    
C54   C63   A    
C79   C132  S    
C10   C17   S    
C56   C65   A    
C54   C134  A    
C15   O47   A    
C4    O18   A    
O48   Zn13  S    
O22   Zn10  S    
C35   C59   A    
C82   O59   S    
C53   C62   A    
C65   C124  S    
C96   H46   S    
C37   C42   T    
H38   O60   S    
C14   O37   A    
O5    Zn1   S    
C80   H17   S    
O10   Zn13  S    
C59   C67   A    
C99   C120  A    
C104  C116  A    
H36   O58   S    
C26   C34   S    
O42   Zn1   S    
C143  O15   A    
C46   C95   A    
O20   Zn7   S    
C3    C111  S    
O6    Zn9   S    
C44   C49   T    
C29   C38   S    
C62   C71   A    
C10   O33   A    
C64   C73   A    
C66   C122  S    
C24   O52   S    
C115  C124  A    
O34   Zn13  S    
H40   O62   S    
O23   Zn12  S    
C43   C48   T    
C74   C83   A    
O24   Zn11  S    
O44   Zn14  S    
C72   C81   A    
H30   O52   S    
C20   C29   T    
C13   C56   A    
C81   C89   A    
O12   Zn9   S    
C75   H13   S    
C142  O14   A    
C5    O30   A    
C115  C142  S    
C125  O5    A    
C100  C109  A    
C48   C90   S    
O39   Zn8   S    
H27   O49   S    
O28   Zn15  S    
O1    Zn10  S    
C106  H26   S    
C103  C117  A    
O8    Zn11  S    
O23   Zn5   S    
C57   O56   A    
C71   C80   A    
C98   H18   S    
C58   C66   A    
C109  C118  A    
O38   Zn7   S    
C59   H5    S    
O11   Zn14  S    
C11   O43   A    
C5    O19   A    
C10   O42   A    
C8    C19   S    
C35   O53   S    
C22   C31   T    
O31   Zn16  S    
O66   Zn16  S    
O26   Zn9   S    
H39   O61   S    
C57   C130  S    
O25   Zn1   S    
C140  C141  T    
C46   O54   S    
C38   C41   T    
C131  C136  T    
C86   C95   A    
C79   O2    A    
C14   O46   A    
O12   Zn2   S    
C55   H2    S    
O32   Zn2   S    
C1    O45   A    
C3    O24   A    
C9    O41   A    
C57   O67   A    
O19   Zn6   S    
O1    Zn1   S    
C79   O4    A    
C45   C127  S    
C111  C120  A    
C100  C124  A    
O9    Zn12  S    
C73   H10   S    
C68   C131  S    
C135  C139  S    
C142  O25   A    
H42   O64   S    
C83   C92   A    
C47   C51   T    
O35   Zn4   S    
C104  H24   S    
C67   C117  S    
C85   C94   A    
C105  C114  A    
C9    C20   S    
O21   Zn8   S    
C93   H34   S    
C97   H47   S    
C70   C119  S    
C32   C41   S    
C76   H14   S    
C87   C96   A    
C50   C112  S    
C63   C121  S    
O2    Zn8   S    
C100  H20   S    
C6    C108  S    
C60   H6    S    
C63   C72   A    
O68   Zn7   S    
C133  C138  S    
C19   C28   T    
C61   H7    S    
C16   O48   A    
C7    O21   A    
O29   Zn12  S    
C54   H48   S    
C88   O65   S    
C112  C123  T    
O7    Zn10  S    
C99   H19   S    
C7    O28   A    
C78   H16   S    
C87   O64   S    
C62   H8    S    
C77   H15   S    
C77   C86   A    
C129  C133  T    
O18   Zn5   S    
C137  C141  S    
C15   O38   A    
H37   O59   S    
C7    C107  S    
C102  C110  A    
O43   Zn9   S    
C128  O13   A    
C17   C26   T    
O46   Zn15  S    
C78   C87   A    
C73   C82   A    
O17   Zn4   S    
C68   O68   A    
C1    O66   A    
C35   C94   A    
C126  O8    A    
C30   C39   S    
C2    O50   S    
O15   Zn2   S    
C4    C110  S    
H43   O65   S    
C16   C22   S    
C72   H9    S    
C65   C74   A    
C71   C118  S    
C46   C60   A    
C108  C117  A    
C36   C39   T    
C128  O10   A    
C18   C27   T    
C88   C97   A    
C69   C116  S    
O23   Zn7   S    
C110  C119  A    
H41   O63   S    
C134  O49   S    
H32   O54   S    
O37   Zn6   S    
C80   C88   A    
C55   C64   A    
C27   C36   S    
C102  H21   S    
C113  C121  A    
C21   C30   T    
O13   Zn15  S    
C16   O39   A    
C64   C120  S    
C113  C144  S    
O14   Zn16  S    
C106  C115  A    
C52   C61   A    
C53   C97   A    
C23   C32   T    
C86   O63   S    
O30   Zn13  S    
O34   Zn8   S    
C132  C137  T    
C28   C37   S    
C91   H12   S    
C13   C92   A    
C24   C93   A    
C114  C143  S    
C143  O26   A    
C144  O22   A    
C8    O40   A    
C92   H23   S    
C126  O6    A    
C127  O9    A    
C13   O51   S    
C15   C21   S    
C5    C109  S    
C45   C50   T    
C56   H3    S    
C66   C75   A    
C76   C85   A    
C8    O31   A    
C74   H11   S    
C52   C96   A    
C68   O3    A    
O40   Zn10  S    
C84   C93   A    
O27   Zn14  S    
C14   C25   S    
O36   Zn5   S    
C2    C91   A    
O3    Zn5   S    
C107  C116  A    
C89   C134  A    
C138  C139  T    
C82   C91   A    
H28   O50   S    
C104  C113  A    
C114  C122  A    
O12   Zn11  S    
H31   O53   S    
C95   H45   S    
C6    O20   A    
C6    O27   A    
C125  O7    A    
C103  H22   S    
C24   C58   A    
O41   Zn11  S    
O34   Zn15  S    
C25   C33   T    
C84   O61   S    
O33   Zn3   S    
C105  C119  A    
H29   O51   S    
C67   C76   A    
O56   Zn4   S    
C102  C122  A    
C144  O16   A    
C127  O11   A    
O34   Zn6   S    
C106  C118  A    
C4    O29   A    
C53   O57   S    
C98   C107  A    
