data_mof_unit_37920.cif
_audit_creation_date              2012-12-10T18:11:06-0500
_audit_creation_method            fapswitch 2.2
_symmetry_space_group_name_H-M    P1
_symmetry_Int_Tables_number       1
_space_group_crystal_system       triclinic
_cell_length_a                    10.746169
_cell_length_b                    9.531304
_cell_length_c                    10.638762
_cell_angle_alpha                 89.474594
_cell_angle_beta                  90.144501
_cell_angle_gamma                 89.823286
_cell_volume                      1089.62069438

loop_
_atom_site_label
_atom_site_type_symbol
_atom_type_description
_atom_site_fract_x
_atom_site_fract_y
_atom_site_fract_z
_atom_type_partial_charge
C1    C     C_R   0.260022 0.500158 0.501096 0.756224
C2    C     C_3   0.499603 0.501897 0.122845 -0.001645
C3    C     C_3   0.071720 0.589323 0.612395 -0.375927
C4    C     C_3   0.071751 0.348996 0.517325 -0.398907
C5    C     C_3   0.927947 0.590460 0.611492 -0.387368
C6    C     C_3   0.929613 0.349335 0.518734 -0.362822
C7    C     C_3   0.071410 0.562913 0.376625 -0.392668
C8    C     C_3   0.121884 0.500503 0.501846 0.167416
C9    C     C_3   0.878084 0.500309 0.501661 0.153876
C10   C     C_3   0.927655 0.561505 0.375987 -0.367995
C11   C     C_3   0.629801 0.085087 0.491553 0.823504
C12   C     C_3   0.631538 0.916669 0.503297 0.693142
C13   C     C_3   0.447568 0.082885 0.622481 0.060126
C14   C     C_3   0.436979 0.915160 0.617519 0.071027
C15   C     C_3   0.424111 0.084061 0.398317 -0.342490
C16   C     C_3   0.433806 0.919254 0.391860 -0.374063
C17   C     C_R   0.499233 0.500685 0.259763 0.794606
C18   C     C_R   0.739811 0.499906 0.500891 0.759270
C19   C     C_R   0.500416 0.499272 0.740078 0.801790
C20   C     C_3   0.487706 0.629831 0.036055 0.204551
C21   C     C_3   0.406301 0.424732 0.040445 0.164329
C22   C     C_3   0.390901 0.554407 0.954532 -0.276345
C23   C     C_3   0.500224 0.497746 0.876390 -0.040876
C24   C     C_3   0.596530 0.576977 0.955999 -0.174199
C25   C     C_3   0.512360 0.365448 0.960223 -0.116750
C26   C     C_3   0.607850 0.445307 0.042857 -0.233317
Cu1   Cu    Cu3+1 0.499860 0.642410 0.500060 0.925177
Cu2   Cu    Cu3+1 0.499860 0.357590 0.500060 0.987779
H1    H     H_    0.302402 0.598688 0.917184 0.129102
H2    H     H_    0.892359 0.670263 0.361345 0.211174
H3    H     H_    0.893650 0.497465 0.296012 0.149647
H4    H     H_    0.513666 0.105643 0.700458 0.161577
H5    H     H_    0.485560 0.876049 0.703195 0.139549
H6    H     H_    0.325085 0.115182 0.407462 0.180096
H7    H     H_    0.339922 0.872647 0.381390 0.197347
H8    H     H_    0.451499 0.129893 0.306439 0.195710
H9    H     H_    0.480650 0.892360 0.303016 0.173572
H10   H     H_    0.674095 0.641522 0.918479 0.133655
H11   H     H_    0.520463 0.255791 0.926793 0.140349
H12   H     H_    0.696023 0.401202 0.081123 0.146048
H13   H     H_    0.105542 0.699021 0.604344 0.186281
H14   H     H_    0.105022 0.281702 0.439153 0.171499
H15   H     H_    0.106306 0.545821 0.703491 0.149668
H16   H     H_    0.106161 0.302704 0.607279 0.170956
H17   H     H_    0.892526 0.549201 0.702808 0.144951
H18   H     H_    0.897907 0.306326 0.610668 0.183109
H19   H     H_    0.894547 0.700558 0.601359 0.221402
H20   H     H_    0.895181 0.280508 0.442298 0.215740
H21   H     H_    0.104844 0.672539 0.363855 0.166802
H22   H     H_    0.106630 0.500896 0.296114 0.143868
N1    N     N_3   0.500250 0.143650 0.502780 -0.168847
N2    N     N_3   0.500250 0.856350 0.502780 -0.216792
O1    O     O_R   0.317570 0.620260 0.500070 -0.560806
O2    O     O_R   0.317570 0.379740 0.500070 -0.570749
O3    O     O_R   0.499850 0.620240 0.316900 -0.600201
O4    O     O_R   0.499850 0.379760 0.316900 -0.559537
O5    O     O_R   0.682190 0.620260 0.500030 -0.586620
O6    O     O_R   0.682190 0.379740 0.500030 -0.503725
O7    O     O_R   0.499910 0.620280 0.683200 -0.604571
O8    O     O_R   0.499910 0.379720 0.683200 -0.548738
O9    O     O_3   0.702694 0.139001 0.590158 -0.715515
H23   H     H_    0.789533 0.107058 0.576001 0.338576
O10   O     O_3   0.693414 0.882303 0.617427 -0.766970
H24   H     H_    0.667526 0.789346 0.648594 0.349506
O11   O     O_3   0.684115 0.132444 0.377612 -0.723657
H25   H     H_    0.650065 0.078810 0.306163 0.300899
O12   O     O_3   0.706745 0.863693 0.405553 -0.737014
H26   H     H_    0.657118 0.808288 0.345957 0.340630
N3    N     N_3   0.332058 0.154069 0.658995 -0.534623
H27   H     H_    0.309005 0.124445 0.750903 0.176740
H28   H     H_    0.257986 0.127630 0.600795 0.205417
N4    N     N_3   0.309457 0.861755 0.629835 -0.536893
H29   H     H_    0.275500 0.884138 0.719484 0.180503
H30   H     H_    0.249330 0.906841 0.563762 0.204518
N5    N     N_3   0.474868 0.774230 0.077348 -0.604687
H31   H     H_    0.475209 0.838044 0.996935 0.210032
H32   H     H_    0.386461 0.784021 0.117098 0.203460
N6    N     N_3   0.304090 0.340484 0.088984 -0.605505
H33   H     H_    0.255026 0.302327 0.011629 0.211604
H34   H     H_    0.244009 0.408205 0.136158 0.194017

loop_
_geom_bond_atom_site_label_1
_geom_bond_atom_site_label_2
_ccdc_geom_bond_type
C7    C10   S    
C22   H1    S    
C1    C8    S    
C13   H4    S    
C4    C8    S    
C14   H5    S    
Cu2   O4    S    
C7    C8    S    
C5    H19   S    
C3    H15   S    
C4    H14   S    
C24   C26   S    
C16   H7    S    
Cu2   N1    S    
N6    H34   S    
C15   C16   S    
N3    H28   S    
C1    O1    A    
C13   N1    S    
C10   H3    S    
C18   O6    A    
C14   N2    S    
C20   C24   S    
C21   N6    S    
C24   H10   S    
C23   C24   S    
C15   N1    S    
C9    C10   S    
C17   O3    A    
C15   H6    S    
C16   H9    S    
C21   C22   S    
C2    C17   S    
O9    H23   S    
C6    C9    S    
C12   N2    S    
Cu2   O8    S    
C12   O12   S    
C2    C20   S    
O12   H26   S    
C7    H21   S    
C4    C6    S    
C3    C8    S    
Cu1   O5    S    
C12   O10   S    
Cu2   O2    S    
N6    H33   S    
C4    H16   S    
C19   O7    A    
C25   C26   S    
C5    H17   S    
C20   N5    S    
C19   C23   S    
N5    H31   S    
C5    C9    S    
C10   H2    S    
C18   O5    A    
C2    C21   S    
C2    C26   S    
N5    H32   S    
C17   O4    A    
C6    H20   S    
C1    O2    A    
N4    H30   S    
C20   C22   S    
C3    C5    S    
C15   H8    S    
Cu1   N2    S    
C21   C25   S    
C3    H13   S    
C6    H18   S    
C14   N4    S    
C16   N2    S    
C7    H22   S    
N4    H29   S    
C11   O9    S    
C11   C12   S    
Cu1   O1    S    
Cu2   O6    S    
C19   O8    A    
Cu1   O7    S    
C25   H11   S    
C26   H12   S    
C13   N3    S    
Cu1   O3    S    
C23   C25   S    
N3    H27   S    
C11   N1    S    
O10   H24   S    
C9    C18   S    
O11   H25   S    
Cu1   Cu2   S    
C22   C23   S    
C13   C14   S    
C11   O11   S    
