data_mof_unit_45857.cif
_audit_creation_date              2012-12-10T18:22:29-0500
_audit_creation_method            fapswitch 2.2
_symmetry_space_group_name_H-M    P1
_symmetry_Int_Tables_number       1
_space_group_crystal_system       triclinic
_cell_length_a                    23.555919
_cell_length_b                    10.661306
_cell_length_c                    9.42933
_cell_angle_alpha                 91.882947
_cell_angle_beta                  89.739791
_cell_angle_gamma                 90.892542
_cell_volume                      2366.46727599

loop_
_atom_site_label
_atom_site_type_symbol
_atom_type_description
_atom_site_fract_x
_atom_site_fract_y
_atom_site_fract_z
_atom_type_partial_charge
C1    C     C_R   0.498870 0.259414 0.497839 0.843243
C2    C     C_R   0.500831 0.740373 0.501916 0.842153
C3    C     C_R   0.235193 0.488668 0.362441 0.131829
C4    C     C_R   0.761979 0.469501 0.389092 0.149281
C5    C     C_R   0.295101 0.471418 0.366694 0.069834
C6    C     C_R   0.704483 0.438745 0.414836 0.081936
C7    C     C_R   0.325778 0.503529 0.495435 -0.144332
C8    C     C_R   0.671341 0.521206 0.499911 -0.157498
C9    C     C_R   0.294067 0.545552 0.617726 0.090991
C10   C     C_R   0.697936 0.621100 0.580374 0.041958
C11   C     C_R   0.237492 0.585994 0.601395 0.135801
C12   C     C_R   0.758280 0.632920 0.578819 0.145995
C13   C     C_R   0.207582 0.549398 0.477872 0.235877
C14   C     C_R   0.789651 0.559084 0.479324 0.236291
C15   C     C_3   0.544028 0.048339 0.567202 0.523878
C16   C     C_3   0.455124 0.950487 0.430346 0.542279
C17   C     C_3   0.547497 0.959325 0.436163 0.062557
C18   C     C_3   0.451572 0.039468 0.561571 0.060139
C19   C     C_3   0.501265 0.877074 0.504439 -0.172587
C20   C     C_3   0.498081 0.122286 0.493847 -0.186115
C21   C     C_3   0.497941 0.965551 0.637221 -0.335234
C22   C     C_3   0.501181 0.033323 0.360555 -0.309715
C23   C     C_R   0.390155 0.498647 0.499642 0.812887
C24   C     C_R   0.608821 0.505090 0.500153 0.797104
C25   C     C_3   0.458954 0.568070 0.054083 -0.203465
C26   C     C_3   0.541000 0.431851 0.946024 -0.190586
C27   C     C_3   0.452298 0.455575 0.947827 -0.244342
C28   C     C_3   0.547840 0.544551 0.052186 -0.216813
C29   C     C_3   0.506716 0.610704 0.955811 0.683017
C30   C     C_3   0.493269 0.389256 0.044185 0.690485
C31   C     C_R   0.880334 0.659463 0.423235 0.549586
C32   C     C_R   0.116668 0.455930 0.532508 0.534255
C33   C     C_R   0.878094 0.462854 0.537593 0.527743
C34   C     C_R   0.119947 0.657456 0.428797 0.545702
C35   C     C_R   0.937636 0.456058 0.532034 -0.117198
C36   C     C_R   0.060077 0.663415 0.430771 -0.114610
C37   C     C_R   0.968744 0.559488 0.480293 -0.081369
C38   C     C_R   0.028750 0.559333 0.480660 -0.082087
C39   C     C_R   0.939925 0.662536 0.426915 -0.055481
C40   C     C_R   0.057314 0.455047 0.531813 -0.057635
C41   C     C_R   0.966983 0.349205 0.575745 0.503725
C42   C     C_R   0.030491 0.769535 0.385474 0.497797
C43   C     C_R   0.026222 0.351104 0.578750 -0.250558
C44   C     C_R   0.971083 0.766339 0.379520 -0.251499
Cu1   Cu    Cu3+1 0.500010 0.499990 0.643150 0.971383
Cu2   Cu    Cu3+1 0.499990 0.500010 0.356850 0.972371
H1    H     H_    0.414074 0.413564 0.898694 0.154241
H2    H     H_    0.587411 0.583936 0.100622 0.142548
H3    H     H_    0.425228 0.626322 0.104144 0.147491
H4    H     H_    0.574572 0.373165 0.895868 0.152586
H5    H     H_    0.047652 0.269079 0.615437 0.192841
H6    H     H_    0.949532 0.847398 0.340750 0.190922
H7    H     H_    0.495857 0.935747 0.748228 0.201357
H8    H     H_    0.502963 0.063265 0.249609 0.202910
N1    N     N_R   0.850810 0.562359 0.481796 -0.451140
N2    N     N_R   0.146563 0.555016 0.479431 -0.463204
N3    N     N_3   0.500040 0.499970 0.858290 -0.196586
N4    N     N_3   0.499960 0.500030 0.141710 -0.196088
O1    O     O_R   0.500030 0.316850 0.620870 -0.579767
O2    O     O_R   0.499970 0.683150 0.379130 -0.577838
O3    O     O_R   0.500000 0.316860 0.379090 -0.533802
O4    O     O_R   0.500000 0.683140 0.620910 -0.533548
O5    O     O_R   0.417890 0.499960 0.620920 -0.588310
O6    O     O_R   0.582110 0.500040 0.379080 -0.597935
O7    O     O_R   0.417870 0.499970 0.379140 -0.566777
O8    O     O_R   0.582130 0.500030 0.620860 -0.557802
O9    O     O_2   0.852078 0.752665 0.362426 -0.570116
O10   O     O_2   0.144601 0.357606 0.583792 -0.563011
O11   O     O_2   0.847275 0.371683 0.599298 -0.507024
O12   O     O_2   0.151537 0.752432 0.377541 -0.503370
O13   O     O_3   0.938630 0.241768 0.616811 -0.538401
C45   C     C_3   0.928883 0.164248 0.494753 -0.258047
H9    H     H_    0.897529 0.206610 0.423373 0.171296
H10   H     H_    0.910985 0.072983 0.528319 0.193096
H11   H     H_    0.968805 0.144874 0.434910 0.133688
O14   O     O_3   0.058838 0.876660 0.343596 -0.541848
C46   C     C_3   0.065546 0.958063 0.463700 -0.242920
H12   H     H_    0.083946 0.048493 0.428990 0.196688
H13   H     H_    0.095293 0.918623 0.541331 0.181133
H14   H     H_    0.024272 0.978384 0.516840 0.130561
O15   O     O_3   0.515571 0.731018 0.901906 -0.576814
C47   C     C_3   0.508855 0.821850 0.012431 -0.435742
H15   H     H_    0.530603 0.796552 0.111814 0.196430
H16   H     H_    0.463048 0.837908 0.033537 0.188900
H17   H     H_    0.528271 0.911184 0.978647 0.169249
O16   O     O_3   0.487070 0.267899 0.097789 -0.566547
C48   C     C_3   0.466798 0.185103 0.989167 -0.448856
H18   H     H_    0.469952 0.087570 0.023955 0.175648
H19   H     H_    0.492046 0.192194 0.889685 0.192219
H20   H     H_    0.421244 0.201816 0.968408 0.169435
C49   C     C_3   0.199194 0.439921 0.236972 -0.361245
C50   C     C_3   0.199296 0.532135 0.116238 -0.831275
H21   H     H_    0.173981 0.615700 0.146511 0.290866
H22   H     H_    0.242903 0.564210 0.089190 0.239271
H23   H     H_    0.179759 0.485874 0.020824 0.242044
H24   H     H_    0.213004 0.345553 0.199182 0.200889
H25   H     H_    0.154351 0.422284 0.266969 0.211022
C51   C     C_3   0.794016 0.406527 0.265796 -0.370297
C52   C     C_3   0.772717 0.452663 0.124180 -0.846746
H26   H     H_    0.726739 0.431896 0.110156 0.244439
H27   H     H_    0.779963 0.555633 0.118788 0.266080
H28   H     H_    0.796301 0.405483 0.035797 0.259464
H29   H     H_    0.840215 0.427431 0.269185 0.205777
H30   H     H_    0.790103 0.302892 0.268014 0.206113
C53   C     C_3   0.324287 0.408429 0.237737 -0.349893
C54   C     C_3   0.343069 0.275938 0.268784 -0.820570
H31   H     H_    0.376913 0.276368 0.349904 0.251763
H32   H     H_    0.306169 0.219920 0.306450 0.237944
H33   H     H_    0.359692 0.230209 0.170179 0.240919
H34   H     H_    0.297078 0.399344 0.143537 0.194335
H35   H     H_    0.359163 0.466436 0.195352 0.222457
C55   C     C_3   0.682413 0.307132 0.375852 -0.407695
C56   C     C_3   0.706932 0.213930 0.478639 -0.740108
H36   H     H_    0.753986 0.213576 0.473370 0.255504
H37   H     H_    0.693900 0.239544 0.589063 0.276636
H38   H     H_    0.691274 0.117537 0.452765 0.256635
H39   H     H_    0.635576 0.298955 0.382605 0.222197
H40   H     H_    0.693347 0.279080 0.264999 0.202525
C57   C     C_3   0.314481 0.521499 0.767516 -0.371136
C58   C     C_3   0.311724 0.380409 0.792247 -0.841627
H41   H     H_    0.268472 0.342602 0.768211 0.277817
H42   H     H_    0.342806 0.330206 0.723469 0.249038
H43   H     H_    0.320848 0.361626 0.904633 0.219816
H44   H     H_    0.356422 0.564455 0.790801 0.220935
H45   H     H_    0.288110 0.565533 0.851348 0.196636
C59   C     C_3   0.662014 0.715047 0.665144 -0.377984
C60   C     C_3   0.657228 0.682915 0.821737 -0.752432
H46   H     H_    0.627791 0.748773 0.876649 0.250737
H47   H     H_    0.640773 0.585737 0.833005 0.264122
H48   H     H_    0.698752 0.691697 0.875761 0.237994
H49   H     H_    0.679158 0.811551 0.654178 0.168817
H50   H     H_    0.618689 0.721107 0.620967 0.197047
C61   C     C_3   0.207201 0.663161 0.717771 -0.366938
C62   C     C_3   0.237631 0.788784 0.748061 -0.849246
H51   H     H_    0.281550 0.775392 0.785947 0.245428
H52   H     H_    0.239195 0.844161 0.650302 0.273159
H53   H     H_    0.214125 0.843008 0.831296 0.252466
H54   H     H_    0.163203 0.686279 0.688758 0.211225
H55   H     H_    0.202187 0.609587 0.815655 0.199351
C63   C     C_3   0.790137 0.721088 0.683345 -0.374015
C64   C     C_3   0.816035 0.649627 0.804620 -0.790495
H56   H     H_    0.785629 0.577957 0.843727 0.261098
H57   H     H_    0.855634 0.602952 0.770070 0.263427
H58   H     H_    0.826917 0.716156 0.893828 0.240504
H59   H     H_    0.823955 0.774636 0.628925 0.222775
H60   H     H_    0.763152 0.794827 0.731268 0.200983
C65   C     C_3   0.602694 0.909953 0.369764 -0.387838
C66   C     C_3   0.623172 0.989869 0.247731 -0.826067
H61   H     H_    0.596219 0.972455 0.153114 0.236479
H62   H     H_    0.621216 0.090982 0.277565 0.267765
H63   H     H_    0.667551 0.965714 0.219235 0.244395
H64   H     H_    0.635911 0.909654 0.452665 0.203401
H65   H     H_    0.596235 0.811946 0.329027 0.197197
C67   C     C_3   0.398122 0.090717 0.633438 -0.399801
C68   C     C_3   0.361951 0.986131 0.695689 -0.809409
H66   H     H_    0.348541 0.917252 0.611055 0.281241
H67   H     H_    0.386150 0.937081 0.777547 0.247059
H68   H     H_    0.323449 0.026870 0.746188 0.240311
H69   H     H_    0.410854 0.158232 0.719589 0.199344
H70   H     H_    0.372850 0.142317 0.556233 0.185245
O17   O     O_3   0.591787 0.110287 0.628725 -0.582103
C69   C     C_3   0.606941 0.052640 0.754884 -0.369368
H71   H     H_    0.649913 0.086677 0.786574 0.193808
H72   H     H_    0.608490 0.948886 0.741410 0.172311
H73   H     H_    0.577084 0.079333 0.841643 0.171051
O18   O     O_3   0.410465 0.882263 0.362587 -0.579655
C70   C     C_3   0.377182 0.962815 0.283798 -0.353833
H74   H     H_    0.403059 0.019468 0.210015 0.161444
H75   H     H_    0.351395 0.023549 0.355428 0.185565
H76   H     H_    0.347225 0.904756 0.218097 0.196189

loop_
_geom_bond_atom_site_label_1
_geom_bond_atom_site_label_2
_ccdc_geom_bond_type
C33   N1    A    
C21   H7    S    
C48   H18   S    
C34   N2    A    
C59   C60   S    
C4    C51   S    
C68   H67   S    
C18   C21   S    
C36   C42   A    
C65   C66   S    
C66   H63   S    
C53   H34   S    
C43   H5    S    
C28   N4    S    
C62   H53   S    
O15   C47   S    
C22   H8    S    
C5    C53   S    
C57   H44   S    
C31   O9    S    
Cu1   N3    S    
C63   C64   S    
C28   C29   S    
C17   C65   S    
C66   H62   S    
C69   H71   S    
C11   C61   S    
C55   H39   S    
C2    O2    A    
C54   H31   S    
C51   H29   S    
Cu1   O4    S    
C3    C49   S    
C33   C35   A    
C49   H24   S    
C19   C21   S    
C40   C43   A    
Cu1   O1    S    
C16   O18   S    
C12   C63   S    
C30   O16   S    
C18   C67   S    
C34   O12   S    
C18   C20   S    
C3    C13   A    
C58   H43   S    
C33   O11   S    
C41   O13   S    
C13   N2    S    
Cu2   O2    S    
C44   H6    S    
C23   O5    A    
C14   N1    S    
C53   H35   S    
C61   H54   S    
C24   O6    A    
C38   C40   A    
Cu2   N4    S    
C27   C30   S    
C41   C43   A    
C42   C44   A    
C45   H11   S    
C35   C41   A    
C55   C56   S    
C58   H42   S    
O17   C69   S    
C70   H76   S    
C69   H72   S    
C46   H13   S    
C25   C29   S    
C15   C20   S    
C68   H66   S    
Cu2   O3    S    
O14   C46   S    
Cu2   O7    S    
C4    C6    A    
C27   N3    S    
C64   H58   S    
C63   H60   S    
C70   H74   S    
C5    C7    A    
O16   C48   S    
C17   C19   S    
C62   H52   S    
C46   H12   S    
Cu1   O5    S    
C50   H23   S    
C49   H25   S    
C70   H75   S    
Cu2   O6    S    
C64   H57   S    
C60   H47   S    
C67   H70   S    
C37   C38   A    
C69   H73   S    
C52   H26   S    
C59   H50   S    
C50   H22   S    
C16   C18   S    
C66   H61   S    
C9    C11   A    
C61   H55   S    
C67   C68   S    
C62   H51   S    
C10   C12   A    
C57   H45   S    
C45   H10   S    
C52   H27   S    
C1    O1    A    
C29   N3    S    
C29   O15   S    
C26   C30   S    
C47   H16   S    
C47   H15   S    
C48   H19   S    
O18   C70   S    
C9    C57   S    
C15   C21   S    
C25   N4    S    
C60   H46   S    
C49   C50   S    
C58   H41   S    
C56   H36   S    
C46   H14   S    
C27   H1    S    
C7    C9    A    
C28   H2    S    
C1    C20   S    
C16   C22   S    
C35   C37   A    
C2    C19   S    
C42   O14   S    
C15   O17   S    
C20   C22   S    
C45   H9    S    
C3    C5    A    
C1    O3    A    
C63   H59   S    
C6    C8    A    
C57   C58   S    
C15   C17   S    
C39   C44   A    
C24   O8    A    
C25   C27   S    
C47   H17   S    
C53   C54   S    
C26   C28   S    
C17   C22   S    
C32   O10   S    
C31   N1    A    
C56   H38   S    
C26   H4    S    
C65   H64   S    
C12   C14   A    
C60   H48   S    
C67   H69   S    
C37   C39   A    
C64   H56   S    
C55   H40   S    
C11   C13   A    
C23   O7    A    
C61   C62   S    
C7    C23   S    
C54   H32   S    
C59   H49   S    
C16   C19   S    
C51   H30   S    
C30   N4    S    
C36   C38   A    
C50   H21   S    
C8    C24   S    
C31   C39   A    
C34   C36   A    
C32   C40   A    
C4    C14   A    
C65   H65   S    
C26   N3    S    
C25   H3    S    
Cu1   Cu2   S    
O13   C45   S    
C52   H28   S    
C8    C10   A    
C51   C52   S    
C48   H20   S    
Cu1   O8    S    
C6    C55   S    
C56   H37   S    
C10   C59   S    
C32   N2    A    
C2    O4    A    
C68   H68   S    
C54   H33   S    
