data_mof_unit_58314.cif
_audit_creation_date              2013-03-05T15:55:01-0500
_audit_creation_method            fapswitch 2.2
_symmetry_space_group_name_H-M    P1
_symmetry_Int_Tables_number       1
_space_group_crystal_system       triclinic
_cell_length_a                    22.796037
_cell_length_b                    10.725617
_cell_length_c                    10.204938
_cell_angle_alpha                 89.864192
_cell_angle_beta                  87.326897
_cell_angle_gamma                 93.639027
_cell_volume                      2487.34735113

loop_
_atom_site_label
_atom_site_type_symbol
_atom_site_description
_atom_site_fract_x
_atom_site_fract_y
_atom_site_fract_z
_atom_type_partial_charge
O1    O     O_R   0.500000 0.316780 0.614690 -0.597552
O2    O     O_R   0.500000 0.316750 0.385360 -0.582371
C1    C     C_R   0.506913 0.262566 0.499234 0.995432
O3    O     O_R   0.416160 0.499970 0.614690 -0.533969
O4    O     O_R   0.416150 0.499950 0.385360 -0.576124
C2    C     C_R   0.388827 0.504905 0.502650 0.997376
Zn1   Zn    Zn3+2 0.500000 0.500020 0.653130 1.150093
Zn2   Zn    Zn3+2 0.500000 0.499980 0.346870 1.109491
O5    O     O_R   0.500000 0.683250 0.614640 -0.573231
O6    O     O_R   0.500000 0.683220 0.385310 -0.595458
O7    O     O_R   0.583850 0.500050 0.614640 -0.539166
O8    O     O_R   0.583840 0.500030 0.385310 -0.538747
C3    C     C_R   0.496265 0.739379 0.501197 0.960128
C4    C     C_R   0.611332 0.505841 0.496682 1.058959
C5    C     C_R   0.883144 0.624196 0.667438 0.695634
N1    N     N_R   0.857710 0.595870 0.551738 -0.321055
C6    C     C_R   0.889518 0.598277 0.435134 0.655755
C7    C     C_R   0.950262 0.624148 0.431845 -0.097447
C8    C     C_R   0.977889 0.655690 0.548588 -0.044235
C9    C     C_R   0.943904 0.662027 0.668776 -0.168051
C10   C     C_R   0.983436 0.616115 0.313907 -0.133671
C11   C     C_R   0.044604 0.634292 0.308365 0.440707
C12   C     C_R   0.073740 0.667699 0.425353 -0.158541
C13   C     C_R   0.039675 0.678548 0.544940 -0.042028
C14   C     C_R   0.067526 0.707947 0.662254 -0.094404
C15   C     C_R   0.033780 0.724094 0.778375 -0.138560
C16   C     C_R   0.972456 0.704338 0.783409 0.446849
C17   C     C_R   0.135577 0.684233 0.430925 0.602864
N2    N     N_R   0.161254 0.697079 0.548886 -0.345726
C18   C     C_R   0.129045 0.714730 0.662285 0.595085
O9    O     O_2   0.849458 0.613090 0.779159 -0.415863
O10   O     O_2   0.862099 0.574444 0.322479 -0.461479
H1    H     H_    0.961430 0.590403 0.225518 0.259016
O11   O     O_2   0.170627 0.683540 0.321233 -0.427992
O12   O     O_2   0.156667 0.734053 0.775215 -0.505874
H2    H     H_    0.055579 0.751823 0.866589 0.253119
C19   C     C_R   0.266910 0.727203 0.492510 -0.094752
H3    H     H_    0.260452 0.819673 0.454960 0.199428
C20   C     C_R   0.320477 0.673742 0.467893 0.393146
C21   C     C_R   0.328438 0.550055 0.509665 -0.213523
C22   C     C_R   0.278337 0.477200 0.560936 0.433882
C23   C     C_R   0.226491 0.534935 0.591962 -0.141547
H4    H     H_    0.187729 0.478691 0.627289 0.195692
C24   C     C_R   0.219992 0.658448 0.555855 0.124506
C25   C     C_R   0.772615 0.449155 0.521798 0.360473
C26   C     C_R   0.713702 0.427602 0.487417 0.251531
C27   C     C_R   0.676243 0.528827 0.490090 -0.348059
C28   C     C_R   0.701454 0.652884 0.505320 0.295157
C29   C     C_R   0.759554 0.671004 0.544405 0.293650
C30   C     C_R   0.795240 0.570300 0.549019 -0.033271
C31   C     C_R   0.552176 0.108113 0.726853 0.306426
C32   C     C_R   0.548055 0.035316 0.842170 0.287709
C33   C     C_R   0.504548 0.935470 0.855607 0.217642
C34   C     C_R   0.474062 0.897133 0.744194 0.318541
C35   C     C_R   0.495717 0.943405 0.621278 -0.085244
C36   C     C_R   0.521886 0.064403 0.616055 -0.156801
C37   C     C_R   0.518786 0.130863 0.497260 -0.061816
C38   C     C_R   0.513846 0.064008 0.379341 0.485029
H5    H     H_    0.499685 0.886955 0.294277 0.241100
C39   C     C_R   0.502181 0.937169 0.384335 -0.151258
C40   C     C_R   0.493502 0.874776 0.503508 -0.038896
C41   C     C_R   0.406532 0.376154 0.142310 0.299912
C42   C     C_R   0.402544 0.247212 0.112004 0.390487
C43   C     C_R   0.427935 0.211916 0.990714 -0.308586
H6    H     H_    0.420545 0.116423 0.959070 0.231017
C44   C     C_R   0.436015 0.305165 0.893992 0.299865
C45   C     C_R   0.459097 0.424864 0.935198 -0.009301
C46   C     C_R   0.453528 0.444552 0.075597 -0.060146
N3    N     N_R   0.499460 0.498800 0.142780 -0.149616
C47   C     C_R   0.547959 0.539779 0.065928 0.326652
C48   C     C_R   0.545559 0.555765 0.926077 0.435235
N4    N     N_R   0.499440 0.498720 0.857170 -0.154296
S1    S     S_3+6 0.693267 0.280489 0.416617 0.171279
O13   O     O_2   0.736795 0.256923 0.305496 -0.160392
O14   O     O_2   0.696276 0.178173 0.516349 -0.102087
O15   O     O_3   0.625932 0.273895 0.357296 -0.550232
H7    H     H_    0.631892 0.301358 0.264625 0.422368
S2    S     S_3+6 0.668365 0.787334 0.447357 0.148038
O16   O     O_2   0.647922 0.865926 0.560018 -0.196817
O17   O     O_2   0.713703 0.864374 0.365069 -0.148160
O18   O     O_3   0.612328 0.750275 0.352626 -0.551152
H8    H     H_    0.607461 0.827920 0.302908 0.401201
Cl1   Cl    Cl    0.790279 0.821951 0.582490 -0.335468
Cl2   Cl    Cl    0.524622 0.131028 0.221993 -0.465715
Cl3   Cl    Cl    0.604022 0.237735 0.717202 -0.412990
Cl4   Cl    Cl    0.598833 0.069783 0.964183 -0.268721
S3    S     S_3+6 0.489141 0.857741 0.007439 0.119544
O19   O     O_2   0.449792 0.933359 0.092353 -0.192313
O20   O     O_2   0.458357 0.732075 0.987144 -0.292965
O21   O     O_3   0.551492 0.839751 0.083854 -0.476667
H9    H     H_    0.541982 0.768402 0.143927 0.369501
S4    S     S_3+6 0.398836 0.842088 0.758151 0.063847
O22   O     O_2   0.392834 0.702191 0.755672 -0.253557
O23   O     O_2   0.370414 0.886048 0.884000 -0.224634
O24   O     O_3   0.363857 0.899935 0.632292 -0.569889
H10   H     H_    0.322774 0.907374 0.665886 0.384375
Cl5   Cl    Cl    0.616944 0.556079 0.136478 -0.409640
S5    S     S_3+6 0.081079 0.602807 0.154761 0.128151
O25   O     O_2   0.123666 0.503356 0.173160 -0.182423
O26   O     O_2   0.037985 0.557336 0.055711 -0.261413
O27   O     O_3   0.117446 0.734524 0.097092 -0.461807
H11   H     H_    0.150431 0.706050 0.040601 0.427987
S6    S     S_3+6 0.339273 0.451864 0.142703 0.161980
O28   O     O_2   0.300172 0.394809 0.041493 -0.170346
O29   O     O_2   0.306393 0.437455 0.272279 -0.202339
O30   O     O_3   0.352290 0.605063 0.109699 -0.419271
H12   H     H_    0.349674 0.612812 0.013451 0.415891
S7    S     S_3+6 0.354105 0.136494 0.199457 0.172708
O31   O     O_2   0.295875 0.189038 0.232746 -0.165231
O32   O     O_2   0.342765 0.021232 0.118944 -0.162766
O33   O     O_3   0.385150 0.096522 0.338234 -0.506613
H13   H     H_    0.356339 0.035209 0.382105 0.419200
S8    S     S_3+6 0.374585 0.291021 0.796684 0.108630
O34   O     O_2   0.346094 0.413120 0.791203 -0.224797
O35   O     O_2   0.393111 0.248095 0.662730 -0.288603
O36   O     O_3   0.324020 0.183910 0.861829 -0.428812
H14   H     H_    0.329722 0.106222 0.811972 0.397380
S9    S     S_3+6 0.607648 0.641500 0.847757 0.133230
O37   O     O_2   0.591378 0.712574 0.730787 -0.275127
O38   O     O_2   0.635373 0.735679 0.938645 -0.161817
O39   O     O_3   0.658425 0.540069 0.804539 -0.495507
H15   H     H_    0.696343 0.590609 0.797362 0.392933
S10   S     S_3+6 0.934601 0.741682 0.933215 0.132594
O40   O     O_2   0.910196 0.623178 0.999949 -0.194338
O41   O     O_2   0.975422 0.811131 0.023313 -0.253919
O42   O     O_3   0.879239 0.832267 0.901870 -0.438128
H16   H     H_    0.856983 0.839269 0.986968 0.421124
Cl6   Cl    Cl    0.372937 0.760054 0.367415 -0.467444
S11   S     S_3+6 0.268602 0.313962 0.541739 0.128619
O43   O     O_2   0.322654 0.261371 0.481316 -0.226136
O44   O     O_2   0.251857 0.252725 0.671660 -0.206721
O45   O     O_3   0.212745 0.284926 0.441863 -0.472895
H17   H     H_    0.206066 0.192761 0.441581 0.400662
Cl7   Cl    Cl    0.820396 0.325647 0.528665 -0.352321

loop_
_geom_bond_atom_site_label_1
_geom_bond_atom_site_label_2
_geom_bond_distance
_ccdc_geom_bond_type
C35   C36   1.393336 A    
O42   H16   0.990584 S    
C11   S5    1.782992 S    
C44   S8    1.753161 S    
C7    C10   1.397034 A    
C22   C23   1.392663 A    
C34   C35   1.404135 A    
C8    C9    1.423948 A    
S3    O19   1.495498 D    
C31   Cl3   1.766166 S    
O18   H8    0.989068 S    
O21   H9    0.986288 S    
S10   O40   1.503197 D    
C33   C34   1.408677 A    
O36   H14   0.989775 S    
Zn1   O7    1.933341 S    
C15   C16   1.399084 A    
N2    C18   1.361465 A    
C18   O12   1.349004 S    
C17   N2    1.366371 A    
N1    C30   1.434597 S    
C45   N4    1.394113 A    
O4    C2    1.326042 A    
O7    C4    1.330313 A    
S2    O17   1.504491 D    
S10   O41   1.503746 D    
C10   H1    1.080355 S    
O30   H12   0.990398 S    
C38   C39   1.369865 A    
C5    N1    1.365910 A    
S7    O31   1.499615 D    
C7    C8    1.405429 A    
S1    O13   1.504200 D    
C28   S2    1.781582 S    
O5    C3    1.312362 A    
S9    O37   1.488756 D    
Zn2   N3    2.083400 S    
S8    O34   1.500336 D    
O24   H10   0.990291 S    
O45   H17   0.990621 S    
C12   C13   1.424657 A    
C47   C48   1.441009 A    
C47   Cl5   1.758750 S    
S8    O36   1.687361 S    
C44   C45   1.428066 A    
C17   O11   1.344939 S    
H5    C39   1.068294 S    
C10   C11   1.394130 A    
S1    O14   1.501862 D    
C23   C24   1.392970 A    
O3    Zn1   1.968869 S    
C5    C9    1.419059 A    
C45   C46   1.449619 A    
O27   H11   0.990228 S    
C13   C14   1.408201 A    
S6    O29   1.492015 D    
Zn1   N4    2.081667 S    
C16   S10   1.779305 S    
S2    O16   1.501339 D    
N1    C6    1.363590 A    
S10   O42   1.682507 S    
C14   C15   1.399602 A    
C25   C26   1.408923 A    
S4    O24   1.680758 S    
C31   C32   1.406892 A    
C39   C40   1.386690 A    
O1    C1    1.322391 A    
S9    O39   1.682974 S    
C43   C44   1.401246 A    
C34   S4    1.777037 S    
C19   H3    1.083579 S    
C38   Cl2   1.758045 S    
C27   C28   1.427283 A    
O33   H13   0.990252 S    
Zn2   O8    1.968866 S    
C41   C42   1.416060 A    
S4    O23   1.501836 D    
C6    C7    1.393727 A    
C25   Cl7   1.770866 S    
C33   S3    1.767792 S    
C12   C17   1.413343 A    
O15   H7    0.990547 S    
O39   H15   0.990364 S    
C1    C37   1.455083 S    
C15   H2    1.081669 S    
C28   C29   1.402855 A    
O8    C4    1.322949 A    
C29   C30   1.394816 A    
S5    O26   1.502918 D    
S3    O20   1.498936 D    
N2    C24   1.431364 S    
S1    O15   1.673523 S    
C2    C21   1.486718 S    
O3    C2    1.329904 A    
C36   C37   1.411758 A    
C20   C21   1.417633 A    
C32   C33   1.414599 A    
S11   O43   1.495191 D    
C14   C18   1.399653 A    
Zn1   O5    2.003211 S    
C26   C27   1.422786 A    
C21   C22   1.420501 A    
C20   Cl6   1.754736 S    
C48   S9    1.792628 S    
O1    Zn1   2.005039 S    
C46   N3    1.377110 A    
O2    Zn2   2.003210 S    
C31   C36   1.417477 A    
O6    C3    1.330095 A    
C41   S6    1.779808 S    
O4    Zn2   1.933343 S    
C5    O9    1.345288 S    
C4    C27   1.482968 S    
C9    C16   1.426226 A    
S5    O27   1.682661 S    
S7    O33   1.679118 S    
C41   C46   1.406863 A    
C43   H6    1.080014 S    
S11   O45   1.682081 S    
C19   C24   1.392388 A    
C32   Cl4   1.763306 S    
O2    C1    1.318519 A    
C48   N4    1.401233 A    
C19   C20   1.394271 A    
C22   S11   1.763343 S    
S2    O18   1.666389 S    
C29   Cl1   1.774037 S    
C37   C38   1.407628 A    
C25   C30   1.400544 A    
C35   C40   1.412064 A    
S4    O22   1.498414 D    
S7    O32   1.501432 D    
C8    C13   1.413000 A    
S6    O30   1.681545 S    
N3    C47   1.373465 A    
S9    O38   1.502721 D    
C42   C43   1.404847 A    
C3    C40   1.457767 S    
Zn2   O6    2.005041 S    
S5    O25   1.504348 D    
C23   H4    1.084550 S    
S3    O21   1.674250 S    
S6    O28   1.501791 D    
C6    O10   1.351225 S    
C11   C12   1.428499 A    
S11   O44   1.500605 D    
C42   S7    1.778358 S    
C26   S1    1.781068 S    
S8    O35   1.494263 D    
