data_mof_unit_39792.cif
_audit_creation_date              2012-12-10T17:25:16-0500
_audit_creation_method            fapswitch 2.2
_symmetry_space_group_name_H-M    P1
_symmetry_Int_Tables_number       1
_space_group_crystal_system       triclinic
_cell_length_a                    27.755301
_cell_length_b                    10.747629
_cell_length_c                    9.599562
_cell_angle_alpha                 90.057868
_cell_angle_beta                  90.250435
_cell_angle_gamma                 92.797587
_cell_volume                      2860.14234618

loop_
_atom_site_label
_atom_site_type_symbol
_atom_type_description
_atom_site_fract_x
_atom_site_fract_y
_atom_site_fract_z
_atom_type_partial_charge
C1    C     C_R   0.498121 0.262583 0.499930 0.797648
C2    C     C_R   0.278985 0.518066 0.373951 -0.114649
C3    C     C_R   0.253447 0.496151 0.497612 0.378685
C4    C     C_R   0.101675 0.488895 0.507852 -0.071943
C5    C     C_R   0.125400 0.374984 0.518319 -0.053191
C6    C     C_R   0.096742 0.261649 0.533739 0.102571
C7    C     C_R   0.128758 0.602031 0.487286 0.000488
C8    C     C_R   0.354515 0.499834 0.499165 -0.034802
C9    C     C_R   0.645644 0.503885 0.501691 -0.040015
C10   C     C_R   0.971747 0.380741 0.506605 0.061816
C11   C     C_R   0.977641 0.608057 0.543254 0.009282
C12   C     C_R   0.407522 0.499957 0.499723 0.773084
C13   C     C_R   0.949383 0.495888 0.522775 0.041345
C14   C     C_R   0.942416 0.272769 0.476485 -0.215457
C15   C     C_R   0.892537 0.277391 0.467450 -0.147898
C16   C     C_R   0.870106 0.389324 0.489920 -0.012833
C17   C     C_R   0.898459 0.498523 0.519481 -0.051445
C18   C     C_R   0.875815 0.610178 0.545944 -0.045373
C19   C     C_R   0.825235 0.611314 0.539641 0.541856
C20   C     C_R   0.819726 0.394705 0.484017 0.533098
C21   C     C_R   0.721782 0.496702 0.378765 -0.103651
C22   C     C_R   0.671488 0.495551 0.376630 -0.221215
C23   C     C_R   0.498500 0.737043 0.500054 0.770666
C24   C     C_R   0.671057 0.515039 0.628510 -0.219483
C25   C     C_R   0.721298 0.516739 0.630236 -0.104820
C26   C     C_R   0.746804 0.507016 0.505572 0.358726
C27   C     C_R   0.022664 0.377811 0.518885 0.014729
C28   C     C_R   0.050678 0.490662 0.515640 0.061987
C29   C     C_R   0.027839 0.605930 0.516459 0.040461
C30   C     C_R   0.046298 0.265662 0.532661 -0.237358
C31   C     C_R   0.105078 0.712846 0.468214 -0.181140
C32   C     C_R   0.954252 0.715284 0.593162 0.074586
C33   C     C_R   0.903740 0.716247 0.585709 -0.187164
C34   C     C_R   0.592527 0.501132 0.500362 0.781958
C35   C     C_R   0.055303 0.713983 0.479602 -0.214665
C36   C     C_R   0.420459 0.119521 0.641584 -0.218253
C37   C     C_R   0.384508 0.050061 0.711931 -0.157724
C38   C     C_R   0.384641 0.920030 0.714201 0.154463
C39   C     C_R   0.421104 0.860000 0.644085 -0.200653
C40   C     C_R   0.458287 0.928940 0.573728 0.072202
C41   C     C_R   0.458062 0.060313 0.573007 0.095152
C42   C     C_R   0.494731 0.128334 0.499479 -0.094640
C43   C     C_R   0.529153 0.067820 0.422741 -0.187292
C44   C     C_R   0.529271 0.939666 0.422900 -0.201659
C45   C     C_R   0.176646 0.381006 0.512487 0.516169
C46   C     C_R   0.495028 0.870368 0.500030 -0.079598
C47   C     C_R   0.564333 0.665778 0.144876 -0.150352
C48   C     C_R   0.595829 0.746587 0.073090 -0.209505
C49   C     C_R   0.595844 0.746490 0.929532 -0.200010
C50   C     C_R   0.564334 0.665656 0.856860 -0.148892
C51   C     C_R   0.531614 0.581455 0.925646 0.208552
C52   C     C_R   0.531610 0.581445 0.075223 0.212499
C53   C     C_R   0.469855 0.422625 0.073409 -0.061879
C54   C     C_R   0.469866 0.422657 0.925517 -0.061588
C55   C     C_R   0.179016 0.601694 0.482006 0.515840
C56   C     C_R   0.278402 0.476468 0.622039 -0.127950
C57   C     C_R   0.328645 0.479041 0.623176 -0.239655
C58   C     C_R   0.329244 0.519502 0.374493 -0.226873
Cu1   Cu    Cu3+1 0.500000 0.499990 0.640660 0.927016
Cu2   Cu    Cu3+1 0.500000 0.500010 0.359340 0.935066
H1    H     H_    0.348258 0.536189 0.277513 0.158425
H2    H     H_    0.258757 0.459272 0.717856 0.126521
H3    H     H_    0.124872 0.799163 0.442759 0.182608
H4    H     H_    0.652192 0.522228 0.726487 0.163532
H5    H     H_    0.885904 0.799000 0.617742 0.182326
H6    H     H_    0.740471 0.524378 0.728598 0.139189
H7    H     H_    0.038417 0.798228 0.450220 0.140343
H8    H     H_    0.556776 0.120333 0.365006 0.156448
H9    H     H_    0.417925 0.219570 0.639982 0.145285
H10   H     H_    0.356328 0.097918 0.764540 0.137850
H11   H     H_    0.259823 0.533111 0.277399 0.135671
H12   H     H_    0.419396 0.759369 0.643203 0.152293
H13   H     H_    0.556970 0.894313 0.365201 0.139432
H14   H     H_    0.445144 0.359179 0.128194 0.138740
H15   H     H_    0.567331 0.673818 0.254708 0.193307
H16   H     H_    0.620409 0.809860 0.129616 0.156816
H17   H     H_    0.620457 0.809631 0.873715 0.161897
H18   H     H_    0.567317 0.673437 0.747061 0.198299
H19   H     H_    0.445159 0.359225 0.869915 0.132016
H20   H     H_    0.652903 0.487282 0.277367 0.164308
H21   H     H_    0.741357 0.489200 0.282031 0.139552
H22   H     H_    0.871590 0.192404 0.443049 0.188543
H23   H     H_    0.957256 0.184032 0.454049 0.136779
H24   H     H_    0.025671 0.179166 0.548719 0.132203
H25   H     H_    0.347145 0.463460 0.720712 0.150974
N1    N     N_R   0.201740 0.492909 0.497066 -0.460276
N2    N     N_R   0.798406 0.504674 0.508406 -0.468575
N3    N     N_R   0.500460 0.501210 0.147910 -0.198059
N4    N     N_R   0.500480 0.501290 0.852040 -0.197530
O1    O     O_R   0.500000 0.319640 0.618810 -0.572815
O2    O     O_2   0.792199 0.290696 0.455635 -0.535476
O3    O     O_2   0.205180 0.709532 0.463107 -0.571125
O4    O     O_2   0.803016 0.718049 0.564168 -0.539335
O5    O     O_R   0.500000 0.319660 0.381240 -0.572530
O6    O     O_R   0.430260 0.500010 0.618770 -0.597044
O7    O     O_R   0.430270 0.500030 0.381200 -0.577542
O8    O     O_R   0.500000 0.680340 0.618760 -0.600614
O9    O     O_R   0.500000 0.680360 0.381190 -0.589540
O10   O     O_R   0.569730 0.499970 0.618800 -0.594306
O11   O     O_R   0.569740 0.499990 0.381230 -0.598746
O12   O     O_2   0.201760 0.277212 0.520556 -0.564003
C59   C     C_3   0.979608 0.819407 0.678716 -0.405736
C60   C     C_3   0.005443 0.767876 0.806644 -0.317252
C61   C     C_3   0.026506 0.872808 0.898979 -0.855024
H26   H     H_    0.052707 0.932757 0.839304 0.257386
H27   H     H_    0.997365 0.930447 0.938611 0.255839
H28   H     H_    0.045488 0.832720 0.989251 0.246796
H29   H     H_    0.979473 0.708958 0.868799 0.224330
H30   H     H_    0.035289 0.709503 0.773898 0.229521
H31   H     H_    0.004537 0.879934 0.616803 0.181441
H32   H     H_    0.952698 0.884304 0.717808 0.195634
C62   C     C_3   0.346130 0.845628 0.792744 -0.446070
C63   C     C_3   0.298134 0.839910 0.712737 -0.299464
C64   C     C_3   0.258360 0.773465 0.797978 -0.820249
H33   H     H_    0.268801 0.678441 0.826876 0.245990
H34   H     H_    0.251517 0.827014 0.894349 0.247283
H35   H     H_    0.224516 0.765521 0.735960 0.271307
H36   H     H_    0.287094 0.935606 0.688457 0.225078
H37   H     H_    0.302463 0.788880 0.613032 0.249068
H38   H     H_    0.357451 0.748999 0.810685 0.199141
H39   H     H_    0.341430 0.888828 0.896850 0.203778
C65   C     C_3   0.116977 0.133411 0.551135 -0.338998
C66   C     C_3   0.134808 0.113442 0.700729 -0.313298
C67   C     C_3   0.157086 0.987074 0.716046 -0.831292
H40   H     H_    0.130040 0.910684 0.690922 0.252520
H41   H     H_    0.188500 0.981017 0.645467 0.282769
H42   H     H_    0.169573 0.975052 0.825027 0.241129
H43   H     H_    0.161960 0.187620 0.731762 0.250097
H44   H     H_    0.103902 0.117930 0.773485 0.199492
H45   H     H_    0.088620 0.059163 0.528741 0.156533
H46   H     H_    0.145059 0.116983 0.472403 0.240091

loop_
_geom_bond_atom_site_label_1
_geom_bond_atom_site_label_2
_ccdc_geom_bond_type
C10   C27   A    
C21   C26   A    
C40   C41   A    
C1    O1    A    
C36   C41   A    
Cu1   O10   S    
C41   C42   A    
C48   H16   S    
C53   H14   S    
C7    C55   A    
C61   H27   S    
C64   H33   S    
Cu2   N3    S    
C33   H5    S    
C66   C67   S    
C53   C54   A    
C40   C46   A    
C37   C38   A    
C36   C37   A    
C54   H19   S    
Cu2   O9    S    
C5    C6    A    
C9    C22   A    
C15   C16   A    
C20   N2    A    
C56   C57   A    
C18   C19   A    
Cu1   N4    S    
C62   C63   S    
C8    C58   A    
C63   H37   S    
C49   H17   S    
C16   C17   A    
C34   O11   A    
C39   H12   S    
C12   O6    A    
C60   H29   S    
C19   O4    S    
C8    C12   S    
C58   H1    S    
Cu1   Cu2   S    
C24   H4    S    
C23   C46   S    
C21   C22   A    
C66   H44   S    
C3    N1    S    
C59   H32   S    
C59   C60   S    
Cu1   O6    S    
C14   H23   S    
C4    C7    A    
C50   H18   S    
C61   H26   S    
C4    C28   A    
C44   C46   A    
C50   C51   A    
C15   H22   S    
C20   O2    S    
C7    C31   A    
C51   C52   A    
C31   H3    S    
C52   N3    A    
C24   C25   A    
C54   N4    A    
C10   C14   A    
C39   C40   A    
C62   H38   S    
C43   H8    S    
C25   C26   A    
C5    C45   A    
Cu1   O1    S    
C43   C44   A    
C55   O3    S    
C8    C57   A    
C3    C56   A    
C47   C48   A    
C35   H7    S    
C16   C20   A    
C17   C18   A    
C45   O12   S    
C67   H42   S    
Cu2   O7    S    
C48   C49   A    
C6    C30   A    
C21   H21   S    
C11   C32   A    
C9    C34   S    
Cu1   O8    S    
C56   H2    S    
C59   H31   S    
C42   C43   A    
C6    C65   S    
C38   C62   S    
C2    H11   S    
C65   H46   S    
C60   C61   S    
C36   H9    S    
C67   H41   S    
C63   C64   S    
C28   C29   A    
C23   O8    A    
C25   H6    S    
C4    C5    A    
Cu2   O11   S    
C10   C13   A    
C1    O5    A    
C64   H34   S    
C2    C58   A    
C9    C24   A    
C47   C52   A    
C32   C59   S    
C34   O10   A    
C29   C35   A    
C19   N2    A    
C13   C17   A    
C60   H30   S    
C32   C33   A    
C55   N1    A    
C45   N1    A    
C22   H20   S    
C62   H39   S    
C51   N4    A    
C11   C13   A    
C66   H43   S    
C38   C39   A    
C26   N2    S    
C57   H25   S    
C2    C3    A    
C53   N3    A    
C31   C35   A    
C30   H24   S    
C44   H13   S    
C18   C33   A    
C64   H35   S    
C47   H15   S    
C63   H36   S    
C1    C42   S    
C23   O9    A    
C11   C29   A    
C49   C50   A    
C27   C28   A    
C14   C15   A    
C12   O7    A    
C65   C66   S    
C37   H10   S    
C65   H45   S    
C61   H28   S    
C67   H40   S    
C27   C30   A    
Cu2   O5    S    
