data_mof_unit_66250.cif
_audit_creation_date              2012-12-10T18:40:09-0500
_audit_creation_method            fapswitch 2.2
_symmetry_space_group_name_H-M    P1
_symmetry_Int_Tables_number       1
_space_group_crystal_system       triclinic
_cell_length_a                    15.760478
_cell_length_b                    11.57501
_cell_length_c                    10.788578
_cell_angle_alpha                 89.999963
_cell_angle_beta                  89.988064
_cell_angle_gamma                 90.000018
_cell_volume                      1968.13532512

loop_
_atom_site_label
_atom_site_type_symbol
_atom_type_description
_atom_site_fract_x
_atom_site_fract_y
_atom_site_fract_z
_atom_type_partial_charge
C1    C     C_1   0.500000 0.161052 0.500000 -0.180792
C2    C     C_1   0.500000 0.940839 0.500000 0.007216
C3    C     C_3   0.971670 0.404484 0.558951 -0.210873
C4    C     C_3   0.028330 0.595515 0.441049 -0.210873
C5    C     C_3   0.028330 0.404506 0.441010 -0.210868
C6    C     C_3   0.971670 0.595494 0.558990 -0.210868
C7    C     C_1   0.248637 0.500000 0.500013 -0.171230
C8    C     C_1   0.751363 0.500000 0.499987 -0.171231
C9    C     C_3   0.027412 0.499979 0.616025 0.054671
C10   C     C_3   0.972588 0.500021 0.383974 0.054671
C11   C     C_3   0.082806 0.500000 0.499972 0.142326
C12   C     C_1   0.500000 0.838948 0.500000 -0.180792
C13   C     C_3   0.917194 0.500000 0.500028 0.142326
C14   C     C_1   0.173510 0.500000 0.499997 -0.051277
C15   C     C_1   0.826490 0.500000 0.500003 -0.051277
C16   C     C_1   0.940915 0.500043 0.256115 0.163314
C17   C     C_1   0.059084 0.499957 0.743885 0.163314
C18   C     C_1   0.499996 0.500000 0.069787 0.048112
C19   C     C_1   0.500004 0.500000 0.930213 0.048112
C20   C     C_R   0.500000 0.281186 0.500000 0.906074
C21   C     C_R   0.500000 0.718814 0.500000 0.906074
C22   C     C_R   0.337375 0.500000 0.499992 0.906884
C23   C     C_R   0.662625 0.500000 0.500008 0.906883
C24   C     C_1   0.500000 0.059160 0.500000 0.007216
H1    H     H_    0.053148 0.327219 0.391999 0.150894
H2    H     H_    0.946852 0.672781 0.608001 0.150894
H3    H     H_    0.946852 0.327179 0.607929 0.150892
H4    H     H_    0.053148 0.672821 0.392071 0.150892
N1    N     N_1   0.499990 0.500000 0.180630 -0.077235
N2    N     N_1   0.500010 0.500000 0.819370 -0.077235
N3    N     N_1   0.915929 0.500060 0.155278 -0.186939
N4    N     N_1   0.084071 0.499940 0.844722 -0.186939
O1    O     O_R   0.499990 0.334450 0.602530 -0.608380
O2    O     O_R   0.500010 0.665550 0.397470 -0.608380
O3    O     O_R   0.500010 0.334450 0.397470 -0.608380
O4    O     O_R   0.499990 0.665550 0.602530 -0.608380
O5    O     O_R   0.376780 0.500000 0.602510 -0.607305
O6    O     O_R   0.623220 0.500000 0.397490 -0.607305
O7    O     O_R   0.376780 0.500000 0.397450 -0.609675
O8    O     O_R   0.623220 0.500000 0.602550 -0.609675
Zn1   Zn    Zn3+2 0.500000 0.500000 0.636920 0.992571
Zn2   Zn    Zn3+2 0.500000 0.500000 0.363080 0.992571

loop_
_geom_bond_atom_site_label_1
_geom_bond_atom_site_label_2
_ccdc_geom_bond_type
N2    Zn1   S    
O6    Zn2   S    
C3    C9    S    
N1    Zn2   S    
O7    Zn2   S    
C7    C22   S    
O2    Zn2   S    
C2    C12   T    
C6    C9    S    
C3    H3    S    
O1    Zn1   S    
C5    C10   S    
C21   O4    A    
C10   C16   S    
C4    C11   S    
C2    C24   S    
C9    C11   S    
C6    C13   S    
O4    Zn1   S    
C6    H2    S    
C5    H1    S    
C20   O1    A    
C9    C17   S    
O8    Zn1   S    
C4    H4    S    
C5    C11   S    
C8    C15   T    
C13   C15   S    
O5    Zn1   S    
C17   N4    T    
C11   C14   S    
C22   O7    A    
C4    C10   S    
C23   O8    A    
C23   O6    A    
C8    C23   S    
C22   O5    A    
C1    C24   T    
C4    C6    S    
C18   C19   S    
C18   N1    T    
O3    Zn2   S    
C1    C20   S    
C21   O2    A    
C19   N2    T    
C16   N3    T    
C12   C21   S    
C20   O3    A    
C7    C14   T    
C3    C5    S    
C10   C13   S    
C3    C13   S    
