data_mof_unit_29382.cif
_audit_creation_date              2012-12-10T17:17:53-0500
_audit_creation_method            fapswitch 2.2
_symmetry_space_group_name_H-M    P1
_symmetry_Int_Tables_number       1
_space_group_crystal_system       triclinic
_cell_length_a                    14.91407
_cell_length_b                    16.151324
_cell_length_c                    9.751458
_cell_angle_alpha                 89.026992
_cell_angle_beta                  90.986622
_cell_angle_gamma                 89.362308
_cell_volume                      2348.11030184

loop_
_atom_site_label
_atom_site_type_symbol
_atom_type_description
_atom_site_fract_x
_atom_site_fract_y
_atom_site_fract_z
_atom_type_partial_charge
C1    C     C_R   0.381430 0.880258 0.499133 0.787952
C2    C     C_R   0.386836 0.123614 0.498507 0.786687
C3    C     C_R   0.881430 0.380258 0.499133 0.787952
C4    C     C_R   0.886836 0.623614 0.498507 0.786687
C5    C     C_R   0.277010 0.220674 0.376134 0.144184
C6    C     C_R   0.260539 0.797883 0.370751 0.126280
C7    C     C_R   0.777010 0.720674 0.376134 0.144184
C8    C     C_R   0.760539 0.297882 0.370751 0.126280
C9    C     C_R   0.693002 0.760440 0.386531 0.122326
C10   C     C_R   0.684366 0.245741 0.374231 0.113179
C11   C     C_R   0.193002 0.260440 0.386531 0.122326
C12   C     C_R   0.184366 0.745741 0.374231 0.113180
C13   C     C_R   0.672151 0.801438 0.509052 -0.218935
C14   C     C_R   0.662651 0.203806 0.497379 -0.216063
C15   C     C_R   0.172151 0.301438 0.509052 -0.218935
C16   C     C_R   0.162651 0.703806 0.497379 -0.216063
C17   C     C_R   0.663989 0.984517 0.144555 -0.173775
C18   C     C_R   0.163989 0.484517 0.144555 -0.173775
C19   C     C_R   0.745773 0.982654 0.075332 0.134125
C20   C     C_R   0.245773 0.482654 0.075332 0.134125
C21   C     C_R   0.744056 0.989283 0.933238 -0.258127
C22   C     C_R   0.244056 0.489283 0.933238 -0.258127
C23   C     C_R   0.663280 0.994601 0.860898 -0.153668
C24   C     C_R   0.163280 0.494601 0.860898 -0.153668
C25   C     C_R   0.580236 0.994866 0.927324 0.146146
C26   C     C_R   0.080236 0.494866 0.927324 0.146146
C27   C     C_R   0.580241 0.992308 0.075483 0.135693
C28   C     C_R   0.080241 0.492308 0.075483 0.135693
C29   C     C_R   0.423909 0.000989 0.072768 -0.078039
C30   C     C_R   0.923909 0.500989 0.072768 -0.078039
C31   C     C_R   0.609883 0.125116 0.499261 0.785506
C32   C     C_R   0.612349 0.876071 0.502385 0.788555
C33   C     C_R   0.109883 0.625116 0.499261 0.785506
C34   C     C_R   0.112349 0.376071 0.502385 0.788555
C35   C     C_R   0.421988 0.003397 0.925854 0.205036
C36   C     C_R   0.921988 0.503397 0.925854 0.205036
C37   C     C_R   0.366215 0.239458 0.731554 -0.158117
C38   C     C_R   0.326094 0.784185 0.743808 -0.121732
C39   C     C_R   0.866215 0.739458 0.731554 -0.158117
C40   C     C_R   0.826094 0.284185 0.743808 -0.121732
C41   C     C_R   0.341289 0.271046 0.857131 -0.177259
C42   C     C_R   0.277968 0.781768 0.863383 -0.166723
C43   C     C_R   0.841289 0.771046 0.857131 -0.177259
C44   C     C_R   0.777969 0.281768 0.863383 -0.166724
C45   C     C_R   0.753323 0.796667 0.875345 -0.151367
C46   C     C_R   0.686404 0.266137 0.858883 -0.175355
C47   C     C_R   0.253323 0.296667 0.875345 -0.151367
C48   C     C_R   0.186404 0.766137 0.858883 -0.175355
C49   C     C_R   0.693875 0.800788 0.763869 -0.134658
C50   C     C_R   0.648827 0.234410 0.740599 -0.115273
C51   C     C_R   0.193875 0.300788 0.763869 -0.134659
C52   C     C_R   0.148827 0.734410 0.740599 -0.115273
C53   C     C_R   0.722599 0.781093 0.630539 0.074243
C54   C     C_R   0.697902 0.235236 0.619084 0.070237
C55   C     C_R   0.222599 0.281093 0.630539 0.074243
C56   C     C_R   0.197902 0.735236 0.619084 0.070237
C57   C     C_R   0.304747 0.237594 0.619949 0.070053
C58   C     C_R   0.280262 0.777221 0.617810 0.055831
C59   C     C_R   0.804747 0.737594 0.619949 0.070054
C60   C     C_R   0.780262 0.277221 0.617810 0.055831
C61   C     C_R   0.325629 0.197650 0.496619 -0.222771
C62   C     C_R   0.310005 0.814553 0.494872 -0.200197
C63   C     C_R   0.825629 0.697650 0.496619 -0.222771
C64   C     C_R   0.810005 0.314553 0.494872 -0.200197
Cu1   Cu    Cu3+1 0.499990 0.000000 0.640660 0.902116
Cu2   Cu    Cu3+1 0.999990 0.500000 0.640660 0.902116
Cu3   Cu    Cu3+1 0.500010 0.000000 0.359340 0.908411
Cu4   Cu    Cu3+1 0.000010 0.500000 0.359340 0.908411
H1    H     H_    0.669113 0.998532 0.752430 0.221062
H2    H     H_    0.169113 0.498532 0.752430 0.221062
H3    H     H_    0.434266 0.218300 0.721613 0.142090
H4    H     H_    0.397289 0.794991 0.751826 0.154514
H5    H     H_    0.934266 0.718300 0.721613 0.142090
H6    H     H_    0.897289 0.294990 0.751826 0.154514
H7    H     H_    0.731310 0.815198 0.975260 0.142749
H8    H     H_    0.644664 0.276557 0.946090 0.142537
H9    H     H_    0.231311 0.315198 0.975260 0.142749
H10   H     H_    0.144664 0.776557 0.946090 0.142537
H11   H     H_    0.625246 0.816837 0.785584 0.161025
H12   H     H_    0.579817 0.216071 0.742269 0.135045
H13   H     H_    0.125246 0.316837 0.785584 0.161025
H14   H     H_    0.079817 0.716071 0.742269 0.135045
H15   H     H_    0.362888 0.000906 0.128243 0.153048
H16   H     H_    0.862888 0.500906 0.128243 0.153048
H17   H     H_    0.668498 0.990826 0.252073 0.228278
H18   H     H_    0.168498 0.490826 0.252073 0.228278
N1    N     N_R   0.501200 0.000000 0.147910 -0.211392
N2    N     N_R   0.001200 0.500000 0.147910 -0.211392
N3    N     N_R   0.501270 0.000000 0.852040 -0.233118
N4    N     N_R   0.001270 0.500000 0.852040 -0.233118
O1    O     O_R   0.409820 0.909830 0.618810 -0.605309
O2    O     O_R   0.409820 0.090170 0.618810 -0.610289
O3    O     O_R   0.909820 0.409830 0.618810 -0.605309
O4    O     O_R   0.909820 0.590170 0.618810 -0.610289
O5    O     O_R   0.409840 0.909830 0.381240 -0.569443
O6    O     O_R   0.409840 0.090170 0.381240 -0.568235
O7    O     O_R   0.909840 0.409830 0.381240 -0.569443
O8    O     O_R   0.909840 0.590170 0.381240 -0.568235
O9    O     O_R   0.590170 0.090170 0.618760 -0.603731
O10   O     O_R   0.590170 0.909830 0.618760 -0.604415
O11   O     O_R   0.090170 0.590170 0.618760 -0.603731
O12   O     O_R   0.090170 0.409830 0.618760 -0.604415
O13   O     O_R   0.590190 0.090180 0.381190 -0.584588
O14   O     O_R   0.590190 0.909820 0.381190 -0.608442
O15   O     O_R   0.090190 0.590180 0.381190 -0.584588
O16   O     O_R   0.090190 0.409820 0.381190 -0.608442
C65   C     C_3   0.324906 0.226811 0.240712 -0.372824
C66   C     C_3   0.298641 0.158958 0.143175 -0.806401
H19   H     H_    0.285478 0.101358 0.201686 0.253728
H20   H     H_    0.237778 0.175334 0.081995 0.245314
H21   H     H_    0.353662 0.149501 0.070381 0.241682
H22   H     H_    0.310848 0.288008 0.191005 0.184383
H23   H     H_    0.398612 0.225100 0.257986 0.195533
C67   C     C_3   0.293464 0.828539 0.232811 -0.335895
C68   C     C_3   0.380450 0.782439 0.196495 -0.787278
H24   H     H_    0.420265 0.765707 0.289726 0.254440
H25   H     H_    0.365755 0.723042 0.145991 0.220952
H26   H     H_    0.421645 0.821281 0.127512 0.235812
H27   H     H_    0.245495 0.822839 0.148006 0.171633
H28   H     H_    0.298366 0.896401 0.231567 0.193688
C69   C     C_3   0.824906 0.726810 0.240712 -0.372822
C70   C     C_3   0.798641 0.658958 0.143175 -0.806402
H29   H     H_    0.785478 0.601358 0.201686 0.253729
H30   H     H_    0.737778 0.675334 0.081995 0.245314
H31   H     H_    0.853662 0.649501 0.070381 0.241682
H32   H     H_    0.810848 0.788008 0.191005 0.184383
H33   H     H_    0.898612 0.725100 0.257986 0.195533
C71   C     C_3   0.793464 0.328539 0.232811 -0.335894
C72   C     C_3   0.880450 0.282439 0.196495 -0.787278
H34   H     H_    0.920265 0.265707 0.289726 0.254440
H35   H     H_    0.865755 0.223042 0.145991 0.220952
H36   H     H_    0.921645 0.321281 0.127512 0.235812
H37   H     H_    0.745495 0.322839 0.148006 0.171633
H38   H     H_    0.798366 0.396401 0.231567 0.193687
H39   H     H_    0.806197 0.989506 0.877198 0.156369
H40   H     H_    0.306197 0.489506 0.877198 0.156369
C73   C     C_3   0.331611 0.020224 0.854266 -0.322769
C74   C     C_3   0.248337 0.988670 0.927947 -0.966445
H41   H     H_    0.261672 0.928388 0.978838 0.256253
H42   H     H_    0.225697 0.032810 0.005815 0.251932
H43   H     H_    0.192158 0.981575 0.852904 0.264689
H44   H     H_    0.323201 0.087925 0.838741 0.220308
H45   H     H_    0.328988 0.992062 0.753410 0.268908
C75   C     C_3   0.831611 0.520224 0.854266 -0.322769
C76   C     C_3   0.748337 0.488670 0.927947 -0.966446
H46   H     H_    0.761672 0.428387 0.978838 0.256253
H47   H     H_    0.725697 0.532810 0.005815 0.251932
H48   H     H_    0.692159 0.481575 0.852904 0.264690
H49   H     H_    0.823201 0.587925 0.838741 0.220308
H50   H     H_    0.828988 0.492062 0.753410 0.268909
H51   H     H_    0.389304 0.272548 0.941493 0.135916
H52   H     H_    0.311860 0.797028 0.956098 0.147901
H53   H     H_    0.889304 0.772548 0.941493 0.135917
H54   H     H_    0.811861 0.297028 0.956098 0.147901
C77   C     C_3   0.623190 0.750008 0.272261 -0.346370
C78   C     C_3   0.587401 0.661569 0.270626 -0.881845
H55   H     H_    0.641835 0.614632 0.268505 0.261959
H56   H     H_    0.547378 0.649702 0.363857 0.249071
H57   H     H_    0.543299 0.653715 0.178947 0.240602
H58   H     H_    0.563415 0.788636 0.284995 0.226746
H59   H     H_    0.649710 0.769091 0.171584 0.194032
C79   C     C_3   0.624590 0.236929 0.248166 -0.393410
C80   C     C_3   0.665937 0.173869 0.153196 -0.740967
H60   H     H_    0.721180 0.197844 0.092765 0.228659
H61   H     H_    0.699706 0.125065 0.215062 0.267761
H62   H     H_    0.613797 0.150325 0.082270 0.237651
H63   H     H_    0.556255 0.217721 0.276673 0.207372
H64   H     H_    0.611237 0.297250 0.195243 0.160589
C81   C     C_3   0.123190 0.250008 0.272261 -0.346369
C82   C     C_3   0.087401 0.161569 0.270626 -0.881845
H65   H     H_    0.141835 0.114632 0.268505 0.261959
H66   H     H_    0.047379 0.149702 0.363857 0.249071
H67   H     H_    0.043299 0.153715 0.178946 0.240601
H68   H     H_    0.063415 0.288636 0.284995 0.226746
H69   H     H_    0.149710 0.269091 0.171583 0.194032
C83   C     C_3   0.124590 0.736929 0.248166 -0.393412
C84   C     C_3   0.165937 0.673869 0.153196 -0.740967
H70   H     H_    0.221180 0.697844 0.092765 0.228659
H71   H     H_    0.199706 0.625065 0.215062 0.267761
H72   H     H_    0.113797 0.650325 0.082270 0.237651
H73   H     H_    0.056255 0.717721 0.276673 0.207373
H74   H     H_    0.111237 0.797250 0.195243 0.160590
C85   C     C_3   0.836942 0.978259 0.147328 -0.408048
C86   C     C_3   0.836002 0.970729 0.303980 -0.880361
H75   H     H_    0.806423 0.027367 0.348820 0.249585
H76   H     H_    0.797874 0.915470 0.336993 0.252505
H77   H     H_    0.905884 0.963716 0.343965 0.247021
H78   H     H_    0.874480 0.924022 0.107982 0.196027
H79   H     H_    0.874952 0.034741 0.119344 0.207703
C87   C     C_3   0.336942 0.478259 0.147328 -0.408048
C88   C     C_3   0.336002 0.470729 0.303980 -0.880361
H80   H     H_    0.306423 0.527367 0.348820 0.249585
H81   H     H_    0.297874 0.415470 0.336993 0.252505
H82   H     H_    0.405884 0.463716 0.343965 0.247021
H83   H     H_    0.374480 0.424022 0.107982 0.196027
H84   H     H_    0.374952 0.534741 0.119344 0.207703

loop_
_geom_bond_atom_site_label_1
_geom_bond_atom_site_label_2
_ccdc_geom_bond_type
C58   C62   A    
Cu1   O2    S    
Cu2   Cu4   S    
C73   H44   S    
C87   C88   S    
C40   C60   A    
C4    O8    A    
C65   H22   S    
C23   H1    S    
C13   C32   S    
C80   H60   S    
C14   C31   S    
C1    C62   S    
C46   H8    S    
C67   C68   S    
C53   C59   A    
Cu3   O13   S    
Cu2   N4    S    
C37   H3    S    
C54   C60   A    
C3    C64   S    
C77   H59   S    
Cu1   N3    S    
C4    C63   S    
C34   O12   A    
C37   C41   A    
C33   O11   A    
C22   C24   A    
C78   H55   S    
C80   H61   S    
C24   C26   A    
C29   H15   S    
C20   C87   S    
C82   H65   S    
C68   H24   S    
C42   C48   A    
C86   H75   S    
C7    C9    A    
C81   C82   S    
C48   H10   S    
C57   C61   A    
Cu2   O12   S    
Cu4   O7    S    
C65   H23   S    
C9    C13   A    
C38   C58   A    
C52   C56   A    
C11   C15   A    
C8    C71   S    
C6    C67   S    
C12   C16   A    
C86   H76   S    
Cu1   Cu3   S    
C28   N2    A    
C75   H50   S    
C65   C66   S    
C32   O14   A    
C31   O9    A    
C42   H52   S    
C51   H13   S    
C15   C34   S    
C18   C20   A    
C67   H27   S    
C2    C61   S    
C87   H84   S    
Cu2   O4    S    
C12   C83   S    
C72   H36   S    
C68   H26   S    
C23   C25   A    
C73   H45   S    
C84   H71   S    
C10   C79   S    
C15   C55   A    
C71   C72   S    
Cu3   O5    S    
Cu2   O11   S    
Cu4   O16   S    
C7    C69   S    
C67   H28   S    
C85   H79   S    
C26   C28   A    
C76   H47   S    
C44   C46   A    
Cu3   O14   S    
C76   H46   S    
C13   C53   A    
C56   C58   A    
C21   C23   A    
C41   C47   A    
C83   H73   S    
C38   H4    S    
C24   H2    S    
C88   H80   S    
C17   C27   A    
C80   H62   S    
C18   C28   A    
Cu1   O9    S    
C10   C14   A    
C19   C85   S    
C39   C43   A    
C68   H25   S    
C37   C57   A    
C60   C64   A    
C32   O10   A    
C22   H40   S    
C34   O16   A    
C81   H68   S    
C2    O2    A    
C85   C86   S    
C16   C56   A    
C66   H19   S    
C75   H49   S    
C71   H38   S    
C16   C33   S    
C71   H37   S    
C3    O7    A    
C45   C49   A    
C1    O5    A    
C84   H72   S    
C39   C59   A    
C88   H81   S    
C81   H69   S    
C33   O15   A    
C3    O3    A    
C18   H18   S    
C52   H14   S    
C43   C45   A    
C7    C63   A    
C69   C70   S    
C74   H42   S    
C87   H83   S    
C8    C64   A    
Cu2   O3    S    
C4    O4    A    
C35   N3    A    
C83   C84   S    
C14   C54   A    
C20   C22   A    
C11   C81   S    
C55   C57   A    
C5    C11   A    
Cu3   O6    S    
Cu4   N2    S    
C17   H17   S    
C59   C63   A    
C26   N4    A    
Cu4   O15   S    
C47   H9    S    
C70   H30   S    
C77   C78   S    
C76   H48   S    
C79   C80   S    
C5    C65   S    
C36   N4    A    
Cu1   O1    S    
C46   C50   A    
C19   C21   A    
C77   H58   S    
Cu3   N1    S    
C78   H57   S    
Cu1   O10   S    
C75   C76   S    
C74   H43   S    
C50   H12   S    
C47   C51   A    
C86   H77   S    
C69   H33   S    
C41   H51   S    
C25   C27   A    
C73   C74   S    
C29   C35   A    
C25   N3    A    
C66   H21   S    
C30   C36   A    
C45   H7    S    
C44   H54   S    
C6    C62   A    
C70   H31   S    
C2    O6    A    
C72   H34   S    
C88   H82   S    
C69   H32   S    
C50   C54   A    
C43   H53   S    
C85   H78   S    
C27   N1    A    
C6    C12   A    
C66   H20   S    
C82   H66   S    
C49   C53   A    
C78   H56   S    
C17   C19   A    
C40   H6    S    
C51   C55   A    
C39   H5    S    
C30   H16   S    
Cu4   O8    S    
C29   N1    A    
C74   H41   S    
C83   H74   S    
C79   H63   S    
C38   C42   A    
C49   H11   S    
C48   C52   A    
C9    C77   S    
C8    C10   A    
C84   H70   S    
C1    O1    A    
C40   C44   A    
C79   H64   S    
C70   H29   S    
C36   C75   S    
C30   N2    A    
C21   H39   S    
C35   C73   S    
C5    C61   A    
C31   O13   A    
C72   H35   S    
C82   H67   S    
