data_mof_unit_22758.cif
_audit_creation_date              2012-12-10T17:03:26-0500
_audit_creation_method            fapswitch 2.2
_symmetry_space_group_name_H-M    P1
_symmetry_Int_Tables_number       1
_space_group_crystal_system       triclinic
_cell_length_a                    14.895452
_cell_length_b                    11.044426
_cell_length_c                    10.025774
_cell_angle_alpha                 112.143316
_cell_angle_beta                  97.171206
_cell_angle_gamma                 95.010989
_cell_volume                      1499.45972277

loop_
_atom_site_label
_atom_site_type_symbol
_atom_type_description
_atom_site_fract_x
_atom_site_fract_y
_atom_site_fract_z
_atom_type_partial_charge
C1    C     C_R   0.492135 0.253428 0.438779 0.762457
C2    C     C_R   0.506014 0.746710 0.561143 0.772095
C3    C     C_R   0.025598 0.256857 0.443176 0.038556
C4    C     C_R   0.980955 0.746230 0.642684 0.053770
C5    C     C_2   0.490815 0.111596 0.401496 -0.195543
C6    C     C_2   0.509294 0.889406 0.597337 -0.197291
C7    C     C_2   0.484295 0.066564 0.507992 -0.199187
C8    C     C_2   0.486305 0.928430 0.486680 -0.224290
C9    C     C_2   0.512087 0.508814 0.079001 0.175777
C10   C     C_2   0.488292 0.490264 0.920281 0.167294
C11   C     C_R   0.329273 0.498017 0.500937 0.786265
C12   C     C_R   0.670782 0.500623 0.499647 0.791547
C13   C     C_R   0.826599 0.618924 0.585125 -0.253379
C14   C     C_R   0.174493 0.380019 0.453812 -0.250310
C15   C     C_R   0.768101 0.502152 0.503546 -0.065274
C16   C     C_R   0.233056 0.498578 0.506224 -0.042415
C17   C     C_R   0.802378 0.384771 0.441949 -0.251537
C18   C     C_R   0.202375 0.617740 0.574564 -0.238985
C19   C     C_R   0.895495 0.379354 0.474882 0.101155
C20   C     C_R   0.109896 0.622452 0.587170 0.073347
C21   C     C_R   0.955912 0.501330 0.533408 -0.010805
C22   C     C_R   0.049567 0.500659 0.533186 -0.012564
C23   C     C_R   0.921297 0.623649 0.587303 0.070502
C24   C     C_R   0.083072 0.377812 0.474918 0.082091
C25   C     C_R   0.930357 0.257783 0.449349 0.049418
C26   C     C_R   0.077002 0.745567 0.649586 0.061287
Cu1   Cu    Cu3+1 0.515770 0.521810 0.644910 0.943294
Cu2   Cu    Cu3+1 0.484230 0.478190 0.355090 0.943704
H1    H     H_    0.795859 0.704842 0.641665 0.139261
H2    H     H_    0.202450 0.290921 0.398463 0.126342
H3    H     H_    0.755229 0.299897 0.368586 0.135231
H4    H     H_    0.252284 0.705665 0.612759 0.138404
H5    H     H_    0.466042 0.855691 0.375425 0.205921
H6    H     H_    0.474858 0.133885 0.614996 0.200209
H7    H     H_    0.587049 0.634428 0.927520 0.191095
H8    H     H_    0.405248 0.376586 0.075203 0.203491
N1    N     N_2   0.460520 0.445420 0.137370 -0.303150
N2    N     N_2   0.539480 0.554580 0.862630 -0.303438
O1    O     O_R   0.508410 0.332340 0.577400 -0.589762
O2    O     O_R   0.491590 0.667660 0.422600 -0.599816
O3    O     O_R   0.481780 0.295500 0.332650 -0.534318
O4    O     O_R   0.518220 0.704500 0.667350 -0.535004
O5    O     O_R   0.383570 0.518390 0.622380 -0.588955
O6    O     O_R   0.616430 0.481610 0.377620 -0.581944
O7    O     O_R   0.356940 0.481550 0.377630 -0.569044
O8    O     O_R   0.643060 0.518450 0.622370 -0.562971
C27   C     C_3   0.875338 0.131996 0.449289 -0.424655
C28   C     C_3   0.774543 0.125993 0.469657 -0.348117
C29   C     C_3   0.744686 0.008248 0.506489 -0.789558
H9    H     H_    0.758163 0.914735 0.422878 0.244393
H10   H     H_    0.781304 0.022474 0.615378 0.246497
H11   H     H_    0.670604 0.000862 0.510143 0.298715
H12   H     H_    0.763695 0.216836 0.560102 0.243681
H13   H     H_    0.730008 0.110062 0.365508 0.242553
H14   H     H_    0.878772 0.046826 0.347230 0.207316
H15   H     H_    0.911508 0.114529 0.542769 0.201795
C30   C     C_3   0.144794 0.874450 0.725191 -0.422528
C31   C     C_3   0.196794 0.883655 0.871981 -0.357528
C32   C     C_3   0.251165 0.020914 0.960037 -0.774293
H16   H     H_    0.304714 0.042218 0.900842 0.273328
H17   H     H_    0.205171 0.097586 0.980027 0.223893
H18   H     H_    0.284242 0.025431 0.067590 0.272365
H19   H     H_    0.147279 0.862972 0.937121 0.217796
H20   H     H_    0.244420 0.809478 0.855340 0.233369
H21   H     H_    0.192795 0.883997 0.652339 0.186107
H22   H     H_    0.112111 0.964108 0.748577 0.204707
C33   C     C_3   0.066375 0.127721 0.410838 -0.403703
C34   C     C_3   0.053091 0.044345 0.246180 -0.346847
C35   C     C_3   0.074612 0.904773 0.216637 -0.864227
H23   H     H_    0.148633 0.907551 0.252800 0.257481
H24   H     H_    0.034003 0.858129 0.274995 0.255835
H25   H     H_    0.056122 0.842788 0.098095 0.233528
H26   H     H_    0.981459 0.037018 0.194391 0.220112
H27   H     H_    0.098419 0.092085 0.194387 0.220099
H28   H     H_    0.139738 0.144681 0.458367 0.180875
H29   H     H_    0.037073 0.068977 0.467383 0.185616
C36   C     C_3   0.941453 0.876400 0.686365 -0.401842
C37   C     C_3   0.939455 0.936310 0.851191 -0.353324
C38   C     C_3   0.890689 0.057891 0.893855 -0.852336
H30   H     H_    0.919659 0.129803 0.851691 0.257356
H31   H     H_    0.816388 0.028360 0.850091 0.262970
H32   H     H_    0.899280 0.106799 0.014703 0.240247
H33   H     H_    0.903834 0.861781 0.883814 0.224037
H34   H     H_    0.010282 0.965555 0.913187 0.227793
H35   H     H_    0.978406 0.947622 0.651303 0.171900
H36   H     H_    0.872460 0.863293 0.623385 0.188102
C39   C     C_2   0.541082 0.984703 0.751505 0.831685
O9    O     O_2   0.518564 0.958485 0.851806 -0.556404
O10   O     O_R   0.598788 0.102305 0.782282 -0.776528
H37   H     H_    0.615689 0.158082 0.890944 0.333257
C40   C     C_2   0.503947 0.026682 0.252098 0.851837
O11   O     O_2   0.460179 0.035886 0.145691 -0.561345
O12   O     O_R   0.569737 0.941922 0.233158 -0.801003
H38   H     H_    0.576270 0.897050 0.126786 0.336705
C41   C     C_3   0.402632 0.393410 0.830980 -0.339151
C42   C     C_3   0.314684 0.451882 0.871628 -0.366260
C43   C     C_3   0.230520 0.346336 0.803871 -0.865304
H39   H     H_    0.167654 0.392447 0.825227 0.253736
H40   H     H_    0.227408 0.297353 0.684164 0.251146
H41   H     H_    0.233177 0.270809 0.851942 0.249170
H42   H     H_    0.317302 0.496373 0.991653 0.213146
H43   H     H_    0.306504 0.532573 0.832672 0.249614
H44   H     H_    0.398082 0.360891 0.713431 0.246631
H45   H     H_    0.404585 0.299025 0.846039 0.151611
C44   C     C_3   0.597768 0.607376 0.167486 -0.308972
C45   C     C_3   0.686442 0.570651 0.103577 -0.417848
C46   C     C_3   0.759405 0.544742 0.205007 -0.775024
H46   H     H_    0.773399 0.628224 0.313463 0.246203
H47   H     H_    0.736985 0.449802 0.212823 0.274923
H48   H     H_    0.823771 0.535654 0.159072 0.233314
H49   H     H_    0.671608 0.481776 0.999301 0.239230
H50   H     H_    0.717574 0.654175 0.080080 0.206184
H51   H     H_    0.585533 0.703442 0.164332 0.157688
H52   H     H_    0.608700 0.633092 0.284789 0.255716

loop_
_geom_bond_atom_site_label_1
_geom_bond_atom_site_label_2
_ccdc_geom_bond_type
C39   O9    D    
O12   H38   S    
C42   H43   S    
C41   C42   S    
C30   H22   S    
C43   H39   S    
C7    C8    S    
C45   H50   S    
C36   C37   S    
C28   H13   S    
C1    C5    S    
C10   C41   S    
C44   H51   S    
H8    N1    S    
C19   C21   A    
C45   C46   S    
Cu2   O2    S    
Cu1   N2    S    
C34   H27   S    
Cu2   O3    S    
C13   C23   A    
C14   C24   A    
C35   H24   S    
C17   C19   A    
C37   H33   S    
Cu1   O1    S    
C34   C35   S    
C29   H10   S    
C46   H46   S    
C11   O5    A    
C9    C10   S    
C25   C27   S    
C18   C20   A    
C36   H35   S    
C32   H16   S    
C42   H42   S    
C46   H47   S    
C3    C24   A    
C2    C6    S    
C14   H2    S    
C43   H40   S    
C41   H44   S    
C45   H49   S    
C31   H20   S    
C28   H12   S    
Cu2   O7    S    
C32   H17   S    
C33   C34   S    
C44   H52   S    
C3    C25   A    
H7    N2    S    
C12   O8    A    
C40   O11   D    
C5    C7    D    
C4    C23   A    
C37   C38   S    
C6    C8    D    
C34   H26   S    
Cu2   O6    S    
C37   H34   S    
C6    C39   S    
C35   H25   S    
Cu1   O5    S    
C40   O12   S    
C11   C16   S    
C27   C28   S    
C12   C15   S    
C29   H11   S    
C42   C43   S    
C9    N1    D    
C5    C40   S    
Cu1   O8    S    
C1    O3    A    
C28   C29   S    
C20   C22   A    
C36   H36   S    
C13   C15   A    
C17   H3    S    
C46   H48   S    
C14   C16   A    
C11   O7    A    
C33   H28   S    
C43   H41   S    
C41   H45   S    
C27   H14   S    
C13   H1    S    
C31   H19   S    
C15   C17   A    
C32   H18   S    
C3    C33   S    
C30   H21   S    
C38   H32   S    
C4    C26   A    
C44   C45   S    
C38   H31   S    
C10   N2    D    
C21   C23   A    
C31   C32   S    
C4    C36   S    
C12   O6    A    
Cu1   O4    S    
C30   C31   S    
C20   C26   A    
Cu2   N1    S    
C2    O4    A    
C7    H6    S    
C22   C24   A    
C8    H5    S    
C35   H23   S    
C19   C25   A    
C26   C30   S    
C1    O1    A    
C38   H30   S    
C2    O2    A    
C18   H4    S    
C16   C18   A    
C29   H9    S    
Cu1   Cu2   S    
C39   O10   S    
C33   H29   S    
O10   H37   S    
C21   C22   A    
C9    C44   S    
C27   H15   S    
