data_mof_unit_16772.cif
_audit_creation_date              2012-12-11T14:44:30-0500
_audit_creation_method            fapswitch 2.2
_symmetry_space_group_name_H-M    P1
_symmetry_Int_Tables_number       1
_space_group_crystal_system       triclinic
_cell_length_a                    24.882057
_cell_length_b                    16.740062
_cell_length_c                    15.537451
_cell_angle_alpha                 90.002923
_cell_angle_beta                  50.04009
_cell_angle_gamma                 89.997605
_cell_volume                      4960.57340625

loop_
_atom_site_label
_atom_site_type_symbol
_atom_type_description
_atom_site_fract_x
_atom_site_fract_y
_atom_site_fract_z
_atom_type_partial_charge
C1    C     C_R   0.334010 0.111984 0.802702 -0.161300
C2    C     C_R   0.647295 0.852545 0.244208 -0.157995
C3    C     C_R   0.665998 0.111941 0.197284 -0.161229
C4    C     C_R   0.353424 0.851903 0.754154 -0.151826
C5    C     C_R   0.833991 0.611888 0.802795 -0.161898
C6    C     C_R   0.147409 0.352651 0.243829 -0.156346
C7    C     C_R   0.166009 0.611819 0.197138 -0.166008
C8    C     C_R   0.852608 0.352643 0.756128 -0.157703
C9    C     C_3   0.267098 0.257168 0.432900 -0.161839
C10   C     C_3   0.785889 0.827740 0.567497 -0.150103
C11   C     C_3   0.732982 0.257208 0.566967 -0.162304
C12   C     C_3   0.214046 0.827772 0.432551 -0.153100
C13   C     C_3   0.766962 0.757279 0.433152 -0.160783
C14   C     C_3   0.285600 0.327504 0.567833 -0.151251
C15   C     C_3   0.233072 0.757348 0.566787 -0.161249
C16   C     C_3   0.714245 0.327612 0.432364 -0.150807
C17   C     C_2   0.694448 0.151766 0.013758 0.493951
C18   C     C_2   0.363212 0.731701 0.844023 0.547406
C19   C     C_2   0.305576 0.151881 0.986195 0.494537
C20   C     C_2   0.638440 0.733756 0.151857 0.499241
C21   C     C_2   0.194215 0.651429 0.013609 0.480499
C22   C     C_2   0.861246 0.234249 0.849290 0.500204
C23   C     C_2   0.805635 0.651626 0.986333 0.492974
C24   C     C_2   0.138791 0.234261 0.150637 0.500779
C25   C     C_2   0.763988 0.140607 0.951913 -0.253980
C26   C     C_2   0.313017 0.691104 0.853449 -0.225219
C27   C     C_2   0.236048 0.140606 0.048088 -0.255302
C28   C     C_2   0.686677 0.691204 0.145780 -0.258271
C29   C     C_2   0.263835 0.640879 0.951580 -0.259692
C30   C     C_2   0.813489 0.191263 0.854588 -0.258951
C31   C     C_2   0.736074 0.640586 0.048295 -0.254157
C32   C     C_2   0.186506 0.191248 0.145421 -0.258440
C33   C     C_R   0.586937 0.148628 0.593886 -0.125966
C34   C     C_R   0.386815 0.889297 0.406233 -0.157745
C35   C     C_R   0.413072 0.148638 0.406132 -0.126645
C36   C     C_R   0.613212 0.889303 0.593725 -0.159874
C37   C     C_R   0.086956 0.648613 0.593893 -0.126525
C38   C     C_R   0.886860 0.389144 0.406240 -0.158104
C39   C     C_R   0.913049 0.648620 0.406126 -0.126850
C40   C     C_R   0.113116 0.389084 0.593764 -0.158228
C41   C     C_R   0.662113 0.148298 0.406718 -0.136060
C42   C     C_R   0.311096 0.891244 0.593019 -0.163461
C43   C     C_R   0.337892 0.148307 0.593298 -0.135444
C44   C     C_R   0.688883 0.891132 0.406930 -0.162595
C45   C     C_R   0.162122 0.648293 0.406717 -0.135244
C46   C     C_R   0.811155 0.391028 0.593061 -0.163051
C47   C     C_R   0.837869 0.648295 0.593299 -0.135748
C48   C     C_R   0.188828 0.390960 0.406936 -0.162938
C49   C     C_R   0.577156 0.108677 0.196780 -0.105508
C50   C     C_R   0.442083 0.855734 0.756793 -0.098766
C51   C     C_R   0.422857 0.108723 0.803194 -0.105713
C52   C     C_R   0.558481 0.856263 0.241826 -0.102728
C53   C     C_R   0.077098 0.608598 0.196810 -0.102818
C54   C     C_R   0.941391 0.356489 0.758600 -0.103162
C55   C     C_R   0.922864 0.608643 0.803217 -0.105146
C56   C     C_R   0.058621 0.356496 0.241372 -0.103208
C57   C     C_R   0.353027 0.129336 0.866919 0.005457
C58   C     C_R   0.614760 0.810313 0.212107 -0.017664
C59   C     C_R   0.646992 0.129258 0.133045 0.004874
C60   C     C_R   0.386365 0.809165 0.785253 -0.054037
C61   C     C_R   0.853022 0.629179 0.867018 0.004912
C62   C     C_R   0.114957 0.310587 0.211429 -0.018392
C63   C     C_R   0.146939 0.629083 0.132948 0.007890
C64   C     C_R   0.885066 0.310576 0.788517 -0.018074
C65   C     C_R   0.636923 0.193019 0.500546 0.031836
C66   C     C_R   0.320022 0.870693 0.499248 0.045489
C67   C     C_R   0.363086 0.193035 0.499484 0.031431
C68   C     C_R   0.679972 0.870604 0.500694 0.045563
C69   C     C_R   0.136947 0.692999 0.500553 0.029753
C70   C     C_R   0.820109 0.370402 0.499278 0.045844
C71   C     C_R   0.863051 0.693007 0.499474 0.030433
C72   C     C_R   0.179853 0.370288 0.500724 0.045517
C73   C     C_3   0.337497 0.289482 0.394349 -0.160294
C74   C     C_3   0.715152 0.795848 0.605862 -0.163763
C75   C     C_3   0.662509 0.289436 0.605718 -0.159628
C76   C     C_3   0.284815 0.795917 0.394111 -0.163187
C77   C     C_3   0.837497 0.789387 0.394252 -0.160973
C78   C     C_3   0.215003 0.295404 0.605847 -0.162322
C79   C     C_3   0.162507 0.789416 0.605759 -0.160726
C80   C     C_3   0.784917 0.295598 0.394147 -0.162597
C81   C     C_3   0.801418 0.866993 0.462757 -0.152145
C82   C     C_3   0.250834 0.218912 0.536918 -0.139090
C83   C     C_3   0.198535 0.867035 0.537279 -0.151316
C84   C     C_3   0.749218 0.219032 0.462924 -0.139099
C85   C     C_3   0.301160 0.366919 0.463155 -0.151317
C86   C     C_3   0.750725 0.719187 0.537232 -0.139999
C87   C     C_3   0.698715 0.366950 0.537067 -0.150151
C88   C     C_3   0.249292 0.719246 0.462718 -0.138034
C89   C     C_3   0.731723 0.833572 0.501446 0.185154
C90   C     C_3   0.320871 0.251366 0.498767 0.184783
C91   C     C_3   0.268264 0.833651 0.498511 0.184944
C92   C     C_3   0.679106 0.251397 0.501275 0.184581
C93   C     C_3   0.231605 0.333292 0.501491 0.184405
C94   C     C_3   0.820899 0.751432 0.498734 0.185670
C95   C     C_3   0.768347 0.333407 0.498525 0.183600
C96   C     C_3   0.179087 0.751452 0.501288 0.185711
H1    H     H_    0.281503 0.110509 0.830704 0.106317
H2    H     H_    0.693923 0.836715 0.231747 0.118644
H3    H     H_    0.718499 0.110454 0.169300 0.106290
H4    H     H_    0.307065 0.835975 0.765915 0.116172
H5    H     H_    0.781476 0.610373 0.830834 0.106191
H6    H     H_    0.194094 0.336787 0.231194 0.119134
H7    H     H_    0.218532 0.610249 0.169057 0.106367
H8    H     H_    0.805934 0.336779 0.768736 0.119028
H9    H     H_    0.559794 0.163120 0.680784 0.099805
H10   H     H_    0.408024 0.889966 0.319887 0.090357
H11   H     H_    0.440214 0.163130 0.319237 0.099602
H12   H     H_    0.592056 0.890044 0.680042 0.088612
H13   H     H_    0.059806 0.663102 0.680794 0.099832
H14   H     H_    0.908042 0.389811 0.319909 0.090888
H15   H     H_    0.940197 0.663111 0.319229 0.099582
H16   H     H_    0.091939 0.389752 0.680093 0.090932
H17   H     H_    0.705054 0.163218 0.320201 0.111066
H18   H     H_    0.262611 0.892195 0.679017 0.102938
H19   H     H_    0.294940 0.163225 0.679816 0.111104
H20   H     H_    0.737349 0.892016 0.320914 0.102670
H21   H     H_    0.205023 0.663231 0.320186 0.110317
H22   H     H_    0.762684 0.391903 0.679073 0.103051
H23   H     H_    0.794942 0.663225 0.679826 0.110682
H24   H     H_    0.237304 0.391822 0.320929 0.103370
H25   H     H_    0.548393 0.104215 0.166604 0.092349
H26   H     H_    0.478221 0.841018 0.770649 0.093755
H27   H     H_    0.451623 0.104274 0.833365 0.092093
H28   H     H_    0.522444 0.841403 0.227772 0.108356
H29   H     H_    0.048276 0.604104 0.166741 0.092863
H30   H     H_    0.977340 0.341806 0.772892 0.108090
H31   H     H_    0.951654 0.604166 0.833346 0.092709
H32   H     H_    0.022669 0.341816 0.227084 0.108071
H33   H     H_    0.820194 0.928927 0.432506 0.109056
H34   H     H_    0.230711 0.157245 0.567059 0.112092
H35   H     H_    0.179731 0.928962 0.567562 0.108937
H36   H     H_    0.769419 0.157402 0.432629 0.112178
H37   H     H_    0.319781 0.428934 0.433195 0.109591
H38   H     H_    0.730444 0.657604 0.567662 0.111933
H39   H     H_    0.680009 0.428926 0.567189 0.110207
H40   H     H_    0.269597 0.657669 0.432261 0.112378
H41   H     H_    0.388624 0.286747 0.307753 0.120509
H42   H     H_    0.664214 0.798488 0.692688 0.108067
H43   H     H_    0.611418 0.286610 0.692349 0.121322
H44   H     H_    0.335739 0.798583 0.307272 0.111130
H45   H     H_    0.888559 0.786437 0.307597 0.120382
H46   H     H_    0.164001 0.297811 0.692619 0.112574
H47   H     H_    0.111462 0.786441 0.692432 0.120325
H48   H     H_    0.835882 0.298107 0.307340 0.112616
H49   H     H_    0.257798 0.228781 0.378903 0.116647
H50   H     H_    0.795310 0.855173 0.621803 0.115716
H51   H     H_    0.742372 0.228791 0.620833 0.116839
H52   H     H_    0.204584 0.855194 0.378293 0.115154
H53   H     H_    0.757498 0.728842 0.379386 0.116831
H54   H     H_    0.294852 0.354891 0.622372 0.117205
H55   H     H_    0.242570 0.728929 0.620518 0.116644
H56   H     H_    0.704898 0.355027 0.377959 0.116994
H57   H     H_    0.299366 0.706934 0.801970 0.120854
H58   H     H_    0.784250 0.105183 0.983960 0.136905
H59   H     H_    0.698868 0.705783 0.199570 0.130041
H60   H     H_    0.215808 0.105090 0.016076 0.136651
H61   H     H_    0.801758 0.205427 0.800089 0.129182
H62   H     H_    0.284294 0.606083 0.983749 0.156978
H63   H     H_    0.198187 0.205393 0.199990 0.128853
H64   H     H_    0.715739 0.605294 0.016263 0.138070
N1    N     N_R   0.389620 0.081040 0.705440 -0.033832
N2    N     N_R   0.610380 0.918960 0.294560 -0.036570
N3    N     N_R   0.610380 0.081040 0.294560 -0.033591
N4    N     N_R   0.389620 0.918960 0.705440 -0.035453
N5    N     N_R   0.889620 0.581040 0.705440 -0.033574
N6    N     N_R   0.110380 0.418960 0.294560 -0.036544
N7    N     N_R   0.110380 0.581040 0.294560 -0.033059
N8    N     N_R   0.889620 0.418960 0.705440 -0.036594
N9    N     N_R   0.582320 0.079840 0.556630 -0.040534
N10   N     N_R   0.417680 0.920160 0.443370 -0.038253
N11   N     N_R   0.417680 0.079840 0.443370 -0.040463
N12   N     N_R   0.582320 0.920160 0.556630 -0.037513
N13   N     N_R   0.082320 0.579840 0.556630 -0.040458
N14   N     N_R   0.917680 0.420160 0.443370 -0.038441
N15   N     N_R   0.917680 0.579840 0.443370 -0.040424
N16   N     N_R   0.082320 0.420160 0.556630 -0.038447
N17   N     N_R   0.627920 0.078930 0.443400 -0.038981
N18   N     N_R   0.372080 0.921070 0.556600 -0.035407
N19   N     N_R   0.372080 0.078930 0.556600 -0.039051
N20   N     N_R   0.627920 0.921070 0.443400 -0.035271
N21   N     N_R   0.127920 0.578930 0.443400 -0.038620
N22   N     N_R   0.872080 0.421070 0.556600 -0.035530
N23   N     N_R   0.872080 0.578930 0.556600 -0.038804
N24   N     N_R   0.127920 0.421070 0.443400 -0.035590
N25   N     N_R   0.555090 0.077730 0.294590 -0.040731
N26   N     N_R   0.444910 0.922270 0.705410 -0.042877
N27   N     N_R   0.444910 0.077730 0.705410 -0.040927
N28   N     N_R   0.555090 0.922270 0.294590 -0.045276
N29   N     N_R   0.055090 0.577730 0.294590 -0.041281
N30   N     N_R   0.944910 0.422270 0.705410 -0.045146
N31   N     N_R   0.944910 0.577730 0.705410 -0.040889
N32   N     N_R   0.055090 0.422270 0.294590 -0.045193
Ni1   Ni    Ni4+2 0.382970 0.000000 0.629840 0.212723
Ni2   Ni    Ni4+2 0.617030 0.000000 0.370160 0.212995
Ni3   Ni    Ni4+2 0.882970 0.500000 0.629840 0.212722
Ni4   Ni    Ni4+2 0.117030 0.500000 0.370160 0.213748
Ni5   Ni    Ni4+2 0.514540 0.000000 0.629840 0.203243
Ni6   Ni    Ni4+2 0.485460 0.000000 0.370160 0.203421
Ni7   Ni    Ni4+2 0.014540 0.500000 0.629840 0.203373
Ni8   Ni    Ni4+2 0.985460 0.500000 0.370160 0.203374
O1    O     O_3   0.380447 0.711899 0.910351 -0.634202
C97   C     C_3   0.446723 0.673820 0.843667 0.256498
H65   H     H_    0.473284 0.690534 0.877355 0.123180
H66   H     H_    0.482571 0.692402 0.753609 0.063506
C98   C     C_3   0.437967 0.583313 0.851421 -0.956951
H67   H     H_    0.414479 0.564017 0.813595 0.251443
H68   H     H_    0.489949 0.554194 0.805214 0.223843
H69   H     H_    0.403550 0.564099 0.940640 0.263936
O2    O     O_3   0.668152 0.198949 0.974974 -0.614073
C99   C     C_3   0.657622 0.150668 0.912410 0.272835
H70   H     H_    0.622754 0.099014 0.962869 0.072509
H71   H     H_    0.708460 0.127854 0.834916 0.084684
C100  C     C_3   0.622955 0.200430 0.878035 -0.925938
H72   H     H_    0.655782 0.253438 0.829301 0.254829
H73   H     H_    0.616607 0.164076 0.825268 0.207050
H74   H     H_    0.570491 0.220868 0.953875 0.257861
O3    O     O_3   0.623495 0.716907 0.081904 -0.617607
C101  C     C_3   0.566557 0.663155 0.138070 0.255137
H75   H     H_    0.519421 0.689265 0.218312 0.077379
H76   H     H_    0.580344 0.605736 0.156001 0.093199
C102  C     C_3   0.548166 0.645458 0.063666 -0.904976
H77   H     H_    0.593935 0.618414 0.983320 0.253263
H78   H     H_    0.503448 0.603052 0.106878 0.210693
H79   H     H_    0.533169 0.701520 0.045563 0.252539
O4    O     O_3   0.331837 0.199219 0.024908 -0.612881
C103  C     C_3   0.342477 0.151082 0.087442 0.272732
H80   H     H_    0.377414 0.099463 0.036984 0.071520
H81   H     H_    0.291687 0.128222 0.164970 0.084095
C104  C     C_3   0.377105 0.201025 0.121735 -0.924597
H82   H     H_    0.344192 0.253986 0.170506 0.254741
H83   H     H_    0.383563 0.164773 0.174441 0.206633
H84   H     H_    0.429515 0.221541 0.045856 0.257977
O5    O     O_3   0.875313 0.218246 0.920572 -0.616721
C105  C     C_3   0.932706 0.165192 0.865564 0.253926
H85   H     H_    0.979687 0.190836 0.784703 0.076105
H86   H     H_    0.919303 0.106863 0.848978 0.093022
C106  C     C_3   0.951260 0.150193 0.940322 -0.903806
H87   H     H_    0.905764 0.123507 0.021256 0.254019
H88   H     H_    0.996393 0.108447 0.898030 0.212886
H89   H     H_    0.965716 0.207309 0.957219 0.254452
O6    O     O_3   0.167467 0.697582 0.974710 -0.615176
C107  C     C_3   0.157248 0.648366 0.912475 0.275905
H90   H     H_    0.122836 0.596497 0.963198 0.073593
H91   H     H_    0.208244 0.625816 0.835017 0.085491
C108  C     C_3   0.122087 0.696968 0.878036 -0.928828
H92   H     H_    0.154391 0.750232 0.829206 0.255094
H93   H     H_    0.116080 0.659942 0.825349 0.207772
H94   H     H_    0.069438 0.716972 0.953857 0.257689
O7    O     O_3   0.124800 0.218295 0.079249 -0.616464
C109  C     C_3   0.067422 0.165239 0.134133 0.253784
H95   H     H_    0.020402 0.190879 0.214963 0.076094
H96   H     H_    0.080801 0.106905 0.150750 0.092748
C110  C     C_3   0.048976 0.150252 0.059230 -0.903697
H97   H     H_    0.094514 0.123568 0.978323 0.253947
H98   H     H_    0.003853 0.108507 0.101425 0.212873
H99   H     H_    0.034547 0.207372 0.042295 0.254479
O8    O     O_3   0.832056 0.698584 0.025102 -0.614524
C111  C     C_3   0.842538 0.650102 0.087572 0.273330
H100  H     H_    0.877358 0.598437 0.037002 0.073075
H101  H     H_    0.791680 0.627292 0.165020 0.085254
C112  C     C_3   0.877246 0.699641 0.122054 -0.926869
H102  H     H_    0.844467 0.752658 0.170890 0.254800
H103  H     H_    0.883561 0.663133 0.174748 0.207462
H104  H     H_    0.929725 0.720063 0.046255 0.257703

loop_
_geom_bond_atom_site_label_1
_geom_bond_atom_site_label_2
_ccdc_geom_bond_type
C65   C92   S    
C79   C83   S    
C88   C96   S    
C37   C69   A    
C36   H12   S    
C53   C63   A    
C51   H27   S    
C20   O3    S    
C50   H26   S    
C80   C84   S    
C69   C96   S    
C33   N9    A    
C44   N20   A    
C6    N6    A    
C45   N21   A    
C102  H79   S    
C40   H16   S    
C71   C94   S    
C100  H72   S    
C19   C57   S    
C4    H4    S    
C54   H30   S    
C43   N19   A    
O7    C109  S    
C104  H82   S    
C17   C59   S    
C97   H66   S    
N27   Ni5   S    
C54   C64   A    
C98   H69   S    
C74   C89   S    
C41   N17   A    
C56   N32   A    
N6    Ni4   S    
C73   C90   S    
O8    C111  S    
N11   Ni6   S    
N4    N26   A    
C78   H46   S    
C45   C69   A    
C110  H97   S    
C38   N14   A    
N13   Ni7   S    
C99   H71   S    
C10   C94   S    
C78   C93   S    
C11   C95   S    
C77   C94   S    
C27   H60   S    
C14   C78   S    
C35   N11   A    
C46   H22   S    
C10   C74   S    
O6    C107  S    
N7    Ni4   S    
C9    H49   S    
N21   Ni4   S    
C54   N30   A    
C14   C90   S    
C7    N7    A    
C86   C94   S    
C43   H19   S    
C85   C93   S    
C42   H18   S    
C79   H47   S    
C23   C61   S    
N14   N22   A    
C80   H48   S    
C97   C98   S    
C87   C95   S    
C13   C86   S    
C28   H59   S    
N23   Ni3   S    
C4    N4    A    
N26   Ni5   S    
N13   N21   A    
C51   C57   A    
C55   N31   A    
C5    N5    A    
N25   Ni6   S    
C38   H14   S    
C19   C27   D    
O5    C105  S    
C76   C88   S    
C41   H17   S    
C37   H13   S    
C31   H64   S    
C34   N10   A    
C3    N3    A    
C9    C82   S    
C53   H29   S    
C32   H63   S    
C81   C89   S    
C44   H20   S    
N12   N20   A    
C109  C110  S    
C6    H6    S    
C27   C32   S    
C1    N1    A    
N2    Ni2   S    
C102  H78   S    
C7    H7    S    
C108  H92   S    
C18   C60   S    
N16   Ni7   S    
C2    N2    A    
C13   H53   S    
C105  H86   S    
C48   C72   A    
C99   H70   S    
N5    Ni3   S    
N9    N17   A    
C34   C66   A    
C112  H103  S    
C86   H38   S    
N30   Ni7   S    
O2    C99   S    
N9    Ni5   S    
C13   C77   S    
C98   H68   S    
C49   H25   S    
N7    N29   A    
N18   Ni1   S    
C5    H5    S    
C36   N12   A    
C107  C108  S    
C8    N8    A    
N17   Ni2   S    
C33   C65   A    
C34   H10   S    
C35   H11   S    
C87   H39   S    
O4    C103  S    
C33   H9    S    
C88   H40   S    
C47   N23   A    
C97   H65   S    
C1    H1    S    
C39   N15   A    
C48   N24   A    
N4    Ni1   S    
N32   Ni8   S    
C41   C65   A    
C20   C28   D    
N3    Ni2   S    
C109  H95   S    
N24   Ni4   S    
C21   C29   D    
N8    Ni3   S    
C67   C90   S    
C12   C83   S    
C16   C80   S    
C105  C106  S    
C23   C31   D    
C111  H101  S    
C24   C32   D    
C43   C67   A    
C83   H35   S    
C102  H77   S    
C1    C57   A    
C16   C87   S    
C22   O5    S    
C74   H42   S    
C78   C82   S    
C107  H90   S    
C107  H91   S    
N28   Ni6   S    
C7    C63   A    
C18   C26   D    
C4    C60   A    
C112  H104  S    
C36   C68   A    
C68   C89   S    
N1    Ni1   S    
N12   Ni5   S    
C16   H56   S    
C15   H55   S    
C74   C86   S    
C80   C95   S    
C84   C92   S    
C8    H8    S    
C23   O8    S    
C66   C91   S    
C6    C62   A    
C52   C58   A    
C75   C92   S    
C8    C64   A    
C30   H61   S    
C72   C93   S    
N29   Ni8   S    
C75   C87   S    
C38   C70   A    
C10   H50   S    
C16   C92   S    
C40   C72   A    
C103  H81   S    
C108  H93   S    
C12   C76   S    
C81   H33   S    
C56   C62   A    
C44   C68   A    
C111  C112  S    
C82   H34   S    
C105  H85   S    
C47   C71   A    
C76   H44   S    
C20   C58   S    
C50   N26   A    
C9    C93   S    
N10   Ni6   S    
C46   C70   A    
N20   Ni2   S    
C48   H24   S    
C101  C102  S    
N15   N23   A    
N19   Ni1   S    
C100  H74   S    
C45   H21   S    
C25   C30   S    
N16   N24   A    
C98   H67   S    
C106  H89   S    
C24   O7    S    
C24   C62   S    
C22   C30   D    
C13   C89   S    
C25   H58   S    
N8    N30   A    
N14   Ni8   S    
C9    C73   S    
C28   C31   S    
N11   N19   A    
N31   Ni7   S    
C37   N13   A    
C82   C90   S    
C55   H31   S    
C110  H99   S    
C2    C58   A    
C29   H62   S    
C15   C79   S    
C11   C84   S    
C104  H84   S    
C99   C100  S    
C83   C91   S    
C40   N16   A    
C10   C81   S    
C17   O2    S    
C49   C59   A    
O1    C97   S    
C101  H76   S    
N3    N25   A    
C17   C25   D    
C46   N22   A    
C106  H88   S    
C70   C95   S    
O3    C101  S    
C100  H73   S    
C50   C60   A    
C73   C85   S    
N1    N27   A    
C11   C75   S    
C12   H52   S    
N2    N28   A    
C39   H15   S    
C52   H28   S    
C11   H51   S    
C101  H75   S    
C112  H102  S    
C73   H41   S    
C42   N18   A    
C53   N29   A    
C55   C61   A    
C47   H23   S    
N5    N31   A    
C14   C85   S    
C84   H36   S    
C111  H100  S    
C18   O1    S    
N6    N32   A    
C56   H32   S    
C19   O4    S    
C77   C81   S    
C77   H45   S    
N15   Ni8   S    
C21   C63   S    
C51   N27   A    
C35   C67   A    
C76   C91   S    
C15   C91   S    
C14   H54   S    
C3    H3    S    
C79   C96   S    
C49   N25   A    
C103  C104  S    
C2    H2    S    
C26   C29   S    
C104  H83   S    
C103  H80   S    
C110  H98   S    
C108  H94   S    
C42   C66   A    
C39   C71   A    
C12   C96   S    
C26   H57   S    
C75   H43   S    
N22   Ni3   S    
C52   N28   A    
C22   C64   S    
C106  H87   S    
C21   O6    S    
C109  H96   S    
C5    C61   A    
C85   H37   S    
C15   C88   S    
N10   N18   A    
C3    C59   A    
