data_mof_unit_19361.cif
_audit_creation_date              2012-12-11T17:43:32-0500
_audit_creation_method            fapswitch 2.2
_symmetry_space_group_name_H-M    P1
_symmetry_Int_Tables_number       1
_space_group_crystal_system       triclinic
_cell_length_a                    15.059839
_cell_length_b                    15.183101
_cell_length_c                    17.031242
_cell_angle_alpha                 108.99225
_cell_angle_beta                  106.427232
_cell_angle_gamma                 108.904945
_cell_volume                      3138.4638156

loop_
_atom_site_label
_atom_site_type_symbol
_atom_type_description
_atom_site_fract_x
_atom_site_fract_y
_atom_site_fract_z
_atom_type_partial_charge
C1    C     C_R   0.088834 0.274648 0.031756 0.322716
C2    C     C_R   0.069437 0.048948 0.927708 -0.243266
C3    C     C_R   0.996386 0.890395 0.940075 0.065152
C4    C     C_R   0.993186 0.073703 0.946768 0.069931
C5    C     C_R   0.068621 0.954363 0.920327 0.043084
C6    C     C_R   0.911964 0.999788 0.952395 0.055394
C7    C     C_R   0.727865 0.954409 0.864911 -0.210319
C8    C     C_R   0.236093 0.945912 0.941761 -0.230379
C9    C     C_R   0.634033 0.024586 0.940053 0.331082
C10   C     C_R   0.243945 0.813963 0.819498 0.360932
C11   C     C_R   0.515215 0.707070 0.362716 0.347389
C12   C     C_R   0.913201 0.707624 0.918195 0.281667
C13   C     C_R   0.442588 0.380875 0.721865 0.338042
C14   C     C_R   0.526534 0.692032 0.281236 -0.202358
C15   C     C_R   0.477846 0.418871 0.817215 -0.190754
C16   C     C_R   0.936868 0.456032 0.734354 0.084676
C17   C     C_R   0.067073 0.482191 0.252787 0.052530
C18   C     C_R   0.530088 0.601074 0.229075 -0.013857
C19   C     C_R   0.534918 0.526748 0.876598 -0.009167
C20   C     C_R   0.521877 0.523613 0.259519 -0.004421
C21   C     C_R   0.556685 0.597801 0.839683 -0.017975
C22   C     C_R   0.510879 0.539213 0.341934 0.011035
C23   C     C_R   0.029540 0.465291 0.726907 -0.005302
C24   C     C_R   0.526169 0.559217 0.744018 0.023446
C25   C     C_R   0.507765 0.630586 0.392877 -0.190781
C26   C     C_R   0.469343 0.451055 0.685722 -0.206541
C27   C     C_R   0.618517 0.570441 0.125996 -0.229016
C28   C     C_R   0.479447 0.589903 0.993195 -0.221282
C29   C     C_R   0.622966 0.554128 0.041544 0.049799
C30   C     C_R   0.465355 0.592292 0.071120 0.042731
C31   C     C_R   0.552008 0.563431 0.974299 0.066305
C32   C     C_R   0.537580 0.587275 0.140963 0.071667
C33   C     C_R   0.638304 0.965260 0.859841 -0.221247
C34   C     C_R   0.977261 0.430584 0.260404 0.012836
C35   C     C_R   0.288732 0.892098 0.910923 -0.209203
C36   C     C_R   0.971638 0.399298 0.332897 0.137657
C37   C     C_R   0.043659 0.423476 0.643138 0.126453
C38   C     C_R   0.150121 0.463608 0.565134 -0.227652
C39   C     C_R   0.870877 0.312946 0.398623 -0.208797
C40   C     C_R   0.719962 0.216173 0.823376 -0.154218
C41   C     C_R   0.223388 0.796518 0.187176 -0.123403
C42   C     C_R   0.142474 0.467739 0.645129 -0.175077
C43   C     C_R   0.875494 0.336586 0.327009 -0.186650
C44   C     C_R   0.956722 0.353750 0.558168 -0.263992
C45   C     C_R   0.663934 0.218598 0.745121 0.069172
C46   C     C_R   0.062746 0.438835 0.412434 -0.268046
C47   C     C_R   0.962098 0.356285 0.478830 0.180971
C48   C     C_R   0.059027 0.416601 0.484110 0.184796
C49   C     C_R   0.556687 0.144114 0.676336 0.126823
C50   C     C_R   0.281660 0.898502 0.359091 0.127905
C51   C     C_R   0.390444 0.085982 0.442420 -0.229667
C52   C     C_R   0.408984 0.972722 0.605874 -0.223814
C53   C     C_R   0.319648 0.996741 0.360170 -0.162144
C54   C     C_R   0.500331 0.053811 0.681419 -0.182781
C55   C     C_R   0.300042 0.893194 0.442492 -0.279085
C56   C     C_R   0.239320 0.802644 0.273421 0.043828
C57   C     C_R   0.514249 0.157688 0.599225 -0.284332
C58   C     C_R   0.374558 0.981373 0.524657 0.200994
C59   C     C_R   0.424373 0.076725 0.523195 0.189175
C60   C     C_R   0.717705 0.065424 0.026830 0.341792
C61   C     C_R   0.142828 0.788478 0.758414 0.322073
C62   C     C_R   0.808987 0.057125 0.031062 -0.221296
C63   C     C_R   0.088518 0.839367 0.791823 -0.228971
C64   C     C_R   0.301470 0.601963 0.009538 -0.155616
C65   C     C_R   0.732983 0.458642 0.043537 -0.131577
C66   C     C_R   0.815261 0.004811 0.950025 0.067889
C67   C     C_R   0.362093 0.574077 0.062470 0.059238
C68   C     C_R   0.134230 0.916908 0.883395 0.095131
C69   C     C_R   0.724750 0.311259 0.748498 -0.125805
C70   C     C_R   0.216867 0.702598 0.264773 -0.129770
C71   C     C_R   0.298587 0.506603 0.083833 -0.104174
C72   C     C_R   0.746037 0.558578 0.970659 -0.128806
C73   C     C_R   0.110136 0.533466 0.814274 -0.136809
C74   C     C_R   0.893746 0.403898 0.180316 -0.152675
C75   C     C_R   0.917511 0.196450 0.943995 -0.192173
C76   C     C_R   0.085018 0.796705 0.001876 -0.199237
C77   C     C_R   0.002208 0.177948 0.966662 0.013839
C78   C     C_R   0.701127 0.528040 0.023404 0.061120
C79   C     C_R   0.999433 0.800560 0.949687 0.044778
C80   C     C_3   0.190591 0.288767 0.093915 -1.042945
C81   C     C_3   0.815548 0.660010 0.831519 -1.032321
C82   C     C_3   0.510865 0.804711 0.416554 -1.010309
C83   C     C_3   0.369665 0.266737 0.659440 -1.002413
C84   C     C_1   0.519347 0.426495 0.204353 0.046476
C85   C     C_1   0.607486 0.709410 0.900070 0.037109
C86   C     C_1   0.501158 0.461742 0.375016 0.072972
C87   C     C_1   0.548548 0.629342 0.703839 0.058145
C88   C     C_1   0.840817 0.429564 0.661644 0.000143
C89   C     C_R   0.918806 0.913072 0.955012 -0.235969
C90   C     C_1   0.166917 0.485060 0.292190 -0.012815
C91   C     C_3   0.543176 0.048025 0.932272 -1.056201
C92   C     C_3   0.305832 0.759389 0.791569 -1.067114
C93   C     C_3   0.709049 0.114451 0.114515 -1.055166
C94   C     C_3   0.090292 0.705945 0.659357 -1.013859
H1    H     H_    0.731019 0.910774 0.802096 0.151458
H2    H     H_    0.882320 0.308455 0.554625 0.134289
H3    H     H_    0.803160 0.309994 0.269684 0.133841
H4    H     H_    0.212985 0.514907 0.708709 0.130687
H5    H     H_    0.225725 0.506617 0.568936 0.136042
H6    H     H_    0.795552 0.267987 0.394199 0.136965
H7    H     H_    0.573365 0.929276 0.792967 0.138232
H8    H     H_    0.363407 0.908824 0.959568 0.142555
H9    H     H_    0.554416 0.227359 0.594132 0.133370
H10   H     H_    0.266456 0.819061 0.443398 0.121334
H11   H     H_    0.529354 0.042818 0.741186 0.124682
H12   H     H_    0.271542 0.004306 0.013141 0.137641
H13   H     H_    0.302433 0.004576 0.297506 0.117671
H14   H     H_    0.425742 0.159890 0.441288 0.136489
H15   H     H_    0.370293 0.900618 0.608592 0.130685
H16   H     H_    0.875234 0.091528 0.096926 0.140537
H17   H     H_    0.009052 0.816684 0.747296 0.137309
H18   H     H_    0.690091 0.164460 0.850775 0.110972
H19   H     H_    0.234194 0.859200 0.168634 0.092255
H20   H     H_    0.327772 0.663324 0.990017 0.097988
H21   H     H_    0.710222 0.418165 0.081731 0.104038
H22   H     H_    0.697416 0.349126 0.710781 0.109655
H23   H     H_    0.498842 0.641804 0.455887 0.136038
H24   H     H_    0.221581 0.678880 0.318228 0.110719
H25   H     H_    0.324720 0.480314 0.133110 0.121762
H26   H     H_    0.740481 0.614454 0.946254 0.130384
H27   H     H_    0.192397 0.559481 0.835070 0.105869
H28   H     H_    0.813003 0.350957 0.156064 0.103462
H29   H     H_    0.839109 0.141505 0.893728 0.142706
H30   H     H_    0.165554 0.852541 0.030346 0.121946
H31   H     H_    0.862326 0.862528 0.968900 0.145246
H32   H     H_    0.127514 0.101924 0.917008 0.148806
H33   H     H_    0.178037 0.222361 0.110847 0.260515
H34   H     H_    0.442628 0.421799 0.611865 0.135053
H35   H     H_    0.243156 0.291872 0.059419 0.250443
H36   H     H_    0.226743 0.360808 0.159878 0.257738
H37   H     H_    0.765312 0.697203 0.843598 0.249243
H38   H     H_    0.835812 0.671395 0.776525 0.260946
H39   H     H_    0.771336 0.574508 0.806997 0.253390
H40   H     H_    0.498825 0.804586 0.477949 0.250031
H41   H     H_    0.584937 0.874498 0.440083 0.255082
H42   H     H_    0.445623 0.810828 0.372148 0.257826
H43   H     H_    0.357216 0.245396 0.586961 0.253320
H44   H     H_    0.401171 0.218558 0.682943 0.260837
H45   H     H_    0.531973 0.751264 0.257939 0.140124
H46   H     H_    0.293263 0.248526 0.662031 0.255134
H47   H     H_    0.509702 0.026918 0.977295 0.266582
H48   H     H_    0.570322 0.133202 0.954724 0.254319
H49   H     H_    0.481179 0.004673 0.860497 0.252194
H50   H     H_    0.265651 0.699750 0.718368 0.267122
H51   H     H_    0.381317 0.817685 0.802608 0.263615
H52   H     H_    0.321723 0.719973 0.834642 0.244978
H53   H     H_    0.692670 0.181242 0.117486 0.250338
H54   H     H_    0.644426 0.055535 0.116969 0.259797
H55   H     H_    0.781560 0.142048 0.175728 0.258797
H56   H     H_    0.455673 0.364710 0.844988 0.140158
H57   H     H_    0.079604 0.628982 0.656237 0.267532
H58   H     H_    0.012201 0.697663 0.621867 0.251773
H59   H     H_    0.138252 0.727208 0.623270 0.252629
H60   H     H_    0.676024 0.567117 0.178661 0.136181
H61   H     H_    0.423326 0.591924 0.938356 0.129519
H62   H     H_    0.136444 0.495974 0.424783 0.133100
N1    N     N_R   0.055660 0.348550 0.045620 -0.059326
N2    N     N_R   0.185200 0.638170 0.176300 -0.039883
N3    N     N_R   0.201680 0.494570 0.045620 -0.042918
N4    N     N_R   0.798320 0.505430 0.954380 -0.043613
N5    N     N_R   0.068420 0.560530 0.871650 -0.046835
N6    N     N_R   0.931580 0.439470 0.128350 -0.046226
N7    N     N_R   0.948070 0.295860 0.997670 -0.055319
N8    N     N_R   0.051930 0.704140 0.002330 -0.052548
N9    N     N_1   0.517264 0.348921 0.160217 -0.094459
N10   N     N_1   0.647832 0.798331 0.949090 -0.076030
N11   N     N_1   0.493340 0.399742 0.401562 -0.093767
N12   N     N_R   0.944340 0.651450 0.954380 -0.056511
N13   N     N_1   0.566455 0.685505 0.671644 -0.101288
N14   N     N_1   0.764360 0.409252 0.602848 -0.095750
N15   N     N_1   0.247233 0.487791 0.323862 -0.094822
N16   N     N_R   0.960830 0.507850 0.823700 -0.059016
N17   N     N_R   0.039170 0.492150 0.176300 -0.059440
N18   N     N_R   0.811290 0.303410 0.871650 -0.039595
N19   N     N_R   0.188710 0.696590 0.128350 -0.038868
N20   N     N_R   0.205200 0.552990 0.997670 -0.041060
N21   N     N_R   0.794800 0.447010 0.002330 -0.038942
N22   N     N_R   0.814800 0.361830 0.823700 -0.045504
Ni1   Ni    Ni4+2 0.119340 0.493420 0.109960 0.224949
Ni2   Ni    Ni4+2 0.880660 0.506580 0.890040 0.214523
Ni3   Ni    Ni4+2 0.872590 0.372590 0.000000 0.210843
Ni4   Ni    Ni4+2 0.127410 0.627410 0.000000 0.210115

loop_
_geom_bond_atom_site_label_1
_geom_bond_atom_site_label_2
_ccdc_geom_bond_type
C40   N18   A    
C69   H22   S    
C27   C29   A    
C1    C77   A    
C14   C18   A    
C93   H55   S    
C76   C79   A    
C35   H8    S    
C19   C31   S    
C9    C91   S    
C40   H18   S    
N6    N17   A    
C89   H31   S    
C15   C19   A    
C33   H7    S    
C85   N10   T    
C75   N7    A    
C19   C21   A    
C24   C26   A    
C38   C42   A    
C42   H4    S    
C81   H37   S    
C11   C14   A    
C57   C59   A    
C67   C71   A    
N7    Ni3   S    
N17   Ni1   S    
C94   H58   S    
C49   C54   A    
C87   N13   T    
C12   C79   A    
C37   C42   A    
C49   C57   A    
C93   H54   S    
C60   C62   A    
N1    Ni1   S    
N5    Ni4   S    
C61   C63   A    
C53   H13   S    
N4    Ni2   S    
C72   C78   A    
C84   N9    T    
N5    N16   A    
C29   C78   S    
C17   N17   A    
C51   H14   S    
C22   C25   A    
C90   N15   T    
C28   H61   S    
C73   N5    A    
C36   C46   A    
C10   C35   A    
C65   C78   A    
C64   N20   A    
N1    N7    A    
C38   C48   A    
C30   C67   S    
C44   C47   A    
C91   H48   S    
C60   C93   S    
N16   Ni2   S    
C27   H60   S    
C41   N19   A    
C3    C79   S    
C15   H56   S    
C9    C33   A    
C7    C33   A    
C23   C73   A    
C5    C68   S    
N18   Ni3   S    
C83   H46   S    
C52   C54   A    
C91   H49   S    
C11   C82   S    
C40   C45   A    
C57   H9    S    
C21   C85   S    
C50   C53   A    
C64   H20   S    
C62   C66   A    
C92   H52   S    
C76   H30   S    
C64   C67   A    
N8    N12   A    
C80   H36   S    
N6    Ni3   S    
C4    C6    A    
N3    Ni1   S    
C74   N6    A    
C61   C94   S    
C81   H38   S    
C39   C43   A    
C88   N14   T    
C94   H57   S    
N12   Ni2   S    
C45   C69   A    
C55   H10   S    
C50   C56   S    
C8    H12   S    
C70   N2    A    
C8    C35   A    
C82   H40   S    
N20   Ni4   S    
N2    Ni1   S    
C82   H41   S    
C41   C56   A    
C44   H2    S    
C69   N22   A    
C16   N16   A    
C47   C48   A    
C62   H16   S    
C82   H42   S    
C45   C49   S    
C72   H26   S    
C21   C24   A    
C26   H34   S    
C75   C77   A    
C52   C58   A    
C34   C74   A    
N19   Ni4   S    
C2    H32   S    
C74   H28   S    
C20   C22   A    
C8    C68   A    
C16   C23   A    
C73   H27   S    
N3    N20   A    
C13   C15   A    
C75   H29   S    
C13   C26   A    
C76   N8    A    
C10   C61   A    
C18   C32   S    
C17   C34   A    
C86   N11   T    
C83   H43   S    
C46   H62   S    
C39   C47   A    
N18   N22   A    
C63   C68   A    
C80   H35   S    
C54   H11   S    
C92   H51   S    
C28   C31   A    
C17   C90   S    
C43   H3    S    
C41   H19   S    
C38   H5    S    
C3    C5    A    
C25   H23   S    
C12   N12   A    
N22   Ni2   S    
C7    H1    S    
C81   H39   S    
C80   H33   S    
C6    C89   A    
C71   N3    A    
C13   C83   S    
C56   C70   A    
C50   C55   A    
C72   N4    A    
C71   H25   S    
C3    C89   A    
C9    C60   A    
C37   C44   A    
C20   C84   S    
C65   H21   S    
C4    C77   S    
C29   C31   A    
C23   C37   S    
C7    C66   A    
C30   C32   A    
C39   H6    S    
C65   N21   A    
C52   H15   S    
C70   H24   S    
C94   H59   S    
N21   Ni3   S    
C2    C4    A    
C1    N1    A    
C34   C36   S    
C28   C30   A    
C12   C81   S    
C93   H53   S    
C18   C20   A    
C22   C86   S    
C63   H17   S    
C92   H50   S    
C24   C87   S    
C58   C59   A    
N4    N21   A    
N8    Ni4   S    
C27   C32   A    
C10   C92   S    
C2    C5    A    
C46   C48   A    
N2    N19   A    
C6    C66   S    
C51   C59   A    
C14   H45   S    
C55   C58   A    
C16   C88   S    
C1    C80   S    
C11   C25   A    
C36   C43   A    
C51   C53   A    
C83   H44   S    
C91   H47   S    
