data_mof_unit_61670.cif
_audit_creation_date              2012-12-10T17:52:53-0500
_audit_creation_method            fapswitch 2.2
_symmetry_space_group_name_H-M    P1
_symmetry_Int_Tables_number       1
_space_group_crystal_system       triclinic
_cell_length_a                    18.755634
_cell_length_b                    18.710574
_cell_length_c                    18.684823
_cell_angle_alpha                 109.404076
_cell_angle_beta                  109.451843
_cell_angle_gamma                 109.633244
_cell_volume                      5042.88630857

loop_
_atom_site_label
_atom_site_type_symbol
_atom_type_description
_atom_site_fract_x
_atom_site_fract_y
_atom_site_fract_z
_atom_type_partial_charge
C1    C     C_R   0.120337 0.120335 0.500124 0.849063
C2    C     C_R   0.320429 0.323874 0.580041 -0.190411
C3    C     C_R   0.255673 0.260603 0.579978 -0.183443
C4    C     C_R   0.122703 0.002810 0.620262 0.869851
C5    C     C_R   0.186500 0.186676 0.500238 -0.006458
C6    C     C_R   0.742214 0.920015 0.241632 -0.185142
C7    C     C_R   0.677497 0.920050 0.178525 -0.183476
C8    C     C_R   0.686289 0.999883 0.186401 -0.010314
C9    C     C_R   0.758492 0.079668 0.257432 -0.184577
C10   C     C_R   0.821819 0.079641 0.321915 -0.183966
C11   C     C_R   0.813704 0.999820 0.313372 -0.009810
C12   C     C_R   0.264290 0.088623 0.759602 0.102260
C13   C     C_R   0.820866 0.741333 0.498589 -0.184506
C14   C     C_R   0.757535 0.678049 0.499940 -0.184601
C15   C     C_R   0.686162 0.686276 0.499742 -0.008440
C16   C     C_R   0.879746 0.879717 0.499945 0.863914
C17   C     C_R   0.678047 0.757713 0.499449 -0.187422
C18   C     C_R   0.742731 0.822340 0.500792 -0.184860
C19   C     C_R   0.813484 0.813495 0.499736 -0.009067
C20   C     C_R   0.499746 0.879487 0.879372 0.884204
C21   C     C_R   0.380032 0.002833 0.882618 0.872339
C22   C     C_R   0.499909 0.120347 0.120209 0.849483
C23   C     C_R   0.192462 0.007267 0.687284 -0.105634
C24   C     C_R   0.620224 0.999996 0.120309 0.862939
C25   C     C_R   0.499973 0.619836 0.620132 0.862319
C26   C     C_R   0.379869 0.379859 0.500116 0.848249
C27   C     C_R   0.499885 0.379874 0.379762 0.858600
C28   C     C_R   0.879754 0.999895 0.379648 0.859506
C29   C     C_R   0.620153 0.620288 0.499995 0.856917
C30   C     C_R   0.568813 0.833726 0.796532 -0.176829
C31   C     C_R   0.568527 0.769052 0.733410 -0.229490
C32   C     C_R   0.498367 0.683585 0.686159 -0.028755
C33   C     C_R   0.427686 0.660704 0.701625 0.163063
C34   C     C_R   0.183249 0.928062 0.681222 -0.206830
C35   C     C_R   0.428810 0.726389 0.765458 -0.209275
C36   C     C_R   0.499050 0.812412 0.812635 -0.067388
C37   C     C_R   0.503401 0.259842 0.179835 -0.185921
C38   C     C_R   0.501811 0.323011 0.242977 -0.182475
C39   C     C_R   0.499627 0.313700 0.313474 -0.008911
C40   C     C_R   0.278261 0.169564 0.764040 -0.175663
C41   C     C_R   0.497567 0.241215 0.320768 -0.186110
C42   C     C_R   0.496317 0.176669 0.256170 -0.181418
C43   C     C_R   0.499907 0.186586 0.186337 -0.006237
C44   C     C_R   0.346896 0.248648 0.838577 -0.139041
C45   C     C_R   0.244233 0.928074 0.747178 -0.205508
C46   C     C_R   0.402635 0.248695 0.909725 -0.138802
C47   C     C_R   0.391858 0.169650 0.905369 -0.175941
C48   C     C_R   0.324512 0.088650 0.829015 0.102003
C49   C     C_3   0.352184 0.567746 0.653396 -0.431883
C50   C     C_3   0.272496 0.554620 0.580463 -0.819486
C51   C     C_R   0.314643 0.007294 0.820137 -0.107016
C52   C     C_R   0.180623 0.176257 0.420520 -0.183086
C53   C     C_R   0.243918 0.240864 0.420474 -0.184289
C54   C     C_R   0.313846 0.313889 0.500252 -0.002813
H1    H     H_    0.127882 0.865938 0.625705 0.155543
H2    H     H_    0.737117 0.878272 0.501293 0.144679
H3    H     H_    0.623681 0.899951 0.833054 0.163246
H4    H     H_    0.237348 0.172772 0.710010 0.142891
H5    H     H_    0.622545 0.785596 0.720743 0.141382
H6    H     H_    0.374826 0.710192 0.778180 0.158922
H7    H     H_    0.506024 0.267327 0.125561 0.132527
H8    H     H_    0.503839 0.379611 0.237871 0.141285
H9    H     H_    0.495577 0.234176 0.375461 0.144307
H10   H     H_    0.494035 0.119990 0.261246 0.145739
H11   H     H_    0.356417 0.310079 0.841357 0.131441
H12   H     H_    0.260122 0.268499 0.641708 0.132280
H13   H     H_    0.454836 0.310167 0.968265 0.132391
H14   H     H_    0.436026 0.172945 0.962642 0.143199
H15   H     H_    0.237183 0.865948 0.740686 0.157044
H16   H     H_    0.126612 0.119105 0.358781 0.146684
H17   H     H_    0.239322 0.233430 0.358784 0.143694
H18   H     H_    0.374616 0.380983 0.641717 0.135089
H19   H     H_    0.250060 0.599212 0.608075 0.247921
H20   H     H_    0.288592 0.567698 0.532424 0.272521
H21   H     H_    0.218489 0.485909 0.545825 0.248323
H22   H     H_    0.370191 0.519148 0.624776 0.195934
H23   H     H_    0.735984 0.858248 0.235475 0.143243
H24   H     H_    0.334547 0.553237 0.700155 0.200826
H25   H     H_    0.621580 0.858299 0.123108 0.142873
H26   H     H_    0.764904 0.141455 0.263469 0.144139
H27   H     H_    0.877553 0.141403 0.377509 0.143791
H28   H     H_    0.876083 0.734967 0.498152 0.140799
H29   H     H_    0.763315 0.622286 0.499789 0.143539
H30   H     H_    0.622721 0.763961 0.499680 0.143829
O1    O     O_R   0.091590 0.143330 0.551700 -0.632740
O2    O     O_R   0.551730 0.591680 0.643420 -0.623974
O3    O     O_R   0.356670 0.408480 0.448390 -0.619022
O4    O     O_R   0.091620 0.039900 0.448280 -0.619373
O5    O     O_R   0.460120 0.408460 0.551810 -0.623152
O6    O     O_R   0.448270 0.408490 0.356760 -0.621575
O7    O     O_R   0.551720 0.408480 0.460170 -0.621715
O8    O     O_R   0.539880 0.591710 0.448370 -0.623762
O9    O     O_R   0.643330 0.591700 0.551790 -0.620737
O10   O     O_R   0.091610 0.051730 0.643330 -0.623124
O11   O     O_R   0.091640 0.948310 0.539920 -0.619845
O12   O     O_R   0.551760 0.960180 0.908450 -0.621957
O13   O     O_R   0.908380 0.960100 0.551720 -0.617499
O14   O     O_R   0.908410 0.856670 0.448300 -0.625472
O15   O     O_R   0.908360 0.051690 0.460080 -0.622215
O16   O     O_R   0.908390 0.948270 0.356670 -0.622124
O17   O     O_R   0.448330 0.856720 0.908450 -0.632200
O18   O     O_R   0.356660 0.948290 0.908410 -0.619556
O19   O     O_R   0.460090 0.051750 0.908420 -0.623591
O20   O     O_R   0.448250 0.039900 0.091630 -0.619452
O21   O     O_R   0.551680 0.143360 0.091630 -0.632076
O22   O     O_R   0.539910 0.948330 0.091670 -0.623472
O23   O     O_R   0.643340 0.051790 0.091670 -0.620892
O24   O     O_R   0.448280 0.591700 0.540000 -0.616467
Zn1   Zn    Zn3+2 0.999980 0.069060 0.569050 0.952540
Zn2   Zn    Zn3+2 0.000020 0.930940 0.430950 0.954329
Zn3   Zn    Zn3+2 0.430940 0.930960 0.000040 0.950321
Zn4   Zn    Zn3+2 0.569060 0.069120 0.000040 0.951772
Zn5   Zn    Zn3+2 0.430920 0.500100 0.431040 0.952369
Zn6   Zn    Zn3+2 0.569080 0.500080 0.569140 0.955159

loop_
_geom_bond_atom_site_label_1
_geom_bond_atom_site_label_2
_ccdc_geom_bond_type
O16   Zn2   S    
O14   Zn2   S    
C41   C42   A    
C35   C36   A    
C12   C48   A    
C44   H11   S    
C7    C8    A    
C39   C41   A    
C53   C54   A    
C26   O5    A    
O12   Zn4   S    
C12   C23   A    
C1    C5    S    
O1    Zn1   S    
C50   H20   S    
C30   C31   A    
C16   O13   A    
C45   C51   A    
C33   C49   S    
O15   Zn1   S    
C30   H3    S    
C22   O20   A    
C49   H24   S    
C27   O6    A    
C18   C19   A    
O23   Zn4   S    
O6    Zn5   S    
C31   H5    S    
C8    C24   S    
C46   C47   A    
C48   C51   A    
C22   C43   S    
C27   C39   S    
C26   O3    A    
C5    C52   A    
C27   O7    A    
C9    C10   A    
C18   H2    S    
O4    Zn2   S    
C28   O16   A    
C1    O4    A    
C20   O12   A    
C34   H1    S    
C13   C14   A    
O18   Zn3   S    
C14   H29   S    
C2    H18   S    
C26   C54   S    
C44   C46   A    
C15   C29   S    
O22   Zn3   S    
C1    O1    A    
C40   H4    S    
C13   C19   A    
C45   H15   S    
C2    C54   A    
C50   H19   S    
C6    C11   A    
C34   C45   A    
C4    C23   S    
C8    C9    A    
C6    H23   S    
C20   O17   A    
C13   H28   S    
C35   H6    S    
C9    H26   S    
C20   C36   S    
O24   Zn5   S    
C12   C40   A    
C37   C38   A    
C4    O11   A    
O13   Zn1   S    
C47   C48   A    
C23   C34   A    
C17   C18   A    
C49   H22   S    
C24   O23   A    
C4    O10   A    
C21   O18   A    
C28   O15   A    
O21   Zn4   S    
C37   C43   A    
C3    H12   S    
C24   O22   A    
C42   C43   A    
C41   H9    S    
C53   H17   S    
C42   H10   S    
C47   H14   S    
C21   C51   S    
C52   C53   A    
C7    H25   S    
O8    Zn5   S    
C15   C17   A    
O5    Zn6   S    
O10   Zn1   S    
C31   C32   A    
C3    C5    A    
O11   Zn2   S    
O20   Zn3   S    
C37   H7    S    
C6    C7    A    
O17   Zn3   S    
C22   O21   A    
C10   H27   S    
O7    Zn6   S    
C30   C36   A    
O2    Zn6   S    
C17   H30   S    
C32   C33   A    
C2    C3    A    
C46   H13   S    
C50   H21   S    
C29   O9    A    
C16   O14   A    
C38   C39   A    
C11   C28   S    
C25   C32   S    
C16   C19   S    
C25   O2    A    
C33   C35   A    
O9    Zn6   S    
O3    Zn5   S    
C52   H16   S    
C10   C11   A    
C21   O19   A    
C40   C44   A    
C49   C50   S    
C14   C15   A    
O19   Zn4   S    
C29   O8    A    
C25   O24   A    
C38   H8    S    
