data_mof_unit_27671.cif
_audit_creation_date              2013-03-05T15:52:20-0500
_audit_creation_method            fapswitch 2.2
_symmetry_space_group_name_H-M    P1
_symmetry_Int_Tables_number       1
_space_group_crystal_system       triclinic
_cell_length_a                    10.702064
_cell_length_b                    10.691584
_cell_length_c                    17.071609
_cell_angle_alpha                 80.652171
_cell_angle_beta                  99.16288
_cell_angle_gamma                 118.540326
_cell_volume                      1685.68294949

loop_
_atom_site_label
_atom_site_type_symbol
_atom_site_description
_atom_site_fract_x
_atom_site_fract_y
_atom_site_fract_z
_atom_type_partial_charge
O1    O     O_R   0.754020 0.497590 0.609930 -0.487547
O2    O     O_R   0.481420 0.271390 0.600630 -0.448359
C1    C     C_R   0.361298 0.229627 0.627502 0.574893
O3    O     O_R   0.263810 0.254550 0.589590 -0.510988
O4    O     O_R   0.300820 0.531200 0.560890 -0.495681
C2    C     C_R   0.369454 0.655470 0.585626 0.568050
O5    O     O_R   0.491480 0.744020 0.564270 -0.452872
O6    O     O_R   0.726290 0.693800 0.583010 -0.488683
C3    C     C_R   0.777116 0.619179 0.626805 0.555544
O7    O     O_R   0.747830 0.500190 0.434090 -0.460999
O8    O     O_R   0.475680 0.273800 0.437630 -0.513577
C4    C     C_R   0.351266 0.224946 0.400668 0.553442
O9    O     O_R   0.257620 0.257160 0.413750 -0.456687
O10   O     O_R   0.295080 0.533620 0.397890 -0.446001
C5    C     C_R   0.365811 0.653950 0.360724 0.592660
O11   O     O_R   0.485280 0.746620 0.388440 -0.465910
O12   O     O_R   0.720550 0.696220 0.420010 -0.442184
C6    C     C_R   0.705605 0.586479 0.389082 0.572378
Cr1   Cr    Cr6+3 0.608440 0.389080 0.519680 1.112259
Cr2   Cr    Cr6+3 0.288640 0.400090 0.490760 1.136149
Cr3   Cr    Cr6+3 0.602940 0.710800 0.489510 1.136570
O13   O     O_3   0.500010 0.499990 0.499980 -0.337443
C7    C     C_R   0.282595 0.734110 0.799684 -0.036293
C8    C     C_R   0.191876 0.605090 0.766873 0.006060
C9    C     C_R   0.208790 0.584199 0.692317 -0.011832
C10   C     C_R   0.383498 0.832401 0.672378 0.208962
C11   C     C_R   0.368329 0.851548 0.749018 -0.127745
C12   C     C_3   0.157662 0.454989 0.799549 -0.236047
C13   C     C_3   0.177050 0.432214 0.717803 -0.242897
C14   C     C_R   0.315135 0.692394 0.647250 0.032116
H1    H     H_    0.430335 0.956114 0.770588 0.163028
H2    H     H_    0.045525 0.391910 0.815170 0.166124
H3    H     H_    0.239811 0.448925 0.846736 0.159074
H4    H     H_    0.271060 0.414152 0.717874 0.139983
H5    H     H_    0.076374 0.355292 0.686459 0.179129
C15   C     C_1   0.823438 0.657222 0.705892 -0.025048
C16   C     C_1   0.851401 0.684964 0.773618 -0.026327
C17   C     C_1   0.344980 0.187499 0.709724 -0.035819
C18   C     C_1   0.320512 0.159496 0.778099 -0.055162
C19   C     C_1   0.335849 0.663693 0.277732 0.044084
C20   C     C_1   0.322748 0.672978 0.207029 0.004086
C21   C     C_R   0.792300 0.647724 0.146434 -0.019473
C22   C     C_R   0.770382 0.522391 0.195624 -0.026112
C23   C     C_R   0.737867 0.503016 0.272425 -0.091624
C24   C     C_R   0.721254 0.724358 0.250310 0.200132
C25   C     C_R   0.747994 0.739084 0.170083 0.203605
C26   C     C_3   0.859111 0.445599 0.215444 0.162541
C27   C     C_3   0.824418 0.424153 0.300853 0.142663
C28   C     C_R   0.725865 0.608503 0.304204 -0.014966
H6    H     H_    0.974418 0.514312 0.207229 0.180763
H7    H     H_    0.759710 0.310690 0.323670 0.170754
C29   C     C_R   0.320771 0.160909 0.161710 0.004969
C30   C     C_R   0.223415 0.189998 0.190650 -0.041023
C31   C     C_R   0.228346 0.194634 0.270489 0.038011
C32   C     C_R   0.436633 0.157583 0.295878 -0.150435
C33   C     C_R   0.430247 0.148171 0.214758 -0.124874
C34   C     C_3   0.062694 0.109557 0.184174 -0.158917
C35   C     C_3   0.070907 0.113827 0.272748 0.154521
C36   C     C_R   0.331252 0.175812 0.324230 -0.008380
H8    H     H_    0.520668 0.147293 0.336360 0.166832
H9    H     H_    0.502833 0.118955 0.194960 0.225534
H10   H     H_    0.020569 0.998689 0.168586 0.164015
H11   H     H_    0.013042 0.172784 0.147106 0.232879
H12   H     H_    0.035010 0.007236 0.307846 0.165084
O14   O     O_R   0.163320 0.092900 0.874450 -0.504593
O15   O     O_R   0.934650 0.822080 0.882840 -0.484619
C37   C     C_R   0.892290 0.702177 0.855723 0.547269
O16   O     O_R   0.915520 0.604140 0.893670 -0.510659
O17   O     O_R   0.191760 0.638110 0.923230 -0.497742
C38   C     C_R   0.282888 0.749956 0.882973 0.551132
O18   O     O_R   0.406180 0.826930 0.920660 -0.475926
O19   O     O_R   0.358620 0.062870 0.901950 -0.511730
C39   C     C_R   0.284188 0.114051 0.857655 0.533061
O20   O     O_R   0.163910 0.085460 0.050210 -0.514453
O21   O     O_R   0.935200 0.815170 0.045770 -0.461101
C40   C     C_R   0.880673 0.688086 0.081065 0.568384
O22   O     O_R   0.916120 0.596690 0.069430 -0.492854
O23   O     O_R   0.192310 0.631200 0.086170 -0.502812
C41   C     C_R   0.312500 0.700892 0.123904 0.567614
O24   O     O_R   0.406770 0.819480 0.096420 -0.430115
O25   O     O_R   0.359170 0.055960 0.064880 -0.485868
C42   C     C_R   0.284335 0.106230 0.085353 0.549432
Cr4   Cr    Cr6+3 0.052530 0.947560 0.964210 1.073187
Cr5   Cr    Cr6+3 0.059970 0.626800 0.992920 1.070043
Cr6   Cr    Cr6+3 0.373320 0.938440 0.995370 1.117612
O26   O     O_3   0.161940 0.837600 0.984160 -0.311157
Cl1   Cl    Cl    0.499119 0.984620 0.614224 -0.558818
Cl2   Cl    Cl    0.779589 0.286101 0.166407 -0.530238
N1    N     N_R   0.951873 0.501980 0.354331 0.095425
O27   O     O_R   0.981856 0.434451 0.418973 -0.266545
O28   O     O_R   0.035176 0.638195 0.338541 -0.379487
Cl3   Cl    Cl    0.001644 0.221291 0.299174 -0.464509
Cl4   Cl    Cl    0.703382 0.864491 0.280911 -0.469081
Cl5   Cl    Cl    0.731776 0.874809 0.101333 -0.497840

loop_
_geom_bond_atom_site_label_1
_geom_bond_atom_site_label_2
_geom_bond_distance
_ccdc_geom_bond_type
C23   C28   1.393629 A    
C23   C27   1.508186 S    
C32   C33   1.393248 A    
O11   Cr3   2.064837 S    
C32   C36   1.399528 A    
O20   Cr4   2.053435 S    
C22   C23   1.367925 A    
C24   Cl4   1.764689 S    
O19   Cr6   1.941369 S    
C34   H10   1.110295 S    
O4    Cr2   1.932927 S    
C24   C25   1.412170 A    
O8    Cr1   1.937395 S    
C10   C11   1.402319 A    
C12   C13   1.516829 S    
Cr5   O26   1.971065 S    
C17   C18   1.195687 T    
O14   Cr4   2.052595 S    
C5    O11   1.260715 A    
O14   C39   1.274411 A    
C21   C25   1.404846 A    
O15   Cr4   1.936760 S    
O18   Cr6   2.051634 S    
C4    C36   1.432074 S    
C27   H7    1.110211 S    
C1    C17   1.414619 S    
C10   Cl1   1.762794 S    
C3    C15   1.416553 S    
C7    C8    1.399019 A    
C38   O18   1.302404 A    
C7    C11   1.402012 A    
N1    O28   1.302612 A    
O15   C37   1.278213 A    
C32   H8    1.081877 S    
C9    C13   1.495030 S    
C7    C38   1.458351 S    
O20   C42   1.262461 A    
C34   H11   1.112193 S    
C26   H6    1.112454 S    
C31   C36   1.387475 A    
C35   H12   1.112870 S    
O1    Cr1   2.058180 S    
C11   H1    1.082976 S    
C37   O16   1.247901 A    
O16   Cr5   2.064132 S    
O10   Cr2   1.939594 S    
C12   H2    1.111884 S    
Cr1   O13   1.981630 S    
O1    C3    1.275133 A    
C8    C9    1.380955 A    
C30   C34   1.505730 S    
O23   C41   1.265263 A    
O6    C3    1.258078 A    
O22   Cr5   2.051813 S    
Cr6   O26   1.978672 S    
C13   H4    1.111176 S    
O25   C42   1.270410 A    
O21   C40   1.279887 A    
O24   Cr6   2.060913 S    
C26   C27   1.516212 S    
C25   Cl5   1.770843 S    
C24   C28   1.434214 A    
O7    Cr1   2.051463 S    
O12   C6    1.294610 A    
C40   O22   1.256778 A    
C29   C42   1.435569 S    
C19   C20   1.186119 T    
C2    C14   1.466134 S    
Cr2   O13   1.978673 S    
C12   H3    1.112650 S    
C10   C14   1.422017 A    
C27   N1    1.466993 S    
C21   C22   1.397365 A    
C1    O3    1.254191 A    
C29   C30   1.396383 A    
C31   C35   1.485176 S    
C9    C14   1.398954 A    
C15   C16   1.196130 T    
O9    Cr2   2.050053 S    
O2    Cr1   1.933889 S    
O10   C5    1.260126 A    
C8    C12   1.494465 S    
O19   C39   1.263342 A    
O6    Cr3   1.946144 S    
C20   C41   1.399646 S    
O8    C4    1.272307 A    
C30   C31   1.363636 A    
C2    O5    1.262050 A    
C13   H5    1.111840 S    
C21   C40   1.454573 S    
C26   Cl2   1.784138 S    
O2    C1    1.278763 A    
O17   Cr5   1.934960 S    
O5    Cr3   2.053016 S    
O21   Cr4   1.933167 S    
C34   C35   1.507486 S    
O4    C2    1.278308 A    
C35   Cl3   1.778157 S    
O7    C6    1.305080 A    
C16   C37   1.414753 S    
C18   C39   1.415995 S    
O17   C38   1.298268 A    
O12   Cr3   1.933767 S    
C5    C19   1.400106 S    
C41   O24   1.257277 A    
O3    Cr2   2.057506 S    
O23   Cr5   1.945502 S    
Cr4   O26   1.981791 S    
C4    O9    1.264523 A    
C33   H9    1.079367 S    
N1    O27   1.300686 A    
Cr3   O13   1.970990 S    
C22   C26   1.497566 S    
O25   Cr6   1.932148 S    
C29   C33   1.409202 A    
C6    C28   1.463741 S    
