data_mof_unit_18144.cif
_audit_creation_date              2012-12-11T16:31:31-0500
_audit_creation_method            fapswitch 2.2
_symmetry_space_group_name_H-M    P1
_symmetry_Int_Tables_number       1
_space_group_crystal_system       triclinic
_cell_length_a                    6.970696
_cell_length_b                    18.46144
_cell_length_c                    20.070499
_cell_angle_alpha                 68.356552
_cell_angle_beta                  90.099615
_cell_angle_gamma                 90.741293
_cell_volume                      2400.54165911

loop_
_atom_site_label
_atom_site_type_symbol
_atom_type_description
_atom_site_fract_x
_atom_site_fract_y
_atom_site_fract_z
_atom_type_partial_charge
O1    O     O_R   0.488990 0.443920 0.942160 -0.530344
O2    O     O_R   0.823840 0.406530 0.087600 -0.539476
O3    O     O_R   0.999650 0.556080 0.057840 -0.537875
C1    C     C_R   0.654445 0.383719 0.115099 0.686055
O4    O     O_R   0.818390 0.434590 0.944530 -0.532368
O5    O     O_R   0.994160 0.584350 0.913750 -0.532372
C2    C     C_R   0.649615 0.419677 0.924752 0.721405
O6    O     O_R   0.494480 0.415650 0.086250 -0.538713
O7    O     O_3   0.662600 0.549100 0.990070 -0.371353
V1    V     V_3+5 0.935320 0.490890 0.001840 1.451511
O8    O     O_R   0.324240 0.593470 0.912400 -0.541436
C3    C     C_R   0.155849 0.618320 0.886667 0.694299
O9    O     O_R   0.329690 0.565410 0.055470 -0.542024
C4    C     C_R   0.161581 0.579506 0.075891 0.712384
V2    V     V_3+5 0.435990 0.509110 0.998160 1.435361
O10   O     O_3   0.158840 0.450900 0.009930 -0.364277
C5    C     C_3   0.951713 0.687336 0.255953 0.189725
C6    C     C_3   0.315425 0.692659 0.258026 -0.326458
C7    C     C_3   0.306401 0.740964 0.307181 -0.323379
H1    H     H_    0.940846 0.698598 0.362325 0.168543
H2    H     H_    0.448719 0.708466 0.225085 0.136982
H3    H     H_    0.323865 0.629616 0.291710 0.150664
H4    H     H_    0.306705 0.700764 0.364334 0.148087
H5    H     H_    0.436968 0.778691 0.298457 0.135380
C8    C     C_1   0.111651 0.877083 0.376366 -0.210773
C9    C     C_3   0.137468 0.707973 0.208267 0.223295
C10   C     C_3   0.946211 0.737026 0.304614 -0.313681
C11   C     C_3   0.124168 0.791953 0.291557 0.244305
C12   C     C_3   0.127362 0.845618 0.211238 -0.344927
C13   C     C_3   0.134844 0.796681 0.162648 -0.384523
C14   C     C_1   0.117361 0.838944 0.338208 -0.089666
C15   C     C_1   0.147339 0.662721 0.160008 -0.113401
C16   C     C_1   0.154200 0.625198 0.121336 -0.187962
H6    H     H_    0.008339 0.810356 0.126395 0.135284
H7    H     H_    0.265097 0.813607 0.128047 0.156046
H8    H     H_    0.997335 0.882572 0.198154 0.137160
H9    H     H_    0.826157 0.703041 0.219059 0.090132
H10   H     H_    0.812951 0.772024 0.293280 0.099317
H11   H     H_    0.254350 0.885539 0.199953 0.149591
C17   C     C_R   0.065613 0.770571 0.883639 -0.137382
C18   C     C_R   0.005012 0.840900 0.885529 -0.171635
C19   C     C_R   0.978561 0.903770 0.822318 -0.160670
C20   C     C_R   0.019470 0.898690 0.755831 0.258652
C21   C     C_R   0.078245 0.826218 0.751716 0.017178
C22   C     C_R   0.098174 0.761068 0.817819 0.030686
C23   C     C_R   0.109517 0.815543 0.685042 -0.192566
C24   C     C_R   0.139409 0.738615 0.685804 0.029560
C25   C     C_R   0.171449 0.676440 0.752429 0.011047
C26   C     C_R   0.148181 0.687136 0.817978 -0.137972
C27   C     C_R   0.130113 0.719794 0.622680 0.241766
C28   C     C_R   0.172893 0.644503 0.626028 -0.218753
C29   C     C_R   0.209018 0.585056 0.691268 -0.002228
C30   C     C_R   0.213339 0.601758 0.753240 -0.209413
H12   H     H_    0.083244 0.723201 0.934675 0.097353
H13   H     H_    0.976199 0.846425 0.936427 0.120586
H14   H     H_    0.924876 0.957495 0.824760 0.104077
H15   H     H_    0.158670 0.630893 0.578104 0.154410
H16   H     H_    0.241498 0.554158 0.803141 0.158378
H17   H     H_    0.408133 0.464685 0.305560 0.109414
C31   C     C_R   0.764525 0.229030 0.125067 -0.131784
C32   C     C_R   0.819810 0.155652 0.128053 -0.124420
C33   C     C_R   0.810993 0.092206 0.192496 -0.127677
C34   C     C_R   0.746410 0.101610 0.254425 -0.142041
C35   C     C_R   0.691066 0.175591 0.253364 0.068836
C36   C     C_R   0.700710 0.240743 0.187257 0.070091
C37   C     C_R   0.622892 0.184898 0.316331 -0.184540
C38   C     C_R   0.564661 0.259531 0.313036 0.067178
C39   C     C_R   0.574206 0.324686 0.246921 0.069977
C40   C     C_R   0.642729 0.315397 0.183985 -0.183351
C41   C     C_R   0.500242 0.271183 0.375172 -0.127854
C42   C     C_R   0.443650 0.344453 0.372082 -0.110147
C43   C     C_R   0.451901 0.407853 0.307610 -0.133020
C44   C     C_R   0.517872 0.398591 0.245789 -0.140278
H18   H     H_    0.770798 0.276054 0.073288 0.102879
H19   H     H_    0.868439 0.147900 0.079937 0.104555
H20   H     H_    0.852946 0.035191 0.194445 0.105995
H21   H     H_    0.739024 0.049999 0.302781 0.106320
H22   H     H_    0.494101 0.224150 0.426950 0.110280
H23   H     H_    0.394149 0.352139 0.420121 0.124330
H24   H     H_    0.525051 0.450202 0.197430 0.109240
O11   O     O_R   0.770890 0.084490 0.414040 -0.537048
O12   O     O_R   0.445980 0.065450 0.555510 -0.544555
O13   O     O_R   0.270670 0.915620 0.586180 -0.545651
C45   C     C_R   0.614876 0.078549 0.576772 0.707766
O14   O     O_R   0.441480 0.093500 0.412450 -0.538792
O15   O     O_R   0.266140 0.943870 0.442100 -0.537434
C46   C     C_R   0.611003 0.116509 0.385179 0.692513
O16   O     O_R   0.775410 0.056240 0.558120 -0.526249
O17   O     O_3   0.602660 0.950990 0.510100 -0.376011
V3    V     V_3+5 0.329740 0.009100 0.498130 1.426260
O18   O     O_R   0.936120 0.934420 0.444240 -0.539519
C47   C     C_R   0.104196 0.922332 0.422258 0.750389
O19   O     O_R   0.940610 0.906370 0.587310 -0.519352
C48   C     C_R   0.107871 0.883470 0.615256 0.864976
V4    V     V_3+5 0.829110 0.990690 0.501470 1.434332
O20   O     O_3   0.106080 0.049010 0.489880 -0.367768
C49   C     C_3   0.854155 0.221443 0.726706 -0.223126
C50   C     C_3   0.527268 0.276311 0.681209 -0.343481
C51   C     C_3   0.530056 0.323961 0.730576 -0.388261
H25   H     H_    0.894592 0.335163 0.735491 0.140375
H26   H     H_    0.376938 0.263016 0.671561 0.192400
H27   H     H_    0.586509 0.312546 0.627766 0.194797
H28   H     H_    0.587404 0.383721 0.700496 0.189263
H29   H     H_    0.381808 0.330584 0.745265 0.165830
C52   C     C_1   0.643686 0.371426 0.881475 -0.151042
C53   C     C_3   0.642411 0.199857 0.714507 0.112477
C54   C     C_3   0.855549 0.275212 0.772183 0.121339
C55   C     C_3   0.649320 0.283057 0.799296 0.190375
C56   C     C_3   0.554462 0.201539 0.838113 -0.376534
C57   C     C_3   0.559620 0.150912 0.790609 0.170149
C58   C     C_1   0.646076 0.331242 0.845081 0.003259
C59   C     C_1   0.632922 0.155160 0.665946 0.017992
C60   C     C_1   0.624597 0.120548 0.625023 -0.171733
H30   H     H_    0.659002 0.101515 0.816107 0.102149
H31   H     H_    0.618007 0.168961 0.890880 0.126792
H32   H     H_    0.927754 0.166124 0.757765 0.101583
H33   H     H_    0.405698 0.209900 0.851977 0.155387
C61   C     C_2   0.210912 0.502856 0.697921 0.742420
O21   O     O_2   0.228728 0.485364 0.645130 -0.560209
O22   O     O_R   0.180257 0.445145 0.765475 -0.672936
H34   H     H_    0.147679 0.393189 0.762863 0.289778
N1    N     N_2   0.987468 0.966074 0.693899 -0.549422
H35   H     H_    0.851169 0.987283 0.693076 0.246397
C62   C     C_3   0.131916 0.026605 0.680968 -0.434095
H36   H     H_    0.114313 0.070558 0.626086 0.237231
H37   H     H_    0.278116 0.001916 0.685773 0.185329
H38   H     H_    0.114812 0.056158 0.719595 0.204310
N2    N     N_2   0.044812 0.770404 0.558437 -0.537898
H39   H     H_    0.111808 0.768379 0.513435 0.238834
C63   C     C_3   0.839402 0.758075 0.556129 -0.487371
H40   H     H_    0.779648 0.799918 0.505558 0.199979
H41   H     H_    0.767297 0.766889 0.601859 0.203666
H42   H     H_    0.807351 0.698128 0.558199 0.177599
N3    N     N_2   0.939053 0.604386 0.300286 -0.509113
H43   H     H_    0.009360 0.567495 0.280805 0.263977
C64   C     C_3   0.749090 0.575192 0.326521 -0.574384
H44   H     H_    0.758907 0.514431 0.365731 0.216673
H45   H     H_    0.656789 0.575433 0.281271 0.181718
H46   H     H_    0.682605 0.611224 0.353759 0.205378
C65   C     C_2   0.964670 0.257726 0.656717 0.703148
O23   O     O_2   0.066030 0.216636 0.636021 -0.584895
O24   O     O_R   0.947376 0.336938 0.614847 -0.660249
H47   H     H_    0.027957 0.353287 0.569561 0.307894
N4    N     N_2   0.370646 0.118356 0.786776 -0.504764
H48   H     H_    0.265026 0.159075 0.767118 0.274545
C66   C     C_3   0.312217 0.052714 0.849941 -0.597160
H49   H     H_    0.160703 0.037094 0.844589 0.189766
H50   H     H_    0.323755 0.067378 0.898723 0.192418
H51   H     H_    0.402929 0.001638 0.856111 0.213021
N5    N     N_2   0.004613 0.254078 0.826891 -0.519321
H52   H     H_    0.137313 0.256964 0.804224 0.237841
C67   C     C_3   0.983128 0.187620 0.893283 -0.532164
H53   H     H_    0.122885 0.174735 0.921500 0.180933
H54   H     H_    0.935847 0.134985 0.883206 0.178275
H55   H     H_    0.884005 0.201682 0.929782 0.201428

loop_
_geom_bond_atom_site_label_1
_geom_bond_atom_site_label_2
_ccdc_geom_bond_type
C8    C14   T    
C51   H28   S    
O12   V3    S    
C9    C15   S    
O19   C48   A    
C41   H22   S    
C6    H2    S    
C18   C19   A    
O2    C1    A    
V4    O20   S    
C6    C9    S    
C1    O6    A    
N2    H39   S    
C4    C16   S    
C42   H23   S    
C3    C26   S    
C56   H33   S    
C53   C59   S    
C32   H19   S    
C51   C55   S    
C12   H8    S    
C45   C60   S    
C13   H7    S    
C5    C9    S    
C11   C12   S    
C65   O24   S    
C53   C57   S    
O11   V4    S    
C10   H10   S    
V2    O10   S    
C55   C56   S    
C6    C7    S    
C61   O21   D    
C1    C40   S    
C19   H14   S    
C54   N5    S    
O8    V2    S    
C18   H13   S    
C39   C40   A    
H25   C54   S    
C54   C55   S    
C2    C52   S    
C41   C42   A    
C28   H15   S    
O7    V1    S    
C57   H30   S    
C49   C65   S    
H17   C43   S    
C51   H29   S    
C52   C58   T    
O16   V4    S    
O19   V4    S    
C6    H3    S    
O9    C4    A    
C33   H20   S    
C25   C30   A    
C64   H46   S    
C59   C60   T    
C21   C23   A    
C24   C27   A    
C66   H50   S    
O14   C46   A    
C17   C22   A    
C13   H6    S    
C38   C39   A    
C5    C10   S    
C65   O23   D    
C64   H45   S    
O15   V3    S    
O17   V3    S    
O18   C47   A    
O4    C2    A    
C7    H4    S    
C64   H44   S    
N3    C64   S    
C39   C44   A    
C50   H27   S    
O13   C48   A    
C28   C29   A    
C31   C32   A    
C35   C37   A    
O17   V4    S    
C63   H41   S    
C20   C21   A    
C12   C13   S    
C66   H51   S    
C24   C25   A    
C23   C48   S    
C67   H55   S    
C22   C26   A    
O14   V3    S    
C12   H11   S    
C33   C34   A    
C27   C28   A    
O22   H34   S    
C5    H9    S    
C29   C30   A    
C49   H32   S    
C57   N4    S    
C7    C11   S    
C20   N1    S    
O11   C46   A    
O3    C4    A    
C62   H38   S    
O1    V2    S    
C49   C53   S    
N4    C66   S    
C17   C18   A    
C67   H54   S    
C31   C36   A    
C9    C13   S    
O6    V2    S    
O12   C45   A    
O9    V2    S    
N5    C67   S    
C63   H42   S    
C27   N2    S    
C19   C20   A    
N1    C62   S    
O2    V1    S    
C37   C46   S    
C21   C22   A    
C62   H37   S    
C66   H49   S    
C34   H21   S    
O13   V3    S    
C23   C24   A    
C25   C26   A    
C8    C47   S    
O1    C2    A    
C7    H5    S    
C11   C14   S    
C45   O16   A    
C43   C44   A    
N2    C63   S    
O5    V1    S    
C30   H16   S    
V3    O20   S    
N3    H43   S    
H1    C10   S    
C50   H26   S    
C17   H12   S    
C50   C53   S    
C55   C58   S    
N4    H48   S    
C38   C41   A    
C35   C36   A    
C63   H40   S    
O7    V2    S    
C42   C43   A    
O3    V1    S    
O15   C47   A    
C56   C57   S    
C15   C16   T    
O5    C3    A    
C36   C40   A    
C31   H18   S    
C44   H24   S    
C37   C38   A    
C32   C33   A    
C61   O22   S    
C56   H31   S    
O18   V4    S    
C34   C35   A    
C49   C54   S    
O4    V1    S    
C67   H53   S    
C50   C51   S    
C5    N3    S    
O24   H47   S    
N5    H52   S    
V1    O10   S    
N1    H35   S    
O8    C3    A    
C62   H36   S    
C10   C11   S    
C29   C61   S    
