data_mof_unit_22195.cif
_audit_creation_date              2012-10-26T19:35:36-0400
_audit_creation_method            fapswitch 2.2
_symmetry_space_group_name_H-M    P1
_symmetry_Int_Tables_number       1
_space_group_crystal_system       triclinic
_cell_length_a                    15.856653
_cell_length_b                    10.840491
_cell_length_c                    9.591647
_cell_angle_alpha                 90.220034
_cell_angle_beta                  89.070349
_cell_angle_gamma                 91.399073
_cell_volume                      1648.02739106

loop_
_atom_site_label
_atom_site_type_symbol
_atom_type_description
_atom_site_fract_x
_atom_site_fract_y
_atom_site_fract_z
_atom_type_partial_charge
C1    C     C_R   0.500630 0.262395 0.499920 0.552056
C2    C     C_R   0.497247 0.128660 0.500300 -0.005255
C3    C     C_R   0.482638 0.062700 0.376225 -0.145729
C4    C     C_R   0.339860 0.499889 0.500690 0.545804
C5    C     C_R   0.480376 0.934375 0.376512 -0.159051
C6    C     C_R   0.494688 0.870329 0.500413 0.002353
C7    C     C_R   0.503602 0.936201 0.624589 0.008295
C8    C     C_3   0.573243 0.929409 0.726807 -0.271635
C9    C     C_3   0.575173 0.069504 0.727385 -0.126725
C10   C     C_R   0.545384 0.587377 0.072559 0.123792
C11   C     C_R   0.448278 0.421747 0.075970 0.099030
C12   C     C_3   0.082583 0.499565 0.495374 0.011449
C13   C     C_R   0.445784 0.423853 0.926788 0.367489
C14   C     C_R   0.545733 0.586953 0.925742 0.101911
C15   C     C_3   0.638843 0.609416 0.918073 -0.264345
C16   C     C_R   0.499566 0.737379 0.500103 0.543676
C17   C     C_3   0.638410 0.610412 0.076350 -0.265296
C18   C     C_R   0.660038 0.500684 0.499018 0.536884
C19   C     C_3   0.968969 0.383947 0.494403 -0.135200
C20   C     C_3   0.028234 0.440798 0.380173 -0.117266
C21   C     C_1   0.249957 0.499429 0.501164 -0.045528
C22   C     C_1   0.749733 0.501699 0.496575 -0.032215
C23   C     C_3   0.972514 0.559180 0.605531 0.314448
C24   C     C_3   0.024884 0.441922 0.609681 -0.096917
C25   C     C_1   0.549908 0.120803 0.863368 0.243350
C26   C     C_1   0.398693 0.330779 0.151736 0.284804
C27   C     C_3   0.312088 0.372740 0.846625 0.018611
C28   C     C_3   0.251958 0.301413 0.945818 -0.286499
C29   C     C_3   0.161800 0.299083 0.893373 -0.497965
C30   C     C_3   0.004687 0.667631 0.808187 0.007474
C31   C     C_3   0.005468 0.595939 0.945228 -0.265857
C32   C     C_3   0.081233 0.634768 0.032904 -0.490479
C33   C     C_3   0.916934 0.501772 0.493174 0.069463
C34   C     C_3   0.030687 0.618055 0.492960 -0.101545
C35   C     C_3   0.974508 0.558687 0.378642 -0.141241
C36   C     C_1   0.174327 0.499120 0.498805 -0.068552
C37   C     C_1   0.825295 0.502225 0.494700 -0.030819
C38   C     C_R   0.504394 0.063896 0.625393 0.042427
Cu1   Cu    Cu3+1 0.500000 0.499980 0.640670 0.989438
Cu2   Cu    Cu3+1 0.500000 0.500020 0.359330 0.960701
H1    H     H_    0.052831 0.391294 0.287085 0.114408
H2    H     H_    0.056892 0.713960 0.493493 0.098654
H3    H     H_    0.044689 0.392877 0.703911 0.093644
H4    H     H_    0.476135 0.109457 0.277893 0.181599
H5    H     H_    0.471009 0.885872 0.278820 0.144966
H6    H     H_    0.551340 0.885593 0.826176 0.141099
H7    H     H_    0.292401 0.348560 0.739317 0.182238
H8    H     H_    0.303567 0.474087 0.860475 0.111296
H9    H     H_    0.272991 0.205020 0.957847 0.204546
H10   H     H_    0.250440 0.348417 0.048543 0.162214
H11   H     H_    0.140631 0.395084 0.881244 0.142080
H12   H     H_    0.631339 0.889469 0.680594 0.122177
H13   H     H_    0.119455 0.250984 0.970025 0.150296
H14   H     H_    0.157929 0.249782 0.791841 0.151299
H15   H     H_    0.991924 0.765829 0.832147 0.146624
H16   H     H_    0.068711 0.666539 0.758037 0.115541
H17   H     H_    0.946336 0.612812 0.005369 0.165078
H18   H     H_    0.008144 0.495555 0.923105 0.160930
H19   H     H_    0.141031 0.620687 0.973646 0.144523
H20   H     H_    0.082458 0.578008 0.128657 0.153093
H21   H     H_    0.077133 0.733435 0.063292 0.149640
H22   H     H_    0.634468 0.111833 0.683794 0.104486
H23   H     H_    0.673286 0.530218 0.872902 0.167497
H24   H     H_    0.655913 0.700640 0.871779 0.127187
H25   H     H_    0.672782 0.532054 0.121078 0.159240
H26   H     H_    0.654841 0.702373 0.121346 0.127766
H27   H     H_    0.942407 0.288248 0.494155 0.108702
H28   H     H_    0.951933 0.605938 0.284344 0.107718
N1    N     N_R   0.500530 0.500930 0.147930 -0.276395
N2    N     N_R   0.500530 0.500890 0.852020 -0.230930
N3    N     N_1   0.530676 0.159975 0.971294 -0.301492
N4    N     N_1   0.358453 0.257919 0.212817 -0.337401
O1    O     O_R   0.500000 0.319640 0.618810 -0.450930
O2    O     O_3   0.938974 0.621180 0.722930 -0.570120
O3    O     O_R   0.500010 0.319680 0.381230 -0.497868
O4    O     O_R   0.379070 0.499970 0.618770 -0.503962
O5    O     O_R   0.379080 0.500010 0.381190 -0.490227
O6    O     O_R   0.499990 0.680320 0.618770 -0.501248
O7    O     O_R   0.500000 0.680360 0.381190 -0.508493
O8    O     O_R   0.620920 0.499990 0.618810 -0.504742
O9    O     O_R   0.620930 0.500030 0.381230 -0.504375
O10   O     O_3   0.397036 0.335405 0.857916 -0.535689

loop_
_geom_bond_atom_site_label_1
_geom_bond_atom_site_label_2
_ccdc_geom_bond_type
C27   H8    S    
C26   N4    T    
C19   C20   S    
C34   H2    S    
C20   H1    S    
C9    C25   S    
C7    C8    S    
C21   C36   T    
C17   H26   S    
C29   H13   S    
C31   H18   S    
C28   C29   S    
C32   H21   S    
C34   C35   S    
C30   C31   S    
C30   O2    S    
C13   N2    A    
C10   C17   S    
C18   O9    A    
C1    C2    S    
C20   C35   S    
C28   H10   S    
C7    C38   A    
C8    C9    S    
C23   C33   S    
C15   H24   S    
C19   H27   S    
C25   N3    T    
C12   C36   S    
C8    H12   S    
C14   N2    A    
C3    H4    S    
Cu2   N1    S    
C9    H22   S    
C1    O3    A    
Cu1   O6    S    
C19   C33   S    
Cu1   Cu2   S    
C11   C26   S    
C22   C37   T    
C30   H16   S    
C13   O10   S    
C33   C37   S    
C28   H9    S    
C2    C38   A    
C31   C32   S    
C14   C15   S    
C23   C24   S    
C23   C34   S    
C12   C20   S    
Cu2   O7    S    
Cu1   O4    S    
C10   C14   A    
C32   H20   S    
C23   O2    S    
C12   C34   S    
C29   H11   S    
C27   H7    S    
C15   C17   S    
C18   C22   S    
Cu2   O9    S    
C27   O10   S    
C3    C5    A    
C11   N1    A    
C6    C7    A    
C30   H15   S    
C12   C24   S    
C17   H25   S    
Cu2   O3    S    
C16   O7    A    
C1    O1    A    
Cu1   O8    S    
C31   H17   S    
C19   C24   S    
C4    O5    A    
C4    C21   S    
C11   C13   A    
C5    C6    A    
C5    H5    S    
C35   H28   S    
C9    C38   S    
C33   C35   S    
Cu1   N2    S    
C2    C3    A    
C16   O6    A    
Cu1   O1    S    
C8    H6    S    
C4    O4    A    
C6    C16   S    
C10   N1    A    
C18   O8    A    
C29   H14   S    
C27   C28   S    
C24   H3    S    
C15   H23   S    
Cu2   O5    S    
C32   H19   S    
