data_mof_unit_28877.cif
_audit_creation_date              2012-12-10T18:03:59-0500
_audit_creation_method            fapswitch 2.2
_symmetry_space_group_name_H-M    P1
_symmetry_Int_Tables_number       1
_space_group_crystal_system       monoclinic
_cell_length_a                    10.829833
_cell_length_b                    9.621282
_cell_length_c                    10.893984
_cell_angle_alpha                 90.0
_cell_angle_beta                  93.264681
_cell_angle_gamma                 90.0
_cell_volume                      1133.27694222

loop_
_atom_site_label
_atom_site_type_symbol
_atom_type_description
_atom_site_fract_x
_atom_site_fract_y
_atom_site_fract_z
_atom_type_partial_charge
C1    C     C_R   0.262378 0.499933 0.500168 0.823210
C2    C     C_R   0.737622 0.499933 0.499832 0.823210
C3    C     C_R   0.419134 0.074119 0.423036 0.275064
C4    C     C_R   0.580866 0.074119 0.576964 0.275064
C5    C     C_R   0.417550 0.926143 0.424754 0.268736
C6    C     C_R   0.582450 0.926143 0.575246 0.268736
C7    C     C_R   0.499304 0.499867 0.262852 0.833749
C8    C     C_R   0.500696 0.499867 0.737148 0.833749
C9    C     C_R   0.498818 0.619886 0.061823 0.127396
C10   C     C_R   0.501181 0.619886 0.938177 0.127396
C11   C     C_R   0.498920 0.498134 0.130075 -0.096328
C12   C     C_R   0.501079 0.498134 0.869925 -0.096328
C13   C     C_R   0.499700 0.371451 0.064472 -0.170885
C14   C     C_R   0.500300 0.371451 0.935527 -0.170885
C15   C     C_3   0.501608 0.774389 0.929714 -0.428002
C16   C     C_3   0.498394 0.774389 0.070286 -0.428002
C17   C     C_R   0.063893 0.373566 0.500260 -0.137014
C18   C     C_R   0.936107 0.373566 0.499740 -0.137014
C19   C     C_R   0.871621 0.499842 0.499543 -0.038709
C20   C     C_R   0.128379 0.499842 0.500457 -0.038709
C21   C     C_R   0.936127 0.626040 0.499410 -0.136681
C22   C     C_R   0.063872 0.626040 0.500590 -0.136681
Cu1   Cu    Cu3+1 0.500000 0.640660 0.500000 1.031175
Cu2   Cu    Cu3+1 0.500000 0.359340 0.500000 1.034514
H1    H     H_    0.499902 0.272578 0.111956 0.198832
H2    H     H_    0.500097 0.272578 0.888043 0.198832
H3    H     H_    0.589703 0.816369 0.898864 0.254680
H4    H     H_    0.410298 0.816370 0.101136 0.254680
H5    H     H_    0.416109 0.816026 0.881738 0.212480
H6    H     H_    0.583892 0.816026 0.118262 0.212480
H7    H     H_    0.111804 0.274766 0.500605 0.190495
H8    H     H_    0.888196 0.274766 0.499395 0.190495
H9    H     H_    0.888318 0.724861 0.498381 0.193646
H10   H     H_    0.111682 0.724861 0.501618 0.193646
N1    N     N_R   0.500000 0.852070 0.500000 -0.242764
N2    N     N_R   0.500000 0.147940 0.500000 -0.246299
O1    O     O_R   0.319640 0.618740 0.499990 -0.556030
O2    O     O_R   0.680360 0.618740 0.500010 -0.556030
O3    O     O_R   0.319620 0.381170 0.499990 -0.558146
O4    O     O_R   0.680380 0.381170 0.500010 -0.558146
O5    O     O_R   0.499990 0.618810 0.319660 -0.554206
O6    O     O_R   0.500010 0.618810 0.680340 -0.554206
O7    O     O_R   0.499960 0.381240 0.319650 -0.558294
O8    O     O_R   0.500040 0.381240 0.680350 -0.558294
Br1   Br    Br    0.305517 0.168753 0.308925 -0.454526
Br2   Br    Br    0.694483 0.168753 0.691075 -0.454526
Br3   Br    Br    0.295143 0.832463 0.319928 -0.477779
Br4   Br    Br    0.704857 0.832463 0.680072 -0.477779

loop_
_geom_bond_atom_site_label_1
_geom_bond_atom_site_label_2
_ccdc_geom_bond_type
C16   H4    S    
Cu1   Cu2   S    
C4    N2    A    
C7    O7    A    
Cu1   O2    S    
C11   C13   A    
C9    C10   A    
C2    O2    A    
C15   H3    S    
Cu1   O5    S    
C1    O1    A    
C8    C12   S    
Cu2   O3    S    
C17   C18   A    
C12   C14   A    
C4    Br2   S    
C13   C14   A    
C14   H2    S    
C7    C11   S    
C9    C11   A    
C13   H1    S    
Cu2   N2    S    
Cu1   O6    S    
C10   C12   A    
C3    N2    A    
C17   H7    S    
C5    N1    A    
C19   C21   A    
C9    C16   S    
C8    O6    A    
C15   H5    S    
Cu1   N1    S    
C10   C15   S    
C7    O5    A    
C22   H10   S    
C21   H9    S    
C1    O3    A    
C16   H6    S    
C15   C16   S    
C5    Br3   S    
C2    O4    A    
C17   C20   A    
C18   H8    S    
Cu2   O8    S    
C4    C6    A    
C18   C19   A    
Cu2   O7    S    
C1    C20   S    
Cu1   O1    S    
Cu2   O4    S    
C2    C19   S    
C21   C22   A    
C3    Br1   S    
C6    N1    A    
C8    O8    A    
C20   C22   A    
C3    C5    A    
C6    Br4   S    
