data_mof_unit_32062.cif
_audit_creation_date              2013-03-05T16:06:03-0500
_audit_creation_method            fapswitch 2.2
_symmetry_space_group_name_H-M    P1
_symmetry_Int_Tables_number       1
_space_group_crystal_system       triclinic
_cell_length_a                    6.935155
_cell_length_b                    25.92276
_cell_length_c                    28.911418
_cell_angle_alpha                 89.887049
_cell_angle_beta                  90.203996
_cell_angle_gamma                 89.937107
_cell_volume                      5197.6010585

loop_
_atom_site_label
_atom_site_type_symbol
_atom_site_description
_atom_site_fract_x
_atom_site_fract_y
_atom_site_fract_z
_atom_type_partial_charge
O1    O     O_R   0.601010 0.796750 0.202520 -0.597324
O2    O     O_R   0.398990 0.203250 0.797480 -0.597323
O3    O     O_R   0.271260 0.802890 0.297300 -0.591500
O4    O     O_R   0.728740 0.197110 0.702700 -0.591499
O5    O     O_R   0.100940 0.703200 0.297630 -0.599152
O6    O     O_R   0.899060 0.296800 0.702370 -0.599152
C1    C     C_R   0.440328 0.815225 0.313190 0.914166
C2    C     C_R   0.559672 0.184775 0.686810 0.914164
O7    O     O_R   0.271300 0.802890 0.202860 -0.585270
O8    O     O_R   0.728700 0.197110 0.797140 -0.585270
O9    O     O_R   0.100980 0.703210 0.202520 -0.568260
O10   O     O_R   0.899020 0.296790 0.797480 -0.568260
C3    C     C_R   0.440027 0.815531 0.186950 0.997288
C4    C     C_R   0.559973 0.184468 0.813050 0.997287
O11   O     O_R   0.600970 0.796740 0.297640 -0.590762
O12   O     O_R   0.399030 0.203260 0.702360 -0.590760
O13   O     O_3   0.434500 0.717270 0.250080 -0.269803
O14   O     O_3   0.565500 0.282730 0.749920 -0.269803
V1    V     V_3+5 0.159650 0.756040 0.250080 1.199529
V2    V     V_3+5 0.840350 0.243960 0.749920 1.199530
O15   O     O_R   0.771260 0.697060 0.202850 -0.582997
O16   O     O_R   0.228740 0.302940 0.797150 -0.582998
C5    C     C_R   0.939883 0.685797 0.185930 1.002334
C6    C     C_R   0.060117 0.314203 0.814070 1.002334
O17   O     O_R   0.771230 0.697050 0.297300 -0.599919
O18   O     O_R   0.228770 0.302950 0.702700 -0.599920
C7    C     C_R   0.940538 0.684613 0.313589 0.946017
C8    C     C_R   0.059462 0.315387 0.686411 0.946018
V3    V     V_3+5 0.659640 0.743910 0.250080 1.193438
V4    V     V_3+5 0.340360 0.256090 0.749920 1.193439
O19   O     O_3   0.934660 0.782680 0.250080 -0.278599
O20   O     O_3   0.065340 0.217320 0.749920 -0.278598
C9    C     C_R   0.114605 0.646861 0.382327 -0.256510
C10   C     C_R   0.885395 0.353139 0.617673 -0.256511
H1    H     H_    0.228538 0.674718 0.376728 0.173252
H2    H     H_    0.771461 0.325282 0.623271 0.173251
C11   C     C_R   0.126924 0.613285 0.420731 0.368608
C12   C     C_R   0.873075 0.386715 0.579268 0.368608
C13   C     C_R   0.978202 0.576654 0.428593 -0.069472
C14   C     C_R   0.021797 0.423345 0.571407 -0.069472
C15   C     C_R   0.816524 0.577189 0.398933 -0.065506
C16   C     C_R   0.183475 0.422811 0.601067 -0.065506
H3    H     H_    0.700215 0.549942 0.404075 0.147903
H4    H     H_    0.299784 0.450057 0.595925 0.147903
C17   C     C_R   0.802992 0.612182 0.361948 -0.110447
C18   C     C_R   0.197008 0.387818 0.638051 -0.110446
H5    H     H_    0.676054 0.611369 0.340034 0.133873
H6    H     H_    0.323945 0.388631 0.659966 0.133873
C19   C     C_R   0.952926 0.647044 0.352797 -0.190529
C20   C     C_R   0.047074 0.352956 0.647203 -0.190528
N1    N     N_R   0.827890 0.519633 0.487521 -0.038200
N2    N     N_R   0.172109 0.480367 0.512479 -0.038201
N3    N     N_R   0.837772 0.483834 0.520729 -0.032818
N4    N     N_R   0.162228 0.516166 0.479271 -0.032819
C21   C     C_R   0.009960 0.463136 0.533826 0.190492
C22   C     C_R   0.990039 0.536864 0.466174 0.190492
C23   C     C_R   0.102929 0.651046 0.113811 0.378561
C24   C     C_R   0.897071 0.348954 0.886188 0.378560
C25   C     C_R   0.114526 0.613420 0.079019 -0.257913
C26   C     C_R   0.885474 0.386580 0.920981 -0.257913
H7    H     H_    0.229738 0.615833 0.053909 0.159232
H8    H     H_    0.770262 0.384167 0.946090 0.159232
C27   C     C_R   0.974197 0.574705 0.074738 0.057300
C28   C     C_R   0.025803 0.425295 0.925261 0.057300
C29   C     C_R   0.820599 0.573959 0.106304 -0.124110
C30   C     C_R   0.179401 0.426041 0.893696 -0.124110
H9    H     H_    0.710591 0.544445 0.104139 0.111970
H10   H     H_    0.289408 0.455555 0.895861 0.111970
C31   C     C_R   0.809359 0.610537 0.141746 -0.115754
C32   C     C_R   0.190641 0.389463 0.858254 -0.115753
H11   H     H_    0.691136 0.608128 0.166037 0.144801
H12   H     H_    0.308864 0.391872 0.833963 0.144801
C33   C     C_R   0.950601 0.649078 0.146477 -0.299437
C34   C     C_R   0.049399 0.350922 0.853523 -0.299436
C35   C     C_R   0.820790 0.520215 0.012641 -0.154535
C36   C     C_R   0.179209 0.479785 0.987359 -0.154535
H13   H     H_    0.680905 0.536037 0.021245 0.116027
H14   H     H_    0.319095 0.463963 0.978754 0.116027
C37   C     C_R   0.833670 0.484678 0.976386 -0.169178
C38   C     C_R   0.166330 0.515322 0.023614 -0.169178
H15   H     H_    0.703145 0.473945 0.958144 0.114000
H16   H     H_    0.296855 0.526055 0.041855 0.114000
C39   C     C_R   0.013022 0.463958 0.963282 0.141029
C40   C     C_R   0.986978 0.536041 0.036718 0.141029
C41   C     C_R   0.478578 0.161978 0.605163 -0.143786
C42   C     C_R   0.521453 0.838024 0.394835 -0.143779
H17   H     H_    0.432679 0.201408 0.599232 0.132088
H18   H     H_    0.567378 0.798595 0.400764 0.132089
C43   C     C_R   0.471227 0.126561 0.568606 -0.083196
C44   C     C_R   0.528801 0.873439 0.431392 -0.083194
H19   H     H_    0.421067 0.139614 0.535055 0.133533
H20   H     H_    0.578982 0.860387 0.464942 0.133531
C45   C     C_R   0.530155 0.075032 0.575107 0.190385
C46   C     C_R   0.469841 0.924966 0.424894 0.190381
C47   C     C_R   0.593286 0.059788 0.619484 -0.010747
C48   C     C_R   0.406683 0.940210 0.380518 -0.010753
H21   H     H_    0.633844 0.020109 0.626129 0.124773
H22   H     H_    0.366103 0.979887 0.373875 0.124778
C49   C     C_R   0.606457 0.095661 0.655622 -0.169298
C50   C     C_R   0.393511 0.904337 0.344381 -0.169300
H23   H     H_    0.658524 0.083181 0.689197 0.111418
H24   H     H_    0.341419 0.916815 0.310807 0.111424
C51   C     C_R   0.548843 0.146977 0.648722 -0.114579
C52   C     C_R   0.451157 0.853023 0.351278 -0.114589
C53   C     C_R   0.671311 0.001600 0.526676 0.391026
C54   C     C_R   0.328682 0.998398 0.473327 0.391023
C55   C     C_R   0.646447 0.964566 0.491602 -0.214458
C56   C     C_R   0.353548 0.035432 0.508401 -0.214463
H25   H     H_    0.762508 0.937848 0.484619 0.214977
H26   H     H_    0.237487 0.062151 0.515384 0.214976
C57   C     C_R   0.479057 0.962794 0.464049 -0.146605
C58   C     C_R   0.520938 0.037204 0.535953 -0.146613
C59   C     C_R   0.369672 0.127402 0.866158 -0.134716
C60   C     C_R   0.630328 0.872598 0.133842 -0.134716
H27   H     H_    0.237063 0.140371 0.850005 0.133422
H28   H     H_    0.762937 0.859629 0.149995 0.133422
C61   C     C_R   0.358280 0.091704 0.902306 -0.139910
C62   C     C_R   0.641720 0.908295 0.097694 -0.139910
H29   H     H_    0.217661 0.077766 0.912577 0.100702
H30   H     H_    0.782339 0.922234 0.087423 0.100702
C63   C     C_R   0.526176 0.073675 0.924431 0.116818
C64   C     C_R   0.473824 0.926325 0.075569 0.116818
C65   C     C_R   0.706088 0.092005 0.909224 -0.151012
C66   C     C_R   0.293911 0.907994 0.090776 -0.151012
H31   H     H_    0.838073 0.079465 0.925922 0.103112
H32   H     H_    0.161927 0.920535 0.074077 0.103112
C67   C     C_R   0.717617 0.127620 0.872891 -0.085380
C68   C     C_R   0.282383 0.872380 0.127109 -0.085381
H33   H     H_    0.858317 0.141231 0.862326 0.135101
H34   H     H_    0.141683 0.858769 0.137674 0.135101
C69   C     C_R   0.549408 0.145887 0.850996 -0.137215
C70   C     C_R   0.450592 0.854113 0.149004 -0.137214
C71   C     C_R   0.648369 0.995811 0.967624 -0.164839
C72   C     C_R   0.351631 0.004189 0.032376 -0.164839
H35   H     H_    0.762598 0.991269 0.942523 0.117956
H36   H     H_    0.237402 0.008731 0.057477 0.117956
C73   C     C_R   0.635327 0.960268 0.003924 -0.152812
C74   C     C_R   0.364673 0.039732 0.996076 -0.152813
H37   H     H_    0.740012 0.929311 0.005818 0.122647
H38   H     H_    0.259988 0.070689 0.994182 0.122647
C75   C     C_R   0.486840 0.964015 0.036780 0.103923
C76   C     C_R   0.513159 0.035985 0.963220 0.103923
N5    N     N_R   0.853387 0.003924 0.550642 0.232030
O21   O     O_R   0.956367 0.962356 0.556204 -0.391143
O22   O     O_R   0.928335 0.048205 0.561762 -0.417980
N6    N     N_R   0.146603 0.996073 0.449362 0.232027
O23   O     O_R   0.071655 0.951791 0.438245 -0.417985
O24   O     O_R   0.043620 0.037640 0.443800 -0.391150
N7    N     N_R   0.284496 0.619396 0.452725 0.232191
O25   O     O_R   0.252460 0.618850 0.497047 -0.368519
O26   O     O_R   0.451269 0.635337 0.438040 -0.415312
N8    N     N_R   0.715503 0.380604 0.547275 0.232190
O27   O     O_R   0.747539 0.381151 0.502953 -0.368521
O28   O     O_R   0.548730 0.364662 0.561960 -0.415313
N9    N     N_R   0.240343 0.692457 0.113646 0.233914
O29   O     O_R   0.180739 0.740029 0.115259 -0.418279
O30   O     O_R   0.419953 0.683315 0.103647 -0.412035
N10   N     N_R   0.759656 0.307543 0.886354 0.233914
O31   O     O_R   0.819261 0.259971 0.884741 -0.418280
O32   O     O_R   0.580047 0.316685 0.896353 -0.412035

loop_
_geom_bond_atom_site_label_1
_geom_bond_atom_site_label_2
_geom_bond_distance
_ccdc_geom_bond_type
C49   C51   1.402211 A    
C27   C29   1.405279 A    
C71   C73   1.398406 A    
O11   V3    1.985439 S    
O10   C6    1.296213 A    
N9    O30   1.301344 A    
C15   H3    1.083182 S    
C30   H10   1.082797 S    
O4    C2    1.298325 A    
V1    O19   1.705638 S    
C62   H30   1.082677 S    
C4    C69   1.485129 S    
C13   C15   1.409192 A    
C53   C55   1.408053 A    
O9    V1    1.984050 S    
C71   C76   1.405905 A    
C36   H14   1.082824 S    
N6    O23   1.301055 A    
O3    C1    1.298326 A    
C61   H29   1.082676 S    
C62   C64   1.405600 A    
C42   H18   1.083388 S    
C35   C40   1.406303 A    
C23   C25   1.404965 A    
C60   C70   1.407090 A    
C9    C19   1.406888 A    
N5    O21   1.301484 A    
C46   C57   1.500367 S    
C50   C52   1.402217 A    
O13   V3    1.707976 S    
C26   H8    1.083240 S    
N1    C22   1.360131 A    
C16   C18   1.403679 A    
C17   H5    1.083039 S    
C23   C33   1.420412 A    
C31   H11   1.083222 S    
O7    C3    1.300880 A    
C61   C63   1.405599 A    
O13   V1    2.153879 S    
O5    C7    1.298645 A    
C8    C20   1.495171 S    
O7    V1    1.985282 S    
O6    C8    1.298645 A    
O8    V2    1.985284 S    
C29   H9    1.082797 S    
C48   H22   1.082683 S    
C32   C34   1.406451 A    
O3    V1    1.984674 S    
O14   V4    1.707976 S    
C43   H19   1.082814 S    
O16   V4    1.987654 S    
O14   V2    2.153878 S    
C41   C51   1.402834 A    
N2    C21   1.360131 A    
C38   C40   1.407775 A    
C66   C68   1.399669 A    
C2    O12   1.294657 A    
N3    C21   1.360826 A    
C42   C52   1.402834 A    
C45   C47   1.409827 A    
N10   O32   1.301343 A    
C55   H25   1.081128 S    
C16   H4    1.083183 S    
C5    C33   1.489079 S    
C68   C70   1.406470 A    
C36   C39   1.406303 A    
C12   N8    1.438270 S    
O18   C8    1.303477 A    
N2    N4    1.335484 A    
C44   C46   1.408513 A    
C24   C26   1.404965 A    
N6    O24   1.301483 A    
C54   C57   1.418524 A    
C41   H17   1.083384 S    
O17   V3    1.980437 S    
N4    C22   1.360825 A    
C10   C20   1.406888 A    
C25   H7    1.083240 S    
V4    O20   2.156871 S    
C38   H16   1.082901 S    
C42   C44   1.402168 A    
C37   H15   1.082902 S    
C41   C43   1.402169 A    
C72   H36   1.082738 S    
C1    O11   1.294657 A    
O15   V3    1.987650 S    
C9    C11   1.411747 A    
C56   C58   1.406407 A    
N1    N3    1.335484 A    
C28   C30   1.405279 A    
C46   C48   1.409833 A    
C67   H33   1.082769 S    
C28   C39   1.491821 S    
C53   N5    1.439546 S    
C23   N9    1.436254 S    
C44   H20   1.082816 S    
C13   C22   1.498655 S    
C17   C19   1.403922 A    
C14   C21   1.498655 S    
O10   V2    1.984048 S    
O1    V3    1.979811 S    
C31   C33   1.406451 A    
C73   H37   1.082745 S    
C60   C62   1.397047 A    
C74   H38   1.082745 S    
C59   C61   1.397049 A    
C49   H23   1.083205 S    
C53   C58   1.418521 A    
N8    O28   1.301000 A    
O18   V4    1.980442 S    
C1    C52   1.477210 S    
O15   C5    1.302301 A    
C24   N10   1.436254 S    
N10   O31   1.301175 A    
O16   C6    1.302300 A    
O1    C3    1.296331 A    
O12   V4    1.985437 S    
C64   C66   1.407228 A    
C65   C67   1.399669 A    
C24   C34   1.420412 A    
C66   H32   1.082673 S    
C50   H24   1.083207 S    
V2    O20   1.705638 S    
N5    O22   1.301053 A    
C73   C75   1.406884 A    
C15   C17   1.403679 A    
C59   C69   1.407090 A    
C10   C12   1.411748 A    
C55   C57   1.406407 A    
C63   C76   1.488941 S    
C36   C38   1.399864 A    
C11   N7    1.438270 S    
C14   C16   1.409193 A    
C68   H34   1.082769 S    
C72   C74   1.398405 A    
C60   H28   1.082832 S    
C47   H21   1.082680 S    
O5    V1    1.982348 S    
O4    V2    1.984676 S    
O17   C7    1.303479 A    
O6    V2    1.982348 S    
C18   C20   1.403921 A    
C25   C27   1.404070 A    
C54   N6    1.439544 S    
O2    V4    1.979806 S    
C27   C40   1.491821 S    
C26   C28   1.404070 A    
N7    O26   1.300998 A    
V3    O19   2.156873 S    
N7    O25   1.301361 A    
C72   C75   1.405905 A    
C12   C14   1.421299 A    
C6    C34   1.489079 S    
C30   C32   1.399772 A    
C54   C56   1.408053 A    
C29   C31   1.399772 A    
C48   C50   1.402868 A    
O9    C5    1.296212 A    
C9    H1    1.083382 S    
C3    C70   1.485129 S    
C56   H26   1.081131 S    
C47   C49   1.402870 A    
C43   C45   1.408508 A    
O2    C4    1.296333 A    
C2    C51   1.477209 S    
C67   C69   1.406470 A    
C63   C65   1.407228 A    
C65   H31   1.082673 S    
C45   C58   1.500359 S    
C37   C39   1.407775 A    
C18   H6    1.083039 S    
N8    O27   1.301364 A    
C10   H2    1.083382 S    
C11   C13   1.421299 A    
C35   H13   1.082824 S    
N9    O29   1.301174 A    
C71   H35   1.082738 S    
C74   C76   1.406884 A    
C32   H12   1.083222 S    
C64   C75   1.488941 S    
C35   C37   1.399864 A    
C7    C19   1.495171 S    
O8    C4    1.300879 A    
C59   H27   1.082833 S    
