data_mof_unit_34838.cif
_audit_creation_date              2012-12-10T16:38:39-0500
_audit_creation_method            fapswitch 2.2
_symmetry_space_group_name_H-M    P1
_symmetry_Int_Tables_number       1
_space_group_crystal_system       triclinic
_cell_length_a                    10.83897
_cell_length_b                    10.841364
_cell_length_c                    17.855729
_cell_angle_alpha                 98.297207
_cell_angle_beta                  72.804808
_cell_angle_gamma                 98.554346
_cell_volume                      1970.91898279

loop_
_atom_site_label
_atom_site_type_symbol
_atom_type_description
_atom_site_fract_x
_atom_site_fract_y
_atom_site_fract_z
_atom_type_partial_charge
C1    C     C_R   0.157374 0.480009 0.517524 0.498737
C2    C     C_R   0.647092 0.460594 0.920067 -0.096413
C3    C     C_R   0.714682 0.400222 0.957312 0.041468
C4    C     C_R   0.843253 0.520719 0.482301 0.532912
C5    C     C_R   0.658749 0.380997 0.038009 0.017541
C6    C     C_R   0.556586 0.452416 0.082844 -0.015805
C7    C     C_R   0.704021 0.298303 0.076737 0.226509
C8    C     C_R   0.682997 0.320873 0.159581 0.195201
C9    C     C_R   0.530377 0.467199 0.165166 -0.171549
C10   C     C_2   0.981410 0.528382 0.474848 -0.104663
C11   C     C_2   0.021129 0.473473 0.524545 -0.080523
C12   C     C_R   0.287996 0.644420 0.846895 0.195320
C13   C     C_2   0.542478 0.966454 0.476106 -0.100825
C14   C     C_2   0.454239 0.036377 0.524349 -0.096222
C15   C     C_R   0.467576 0.168410 0.517863 0.511431
C16   C     C_R   0.530510 0.833121 0.482691 0.505256
C17   C     C_R   0.566241 0.434530 0.288055 0.569582
C18   C     C_R   0.433706 0.562272 0.712935 0.522128
C19   C     C_R   0.398702 0.584869 0.800344 0.005863
C20   C     C_R   0.596054 0.407372 0.202632 -0.017478
C21   C     C_R   0.260769 0.656773 0.928940 -0.122323
C22   C     C_3   0.853695 0.376608 0.911826 -0.237239
C23   C     C_R   0.477552 0.540866 0.838298 -0.154873
C24   C     C_3   0.952574 0.449093 0.952476 -0.390871
C25   C     C_R   0.450282 0.553467 0.921109 0.029132
C26   C     C_R   0.338176 0.609992 0.965937 0.011263
C27   C     C_R   0.527326 0.506219 0.960749 0.038009
C28   C     C_R   0.485280 0.508632 0.044155 0.054017
C29   C     C_R   0.370437 0.563143 0.086171 -0.099759
C30   C     C_R   0.300556 0.615520 0.047765 -0.109608
H1    H     H_    0.213147 0.656414 0.082426 0.124470
H2    H     H_    0.692895 0.475391 0.859223 0.116129
H3    H     H_    0.710274 0.958348 0.059621 0.377273
H4    H     H_    0.876300 0.410331 0.248769 0.335136
H5    H     H_    0.939516 0.550424 0.963289 0.188925
H6    H     H_    0.942448 0.413393 0.009384 0.169726
H7    H     H_    0.052478 0.438008 0.914075 0.173694
H8    H     H_    0.866223 0.276036 0.901014 0.233133
H9    H     H_    0.879842 0.407631 0.851854 0.161536
H10   H     H_    0.287301 0.878809 0.787370 0.341184
H11   H     H_    0.051029 0.578666 0.428803 0.106481
H12   H     H_    0.953442 0.423557 0.571376 0.136791
H13   H     H_    0.623921 0.008087 0.431649 0.148784
H14   H     H_    0.371715 0.997068 0.569002 0.144861
H15   H     H_    0.464315 0.531085 0.202064 0.115047
H16   H     H_    0.175753 0.700065 0.964914 0.159964
H17   H     H_    0.557589 0.492344 0.801655 0.142449
H18   H     H_    0.328863 0.563423 0.148932 0.116018
O1    O     O_3   0.500000 0.500000 0.500000 -0.468053
O2    O     O_R   0.470800 0.371790 0.332500 -0.507285
O3    O     O_R   0.380610 0.619380 0.674980 -0.451552
O4    O     O_R   0.632640 0.524780 0.317540 -0.526036
O5    O     O_R   0.515950 0.484050 0.674980 -0.559469
O6    O     O_2   0.686979 0.116293 0.958730 -0.290352
O7    O     O_2   0.888093 0.146631 0.999172 -0.253653
O8    O     O_3   0.679178 0.037293 0.089766 -0.435156
O9    O     O_2   0.670722 0.141919 0.251345 -0.207356
O10   O     O_2   0.881177 0.188708 0.155464 -0.199439
O11   O     O_3   0.813816 0.346358 0.278882 -0.518283
O12   O     O_R   0.535460 0.243030 0.556410 -0.526626
O13   O     O_2   0.123132 0.592170 0.757188 -0.252359
O14   O     O_2   0.063061 0.746009 0.872011 -0.281298
O15   O     O_3   0.249551 0.815503 0.751999 -0.458775
O16   O     O_R   0.437420 0.784080 0.535340 -0.527818
O17   O     O_R   0.223560 0.397520 0.472140 -0.537142
O18   O     O_R   0.803560 0.575360 0.436110 -0.520711
O19   O     O_R   0.209690 0.568800 0.556400 -0.497642
O20   O     O_R   0.763190 0.458310 0.535350 -0.536411
O21   O     O_R   0.414000 0.207090 0.472140 -0.512871
O22   O     O_R   0.613120 0.765800 0.436110 -0.532313
S1    S     S_3+6 0.743101 0.147868 0.027670 0.057019
S2    S     S_3+6 0.764216 0.244419 0.210398 0.073875
S3    S     S_3+6 0.175293 0.698363 0.807476 0.032417
Zn1   Zn    Zn3+2 0.577310 0.422690 0.565550 0.971116
Zn2   Zn    Zn3+2 0.403760 0.371330 0.445150 1.003813
Zn3   Zn    Zn3+2 0.634990 0.589920 0.423760 0.988091
Zn4   Zn    Zn3+2 0.383940 0.616050 0.565540 1.026450

loop_
_geom_bond_atom_site_label_1
_geom_bond_atom_site_label_2
_ccdc_geom_bond_type
C21   C26   A    
C9    H15   S    
C15   O12   A    
O5    Zn1   S    
O19   Zn4   S    
C6    C9    A    
C7    C8    A    
C24   H6    S    
H10   O15   S    
C28   C29   A    
C7    S1    S    
C30   H1    S    
O20   Zn1   S    
C22   H8    S    
C17   C20   S    
C11   H12   S    
C2    H2    S    
C18   C19   S    
O16   Zn4   S    
C18   O5    A    
C6    C28   A    
O6    S1    D    
C1    C11   S    
C1    O17   A    
O1    Zn2   S    
O14   S3    D    
C2    C27   A    
O11   S2    S    
H3    O8    S    
C13   C14   D    
C10   H11   S    
C17   O4    A    
C18   O3    A    
C15   O21   A    
C8    S2    S    
C24   H5    S    
C23   H17   S    
C29   H18   S    
C16   O22   A    
C5    C7    A    
O15   S3    S    
O13   S3    D    
C25   C26   A    
C4    O20   A    
C12   C21   A    
C19   C23   A    
O3    Zn4   S    
C29   C30   A    
C9    C20   A    
O8    S1    S    
O18   Zn3   S    
C24   H7    S    
O1    Zn3   S    
C8    C20   A    
C26   C30   A    
O22   Zn3   S    
H4    O11   S    
C22   C24   S    
C4    C10   S    
C3    C5    A    
C13   H13   S    
C14   H14   S    
C21   H16   S    
C14   C15   S    
O4    Zn3   S    
C17   O2    A    
C25   C27   A    
O17   Zn2   S    
C2    C3    A    
O2    Zn2   S    
C4    O18   A    
O10   S2    D    
C5    C6    A    
C22   H9    S    
C12   C19   A    
O12   Zn1   S    
C1    O19   A    
O1    Zn4   S    
O21   Zn2   S    
C23   C25   A    
O9    S2    D    
C10   C11   D    
C13   C16   S    
C27   C28   A    
O1    Zn1   S    
C3    C22   S    
C16   O16   A    
C12   S3    S    
O7    S1    D    
