data_mof_unit_5082.cif
_audit_creation_date              2013-03-05T15:41:57-0500
_audit_creation_method            fapswitch 2.2
_symmetry_space_group_name_H-M    P1
_symmetry_Int_Tables_number       1
_space_group_crystal_system       triclinic
_cell_length_a                    24.974878
_cell_length_b                    16.774778
_cell_length_c                    15.716449
_cell_angle_alpha                 90.000025
_cell_angle_beta                  49.559979
_cell_angle_gamma                 89.999988
_cell_volume                      5011.27206674

loop_
_atom_site_label
_atom_site_type_symbol
_atom_site_description
_atom_site_fract_x
_atom_site_fract_y
_atom_site_fract_z
_atom_type_partial_charge
C1    C     C_R   0.333515 0.109639 0.803306 0.053606
C2    C     C_R   0.641393 0.847803 0.257421 -0.014964
C3    C     C_R   0.666484 0.109643 0.196699 0.053698
C4    C     C_R   0.358607 0.847803 0.742579 -0.014949
C5    C     C_R   0.833517 0.609647 0.803297 0.053786
C6    C     C_R   0.141392 0.347802 0.257423 -0.014933
C7    C     C_R   0.166483 0.609644 0.196699 0.053707
C8    C     C_R   0.858608 0.347802 0.742577 -0.014947
H1    H     H_    0.280652 0.105312 0.834040 0.186963
H2    H     H_    0.684300 0.826690 0.252069 0.129948
H3    H     H_    0.719346 0.105319 0.165966 0.186949
H4    H     H_    0.315700 0.826691 0.747930 0.129952
H5    H     H_    0.780655 0.605327 0.834029 0.186935
H6    H     H_    0.184297 0.326688 0.252077 0.129961
H7    H     H_    0.219346 0.605321 0.165966 0.186947
H8    H     H_    0.815702 0.326688 0.747925 0.129954
N1    N     N_R   0.389620 0.081040 0.705440 -0.076564
N2    N     N_R   0.610380 0.918960 0.294560 -0.043631
N3    N     N_R   0.610380 0.081040 0.294560 -0.076578
N4    N     N_R   0.389620 0.918960 0.705440 -0.043634
N5    N     N_R   0.889620 0.581040 0.705440 -0.076590
N6    N     N_R   0.110380 0.418960 0.294560 -0.043639
N7    N     N_R   0.110380 0.581040 0.294560 -0.076578
N8    N     N_R   0.889620 0.418960 0.705440 -0.043635
C9    C     C_R   0.585757 0.149705 0.592890 -0.202779
C10   C     C_R   0.383864 0.894175 0.409350 -0.180751
C11   C     C_R   0.414243 0.149706 0.407110 -0.202784
C12   C     C_R   0.616137 0.894176 0.590650 -0.180748
C13   C     C_R   0.085758 0.649705 0.592890 -0.202780
C14   C     C_R   0.883864 0.394174 0.409350 -0.180739
C15   C     C_R   0.914241 0.649705 0.407110 -0.202776
C16   C     C_R   0.116136 0.394174 0.590650 -0.180743
H9    H     H_    0.557424 0.164880 0.679375 0.131095
H10   H     H_    0.405063 0.894863 0.323667 0.123115
H11   H     H_    0.442576 0.164880 0.320625 0.131090
H12   H     H_    0.594937 0.894863 0.676333 0.123113
H13   H     H_    0.057426 0.664879 0.679374 0.131085
H14   H     H_    0.905063 0.394862 0.323667 0.123114
H15   H     H_    0.942574 0.664879 0.320626 0.131089
H16   H     H_    0.094936 0.394861 0.676333 0.123116
N9    N     N_R   0.582320 0.079840 0.556630 -0.068285
N10   N     N_R   0.417680 0.920160 0.443370 -0.071332
N11   N     N_R   0.417680 0.079840 0.443370 -0.068284
N12   N     N_R   0.582320 0.920160 0.556630 -0.071329
N13   N     N_R   0.082320 0.579840 0.556630 -0.068281
N14   N     N_R   0.917680 0.420160 0.443370 -0.071325
N15   N     N_R   0.917680 0.579840 0.443370 -0.068282
N16   N     N_R   0.082320 0.420160 0.556630 -0.071329
C17   C     C_R   0.662489 0.148286 0.406932 0.317591
C18   C     C_R   0.309020 0.897683 0.594642 0.291586
C19   C     C_R   0.337513 0.148288 0.593068 0.317585
C20   C     C_R   0.690980 0.897684 0.405358 0.291597
C21   C     C_R   0.162490 0.648285 0.406932 0.317595
C22   C     C_R   0.809020 0.397682 0.594642 0.291588
C23   C     C_R   0.837508 0.648284 0.593069 0.317599
C24   C     C_R   0.190980 0.397681 0.405358 0.291578
N17   N     N_R   0.627920 0.078930 0.443400 -0.092975
N18   N     N_R   0.372080 0.921070 0.556600 -0.094087
N19   N     N_R   0.372080 0.078930 0.556600 -0.092972
N20   N     N_R   0.627920 0.921070 0.443400 -0.094086
N21   N     N_R   0.127920 0.578930 0.443400 -0.092976
N22   N     N_R   0.872080 0.421070 0.556600 -0.094087
N23   N     N_R   0.872080 0.578930 0.556600 -0.092978
N24   N     N_R   0.127920 0.421070 0.443400 -0.094087
C25   C     C_R   0.578106 0.107869 0.196345 -0.108377
C26   C     C_R   0.446408 0.852453 0.746095 0.012134
C27   C     C_R   0.421893 0.107864 0.803657 -0.108349
C28   C     C_R   0.553590 0.852453 0.253908 0.012198
C29   C     C_R   0.078105 0.607870 0.196346 -0.108408
C30   C     C_R   0.946409 0.352453 0.746095 0.012139
C31   C     C_R   0.921895 0.607875 0.803652 -0.108428
C32   C     C_R   0.053593 0.352453 0.253902 0.012064
H17   H     H_    0.549571 0.104746 0.166324 0.107889
H18   H     H_    0.483456 0.836338 0.757046 0.122398
H19   H     H_    0.450429 0.104736 0.833678 0.107880
H20   H     H_    0.516543 0.836338 0.242956 0.122382
H21   H     H_    0.049570 0.604747 0.166325 0.107891
H22   H     H_    0.983456 0.336338 0.757047 0.122399
H23   H     H_    0.950430 0.604756 0.833673 0.107899
H24   H     H_    0.016545 0.336338 0.242951 0.122418
N25   N     N_R   0.555090 0.077730 0.294590 -0.057227
N26   N     N_R   0.444910 0.922270 0.705410 -0.068500
N27   N     N_R   0.444910 0.077730 0.705410 -0.057224
N28   N     N_R   0.555090 0.922270 0.294590 -0.068498
N29   N     N_R   0.055090 0.577730 0.294590 -0.057224
N30   N     N_R   0.944910 0.422270 0.705410 -0.068498
N31   N     N_R   0.944910 0.577730 0.705410 -0.057226
N32   N     N_R   0.055090 0.422270 0.294590 -0.068501
C33   C     C_R   0.351733 0.126994 0.867030 0.163526
C34   C     C_R   0.606548 0.804927 0.231976 0.078249
C35   C     C_R   0.648266 0.127002 0.132976 0.163568
C36   C     C_R   0.393452 0.804927 0.768024 0.078213
C37   C     C_R   0.851736 0.627012 0.867018 0.163600
C38   C     C_R   0.106547 0.304926 0.231976 0.078152
C39   C     C_R   0.148265 0.627004 0.132977 0.163563
C40   C     C_R   0.893453 0.304926 0.768023 0.078197
C41   C     C_R   0.636365 0.194311 0.499917 0.002734
C42   C     C_R   0.315369 0.879727 0.503133 -0.036824
C43   C     C_R   0.363637 0.194313 0.500082 0.002735
C44   C     C_R   0.684632 0.879729 0.496866 -0.036827
C45   C     C_R   0.136366 0.694310 0.499917 0.002726
C46   C     C_R   0.815369 0.379726 0.503133 -0.036828
C47   C     C_R   0.863632 0.694309 0.500084 0.002724
C48   C     C_R   0.184631 0.379724 0.496867 -0.036824
Ni1   Ni    Ni4+2 0.382970 0.000000 0.629840 0.328304
Ni2   Ni    Ni4+2 0.617030 0.000000 0.370160 0.328303
Ni3   Ni    Ni4+2 0.882970 0.500000 0.629840 0.328305
Ni4   Ni    Ni4+2 0.117030 0.500000 0.370160 0.328305
Ni5   Ni    Ni4+2 0.514540 0.000000 0.629840 0.210738
Ni6   Ni    Ni4+2 0.485460 0.000000 0.370160 0.210745
Ni7   Ni    Ni4+2 0.014540 0.500000 0.629840 0.210745
Ni8   Ni    Ni4+2 0.985460 0.500000 0.370160 0.210737
C49   C     C_3   0.339899 0.287123 0.390994 -0.180574
C50   C     C_3   0.720368 0.810405 0.603441 -0.166455
C51   C     C_3   0.660101 0.287124 0.609007 -0.180569
C52   C     C_3   0.279631 0.810406 0.396558 -0.166467
C53   C     C_3   0.839899 0.787125 0.390993 -0.180577
C54   C     C_3   0.220370 0.310406 0.603443 -0.166479
C55   C     C_3   0.160101 0.787123 0.609007 -0.180581
C56   C     C_3   0.779631 0.310405 0.396558 -0.166465
C57   C     C_3   0.810356 0.869809 0.448808 -0.141800
C58   C     C_3   0.249337 0.228609 0.545356 -0.126089
C59   C     C_3   0.189643 0.869809 0.551194 -0.141803
C60   C     C_3   0.750664 0.228608 0.454647 -0.126079
C61   C     C_3   0.310356 0.369809 0.448805 -0.141794
C62   C     C_3   0.749335 0.728609 0.545350 -0.126072
C63   C     C_3   0.689644 0.369809 0.551194 -0.141790
C64   C     C_3   0.250665 0.728609 0.454647 -0.126079
H25   H     H_    0.833876 0.928942 0.410523 0.176099
H26   H     H_    0.224059 0.169983 0.583351 0.174493
H27   H     H_    0.166124 0.928942 0.589481 0.176097
H28   H     H_    0.775942 0.169982 0.416654 0.174491
H29   H     H_    0.333875 0.428941 0.410517 0.176099
H30   H     H_    0.724056 0.669982 0.583342 0.174488
H31   H     H_    0.666125 0.428942 0.589479 0.176101
H32   H     H_    0.275943 0.669983 0.416653 0.174489
H33   H     H_    0.389117 0.277674 0.303623 0.157572
H34   H     H_    0.671479 0.819969 0.691063 0.160502
H35   H     H_    0.610882 0.277676 0.696378 0.157575
H36   H     H_    0.328520 0.819971 0.308935 0.160502
H37   H     H_    0.889118 0.777677 0.303622 0.157569
H38   H     H_    0.171481 0.319972 0.691066 0.160507
H39   H     H_    0.110883 0.777675 0.696378 0.157566
H40   H     H_    0.828520 0.319970 0.308935 0.160506
C65   C     C_3   0.736764 0.842035 0.496902 0.129397
C66   C     C_3   0.323344 0.255058 0.497476 0.134507
C67   C     C_3   0.263236 0.842034 0.503097 0.129399
C68   C     C_3   0.676657 0.255057 0.502525 0.134505
C69   C     C_3   0.236763 0.342032 0.496904 0.129398
C70   C     C_3   0.823341 0.755055 0.497475 0.134507
C71   C     C_3   0.763236 0.342033 0.503097 0.129395
C72   C     C_3   0.176658 0.755056 0.502525 0.134508
C73   C     C_3   0.265880 0.261047 0.439985 -0.013899
C74   C     C_3   0.794781 0.836173 0.554581 -0.109751
C75   C     C_3   0.734119 0.261049 0.560019 -0.013908
C76   C     C_3   0.205218 0.836174 0.445420 -0.109735
C77   C     C_3   0.765881 0.761051 0.439979 -0.013909
C78   C     C_3   0.294783 0.336176 0.554579 -0.109731
C79   C     C_3   0.234120 0.761049 0.560018 -0.013901
C80   C     C_3   0.705218 0.336174 0.445420 -0.109748
C81   C     C_2   0.697190 0.156795 0.018133 -0.241007
C82   C     C_2   0.370003 0.727435 0.821491 -0.248786
C83   C     C_2   0.302809 0.156770 0.981882 -0.240985
C84   C     C_2   0.629999 0.727439 0.178503 -0.248833
C85   C     C_2   0.197189 0.656798 0.018135 -0.241029
C86   C     C_2   0.870004 0.227434 0.821488 -0.248776
C87   C     C_2   0.802811 0.656820 0.981852 -0.241048
C88   C     C_2   0.129993 0.227429 0.178521 -0.248721
C89   C     C_2   0.766527 0.149776 0.962213 0.155922
C90   C     C_2   0.308487 0.723494 0.926213 0.263332
C91   C     C_2   0.233471 0.149763 0.037800 0.155886
C92   C     C_2   0.691508 0.723498 0.073770 0.263342
C93   C     C_2   0.266526 0.649778 0.962215 0.155902
C94   C     C_2   0.808487 0.223493 0.926210 0.263321
C95   C     C_2   0.733474 0.649788 0.037775 0.155936
C96   C     C_2   0.191519 0.223487 0.073811 0.263310
H41   H     H_    0.390142 0.675637 0.767089 0.172822
H42   H     H_    0.678006 0.208047 0.002513 0.162994
H43   H     H_    0.609873 0.675642 0.232903 0.172819
H44   H     H_    0.321998 0.208003 0.997525 0.163037
H45   H     H_    0.890144 0.175636 0.767088 0.172818
H46   H     H_    0.178005 0.708054 0.002518 0.162996
H47   H     H_    0.109839 0.175630 0.232924 0.172820
H48   H     H_    0.821991 0.708092 0.997449 0.162959
N33   N     N_R   0.729866 0.159026 0.298645 0.203715
O1    O     O_R   0.747495 0.227613 0.248447 -0.359775
O2    O     O_R   0.776366 0.102312 0.254239 -0.340886
N34   N     N_R   0.245104 0.911706 0.707157 0.230963
O3    O     O_R   0.184536 0.888180 0.740739 -0.398953
O4    O     O_R   0.247117 0.949358 0.777354 -0.345038
N35   N     N_R   0.270140 0.159033 0.701357 0.203710
O5    O     O_R   0.252521 0.227618 0.751558 -0.359814
O6    O     O_R   0.223635 0.102325 0.745767 -0.340883
N36   N     N_R   0.754896 0.911707 0.292843 0.230963
O7    O     O_R   0.815464 0.888186 0.259263 -0.398950
O8    O     O_R   0.752882 0.949354 0.222643 -0.345059
N37   N     N_R   0.229867 0.659025 0.298645 0.203715
O9    O     O_R   0.247498 0.727612 0.248448 -0.359770
O10   O     O_R   0.276365 0.602309 0.254239 -0.340892
N38   N     N_R   0.745104 0.411702 0.707158 0.230969
O11   O     O_R   0.684536 0.388180 0.740738 -0.398944
O12   O     O_R   0.747117 0.449348 0.777359 -0.345041
N39   N     N_R   0.770127 0.659019 0.701353 0.203720
O13   O     O_R   0.752487 0.727607 0.751548 -0.359734
O14   O     O_R   0.723634 0.602298 0.745754 -0.340893
N40   N     N_R   0.254896 0.411701 0.292842 0.230970
O15   O     O_R   0.315463 0.388173 0.259261 -0.398945
O16   O     O_R   0.252883 0.449351 0.222643 -0.345019
C97   C     C_2   0.250062 0.216855 0.375667 0.496491
H49   H     H_    0.291678 0.205507 0.287150 0.034000
O17   O     O_2   0.190323 0.194260 0.422245 -0.576282
C98   C     C_2   0.812276 0.880646 0.616330 0.717276
H50   H     H_    0.785541 0.936221 0.657924 -0.010337
O18   O     O_2   0.856694 0.855204 0.619572 -0.505424
C99   C     C_2   0.749937 0.216859 0.624338 0.496487
H51   H     H_    0.708320 0.205513 0.712856 0.034004
O19   O     O_2   0.809675 0.194262 0.577762 -0.576281
C100  C     C_2   0.187721 0.880650 0.383675 0.717249
H52   H     H_    0.214456 0.936224 0.342081 -0.010336
O20   O     O_2   0.143301 0.855210 0.380436 -0.505439
C101  C     C_2   0.750064 0.716863 0.375657 0.496484
H53   H     H_    0.791681 0.705518 0.287139 0.034005
O21   O     O_2   0.690325 0.694267 0.422231 -0.576279
C102  C     C_2   0.312280 0.380655 0.616322 0.717233
H54   H     H_    0.285543 0.436228 0.657918 -0.010325
O22   O     O_2   0.356704 0.355220 0.619556 -0.505448
C103  C     C_2   0.249938 0.716860 0.624337 0.496488
H55   H     H_    0.208321 0.705513 0.712855 0.034002
O23   O     O_2   0.309677 0.694264 0.577761 -0.576280
C104  C     C_2   0.687722 0.380651 0.383674 0.717266
H56   H     H_    0.714458 0.436224 0.342079 -0.010328
O24   O     O_2   0.643301 0.355212 0.380436 -0.505432
N41   N     N_R   0.282529 0.790664 0.002282 0.273344
O25   O     O_R   0.216377 0.796323 0.090819 -0.324131
O26   O     O_R   0.326502 0.839808 0.992726 -0.330858
N42   N     N_R   0.796600 0.074384 0.956659 0.251430
O27   O     O_R   0.764602 0.007794 0.971919 -0.304728
O28   O     O_R   0.857011 0.071886 0.933257 -0.313764
N43   N     N_R   0.717460 0.790661 0.997689 0.273352
O29   O     O_R   0.783581 0.796226 0.909026 -0.324134
O30   O     O_R   0.673490 0.839872 0.007346 -0.330897
N44   N     N_R   0.203393 0.074380 0.043341 0.251436
O31   O     O_R   0.235384 0.007783 0.028073 -0.304692
O32   O     O_R   0.142983 0.071897 0.066735 -0.313745
N45   N     N_R   0.782529 0.290664 0.002276 0.273344
O33   O     O_R   0.716373 0.296337 0.090794 -0.324130
O34   O     O_R   0.826502 0.339799 0.992735 -0.330836
N46   N     N_R   0.296598 0.574384 0.956658 0.251442
O35   O     O_R   0.264598 0.507796 0.971918 -0.304675
O36   O     O_R   0.357010 0.571883 0.933254 -0.313725
N47   N     N_R   0.217480 0.290664 0.997758 0.273334
O37   O     O_R   0.283672 0.296449 0.909391 -0.324129
O38   O     O_R   0.173503 0.339716 0.007177 -0.330788
N48   N     N_R   0.703409 0.574386 0.043343 0.251436
O39   O     O_R   0.735415 0.507805 0.028088 -0.304710
O40   O     O_R   0.642995 0.571871 0.066754 -0.313747

loop_
_geom_bond_atom_site_label_1
_geom_bond_atom_site_label_2
_geom_bond_distance
_ccdc_geom_bond_type
C48   C69   1.447756 S    
N36   O8    1.300215 A    
N39   O13   1.299744 A    
N5    N31   1.381669 A    
C27   N27   1.348591 A    
C8    N8    1.333752 A    
C89   N42   1.444321 S    
N14   Ni8   1.859130 S    
C2    N2    1.333751 A    
C55   H39   1.109928 S    
C31   C37   1.378871 A    
C29   H21   1.081423 S    
N43   O29   1.300854 A    
C8    C40   1.373338 A    
C3    H3    1.074395 S    
N29   Ni8   1.858886 S    
C67   C79   1.526655 S    
C102  H54   1.084427 S    
N10   N18   1.354581 A    
C96   N47   1.453814 S    
C31   H23   1.081422 S    
N33   O1    1.299748 A    
C27   H19   1.081425 S    
C22   N38   1.438225 S    
N47   O37   1.301001 A    
N6    Ni4   1.882382 S    
C14   H14   1.081168 S    
C56   H40   1.109809 S    
C60   C68   1.541106 S    
C11   C43   1.377162 A    
N19   Ni1   1.886306 S    
N14   N22   1.354581 A    
C85   H46   1.087020 S    
C3    C35   1.373298 A    
C30   H22   1.079532 S    
C63   H31   1.110186 S    
N4    N26   1.381669 A    
C99   O19   1.220102 D    
C68   C80   1.528191 S    
C40   C86   1.449277 S    
C50   C62   1.543612 S    
N40   O16   1.300217 A    
N47   O38   1.301676 A    
N31   Ni7   1.858884 S    
C42   C67   1.447752 S    
N7    Ni4   1.882382 S    
C85   C93   1.345590 D    
N15   Ni8   1.859129 S    
C6    N6    1.333752 A    
C23   C47   1.385821 A    
C27   C33   1.378859 A    
C25   H17   1.081424 S    
N42   O27   1.302017 A    
C60   H28   1.110510 S    
N34   O4    1.300216 A    
C54   C58   1.543612 S    
C64   C72   1.541106 S    
N13   N21   1.354582 A    
N37   O10   1.299761 A    
N21   Ni4   1.886303 S    
C53   C57   1.556953 S    
N3    Ni2   1.882382 S    
C82   H41   1.086787 S    
N48   O40   1.301353 A    
C20   N20   1.330475 A    
C47   C70   1.451251 S    
C63   C71   1.537601 S    
C25   N25   1.348595 A    
C10   H10   1.081169 S    
C2    H2    1.078850 S    
C72   C76   1.528190 S    
C21   C45   1.385818 A    
N38   O11   1.298746 A    
C6    C38   1.373345 A    
C23   N23   1.336226 A    
N2    N28   1.381672 A    
C89   C94   1.475881 S    
C24   N24   1.330480 A    
C3    N3    1.327895 A    
C53   C70   1.537297 S    
N11   Ni6   1.859129 S    
C71   C75   1.526655 S    
C4    H4    1.078851 S    
C24   N40   1.438224 S    
C83   C91   1.345582 D    
N41   O25   1.300921 A    
C5    H5    1.074395 S    
C92   C95   1.475880 S    
N11   N19   1.354581 A    
C46   C71   1.447752 S    
C81   C89   1.345589 D    
N12   Ni5   1.859129 S    
C12   C44   1.373515 A    
C7    H7    1.074393 S    
N17   Ni2   1.886303 S    
C51   C63   1.556955 S    
C18   N34   1.438223 S    
C8    H8    1.078849 S    
C15   N15   1.330085 A    
N45   O33   1.300931 A    
C77   C101  1.498495 S    
C16   N16   1.332286 A    
N37   O9    1.299747 A    
C86   H45   1.086784 S    
C21   N21   1.336229 A    
C39   C85   1.462680 S    
C62   H30   1.110510 S    
C32   N32   1.346458 A    
N46   O36   1.301357 A    
N24   Ni4   1.886303 S    
C59   C76   1.547356 S    
C19   C43   1.385818 A    
C53   H37   1.109928 S    
C90   N41   1.453853 S    
C18   C42   1.374204 A    
C86   C94   1.339116 D    
C57   C74   1.547354 S    
C53   C77   1.534597 S    
N35   O5    1.299749 A    
C28   N28   1.346444 A    
N26   Ni5   1.858886 S    
C94   N45   1.453848 S    
C1    H1    1.074392 S    
C24   C48   1.374208 A    
C54   H38   1.109808 S    
C9    N9    1.330089 A    
N44   O32   1.301358 A    
C61   C78   1.547356 S    
C49   C73   1.534596 S    
N22   Ni3   1.886305 S    
C22   N22   1.330475 A    
C51   H35   1.109928 S    
C11   H11   1.079470 S    
C58   H26   1.110511 S    
C51   C68   1.537296 S    
C12   N12   1.332285 A    
N28   Ni6   1.858884 S    
C32   H24   1.079531 S    
C36   C82   1.449275 S    
C34   C84   1.449260 S    
N34   O3    1.298747 A    
N1    N27   1.381669 A    
C5    N5    1.327882 A    
C18   N18   1.330473 A    
C49   C66   1.537299 S    
C15   C47   1.377162 A    
C54   C69   1.537320 S    
C30   C40   1.382843 A    
C99   H51   1.084468 S    
N35   O6    1.299763 A    
C101  H53   1.084468 S    
C29   N29   1.348594 A    
N1    Ni1   1.882382 S    
C26   N26   1.346451 A    
N39   O14   1.299760 A    
C28   C34   1.382843 A    
C103  H55   1.084466 S    
C82   C90   1.339118 D    
C44   C65   1.447746 S    
C88   H47   1.086788 S    
C23   N39   1.430113 S    
C14   C46   1.373517 A    
C16   C48   1.373517 A    
C97   H49   1.084467 S    
C13   C45   1.377162 A    
N43   O30   1.301626 A    
N8    Ni3   1.882383 S    
N15   N23   1.354581 A    
N25   Ni6   1.858886 S    
C104  O24   1.220128 D    
N41   O26   1.301650 A    
C37   C87   1.462676 S    
N5    Ni3   1.882382 S    
C84   H43   1.086782 S    
C61   C69   1.537599 S    
C32   C38   1.382845 A    
C10   C42   1.373517 A    
C31   N31   1.348600 A    
C93   N46   1.444322 S    
C9    C41   1.377162 A    
N9    Ni5   1.859130 S    
C103  O23   1.220101 D    
C43   C66   1.451262 S    
C59   C67   1.537598 S    
N6    N32   1.381672 A    
C79   C103  1.498497 S    
N45   O34   1.301647 A    
C91   N44   1.444324 S    
N7    N29   1.381672 A    
C41   C68   1.451259 S    
C80   C104  1.496465 S    
C54   C78   1.542388 S    
C19   N19   1.336232 A    
C52   C64   1.543612 S    
N16   N24   1.354582 A    
C38   C88   1.449294 S    
C20   N36   1.438225 S    
C30   N30   1.346452 A    
C75   C99   1.498495 S    
C16   H16   1.081169 S    
C19   N35   1.430110 S    
N46   O35   1.302017 A    
C10   N10   1.332283 A    
C95   N48   1.444320 S    
C87   C95   1.345594 D    
N4    Ni1   1.882383 S    
C91   C96   1.475881 S    
C62   C77   1.523708 S    
C61   H29   1.110186 S    
C55   C72   1.537297 S    
C25   C35   1.378865 A    
C84   C92   1.339127 D    
C56   C71   1.537319 S    
C1    C33   1.373307 A    
C2    C34   1.373333 A    
C59   H27   1.110185 S    
N40   O15   1.298744 A    
C1    N1    1.327908 A    
C22   C46   1.374205 A    
C50   H34   1.109808 S    
C50   C65   1.537315 S    
C57   H25   1.110186 S    
C29   C39   1.378864 A    
C102  O22   1.220131 D    
C52   C67   1.537316 S    
C5    C37   1.373295 A    
N13   Ni7   1.859130 S    
N38   O12   1.300216 A    
C66   C78   1.528191 S    
N20   Ni2   1.886303 S    
C55   C59   1.556952 S    
C26   C36   1.382844 A    
C28   H20   1.079530 S    
C7    C39   1.373302 A    
C65   C77   1.526658 S    
C45   C72   1.451256 S    
C74   C98   1.496464 S    
C14   N14   1.332284 A    
C100  O20   1.220129 D    
C49   H33   1.109928 S    
C21   N37   1.430112 S    
N18   Ni1   1.886305 S    
N48   O39   1.302013 A    
C64   H32   1.110510 S    
N30   Ni7   1.858886 S    
C51   C75   1.534595 S    
N9    N17   1.354582 A    
C6    H6    1.078850 S    
C101  O21   1.220102 D    
N27   Ni5   1.858884 S    
C56   C80   1.542386 S    
N32   Ni8   1.858884 S    
C73   C97   1.498495 S    
C62   C70   1.541104 S    
C100  H52   1.084429 S    
C17   N17   1.336231 A    
N8    N30   1.381669 A    
N2    Ni2   1.882382 S    
N12   N20   1.354582 A    
C7    N7    1.327894 A    
C69   C73   1.526654 S    
N44   O31   1.302016 A    
C49   C61   1.556952 S    
C78   C102  1.496463 S    
C97   O17   1.220102 D    
N42   O28   1.301356 A    
N36   O7    1.298745 A    
C57   C65   1.537598 S    
C58   C66   1.541107 S    
C50   C74   1.542387 S    
N10   Ni6   1.859130 S    
C104  H56   1.084429 S    
C58   C73   1.523710 S    
C52   C76   1.542388 S    
N33   O2    1.299761 A    
C98   O18   1.220129 D    
C17   C41   1.385819 A    
C4    N4    1.333750 A    
C92   N43   1.453877 S    
C11   N11   1.330089 A    
N16   Ni7   1.859129 S    
C17   N33   1.430111 S    
C98   H50   1.084428 S    
C12   H12   1.081169 S    
C55   C79   1.534596 S    
C70   C74   1.528190 S    
C60   C75   1.523707 S    
C13   H13   1.079469 S    
C83   H44   1.087021 S    
C15   H15   1.079470 S    
C20   C44   1.374203 A    
C35   C81   1.462682 S    
C76   C100  1.496465 S    
C88   C96   1.339103 D    
C52   H36   1.109808 S    
C81   H42   1.087019 S    
N3    N25   1.381672 A    
N23   Ni3   1.886306 S    
C63   C80   1.547354 S    
C33   C83   1.462687 S    
C87   H48   1.087016 S    
C13   N13   1.330087 A    
C56   C60   1.543611 S    
C64   C79   1.523708 S    
C9    H9    1.079471 S    
C4    C36   1.373339 A    
C90   C93   1.475882 S    
C26   H18   1.079530 S    
