data_mof_unit_7041.cif
_audit_creation_date              2012-12-11T17:01:15-0500
_audit_creation_method            fapswitch 2.2
_symmetry_space_group_name_H-M    P1
_symmetry_Int_Tables_number       1
_space_group_crystal_system       triclinic
_cell_length_a                    19.414193
_cell_length_b                    7.08364
_cell_length_c                    17.624007
_cell_angle_alpha                 90.000742
_cell_angle_beta                  108.689314
_cell_angle_gamma                 89.998489
_cell_volume                      2295.90699188

loop_
_atom_site_label
_atom_site_type_symbol
_atom_type_description
_atom_site_fract_x
_atom_site_fract_y
_atom_site_fract_z
_atom_type_partial_charge
O1    O     O_R   0.413720 0.494330 0.415730 -0.549362
O2    O     O_R   0.586280 0.994330 0.584270 -0.549370
O3    O     O_R   0.560210 0.819300 0.430070 -0.539843
O4    O     O_R   0.439790 0.319300 0.569930 -0.539843
C1    C     C_R   0.579377 0.655183 0.412088 0.758636
C2    C     C_R   0.420622 0.155187 0.587912 0.758649
O5    O     O_R   0.412670 0.823730 0.406310 -0.532459
O6    O     O_R   0.587330 0.323730 0.593690 -0.532462
O7    O     O_R   0.437690 0.998790 0.560340 -0.530182
O8    O     O_R   0.562310 0.498790 0.439660 -0.530184
C3    C     C_R   0.385117 0.655293 0.383712 0.738233
C4    C     C_R   0.614881 0.155290 0.616290 0.738210
O9    O     O_3   0.508380 0.662350 0.550560 -0.377798
O10   O     O_3   0.491620 0.162350 0.449440 -0.377779
V1    V     V_3+5 0.498450 0.935370 0.490620 1.514108
V2    V     V_3+5 0.501550 0.435370 0.509380 1.514103
C5    C     C_R   0.735325 0.001855 0.688652 0.097779
C6    C     C_R   0.264673 0.501864 0.311355 0.097721
C7    C     C_R   0.685155 0.148189 0.682291 -0.089492
C8    C     C_R   0.314841 0.648200 0.317715 -0.089441
C9    C     C_R   0.706621 0.295662 0.738839 -0.111622
C10   C     C_R   0.293370 0.795671 0.261166 -0.111676
H1    H     H_    0.671422 0.416015 0.735253 0.129131
H2    H     H_    0.328566 0.916028 0.264752 0.129118
C11   C     C_R   0.771943 0.283991 0.803693 -0.197250
C12   C     C_R   0.228050 0.783992 0.196309 -0.197274
H3    H     H_    0.784806 0.396039 0.847760 0.129178
H4    H     H_    0.215185 0.896038 0.152242 0.129191
C13   C     C_R   0.817775 0.124497 0.814024 -0.118419
C14   C     C_R   0.182225 0.624490 0.185976 -0.118378
C15   C     C_R   0.799335 0.989816 0.752714 0.165598
C16   C     C_R   0.200667 0.489811 0.247289 0.165544
C17   C     C_3   0.796982 0.778565 0.753784 -0.317309
C18   C     C_3   0.203029 0.278560 0.246227 -0.317234
C19   C     C_3   0.726786 0.792136 0.681302 -0.273712
C20   C     C_3   0.273220 0.292151 0.318716 -0.273782
H5    H     H_    0.787115 0.724251 0.808550 0.111375
H6    H     H_    0.212910 0.224223 0.191472 0.111423
H7    H     H_    0.677388 0.742962 0.694395 0.113624
H8    H     H_    0.322623 0.242974 0.305632 0.113683
C21   C     C_R   0.325157 0.998706 0.631970 -0.150924
C22   C     C_R   0.674852 0.498709 0.368036 -0.151029
C23   C     C_R   0.374612 0.147598 0.641310 -0.148922
C24   C     C_R   0.625388 0.647589 0.358691 -0.148857
C25   C     C_R   0.377463 0.290260 0.698585 -0.059145
C26   C     C_R   0.622528 0.790241 0.301412 -0.059131
C27   C     C_R   0.327589 0.285889 0.742583 0.010086
C28   C     C_R   0.672411 0.785891 0.257423 0.010110
C29   C     C_R   0.277262 0.134780 0.731628 0.068272
C30   C     C_R   0.722748 0.634799 0.268384 0.068346
C31   C     C_R   0.277029 0.987390 0.677187 0.046015
C32   C     C_R   0.722985 0.487408 0.322826 0.045967
C33   C     C_R   0.328523 0.426950 0.799159 -0.225273
C34   C     C_R   0.671476 0.926957 0.200851 -0.225310
C35   C     C_R   0.280820 0.424309 0.843927 -0.051107
C36   C     C_R   0.719178 0.924321 0.156081 -0.051064
C37   C     C_R   0.228632 0.277835 0.831229 0.017521
C38   C     C_R   0.771368 0.777849 0.168774 0.017514
C39   C     C_R   0.227739 0.130760 0.775822 0.061821
C40   C     C_R   0.772273 0.630789 0.224192 0.061855
C41   C     C_R   0.177843 0.978914 0.765571 0.074870
C42   C     C_R   0.822183 0.478965 0.234455 0.074815
C43   C     C_R   0.177043 0.832083 0.710302 -0.054694
C44   C     C_R   0.822989 0.332138 0.289726 -0.054633
C45   C     C_R   0.227207 0.835122 0.666853 -0.072182
C46   C     C_R   0.772814 0.335149 0.333163 -0.072171
C47   C     C_R   0.176855 0.275597 0.871833 -0.185965
C48   C     C_R   0.823138 0.775601 0.128161 -0.186022
C49   C     C_R   0.130100 0.122242 0.865301 -0.098510
C50   C     C_R   0.869906 0.622263 0.134707 -0.098501
C51   C     C_R   0.131835 0.973785 0.813525 -0.134450
C52   C     C_R   0.868193 0.473838 0.186504 -0.134490
H9    H     H_    0.323369 0.894329 0.586660 0.153408
H10   H     H_    0.676646 0.394334 0.413348 0.153362
H11   H     H_    0.368174 0.539447 0.811139 0.190537
H12   H     H_    0.631831 0.039463 0.188880 0.190544
H13   H     H_    0.173039 0.391232 0.910186 0.160439
H14   H     H_    0.826937 0.891212 0.089790 0.160445
H15   H     H_    0.096521 0.854701 0.811227 0.175250
H16   H     H_    0.903523 0.354775 0.188820 0.175279
O11   O     O_R   0.937800 0.775460 0.060470 -0.541543
O12   O     O_R   0.062200 0.275460 0.939530 -0.541548
O13   O     O_R   0.087350 0.441340 0.093710 -0.533934
O14   O     O_R   0.912650 0.941340 0.906290 -0.534021
C53   C     C_R   0.114899 0.610357 0.116262 0.726574
C54   C     C_R   0.885102 0.110361 0.883738 0.726480
O15   O     O_R   0.939820 0.446010 0.069950 -0.539485
O16   O     O_R   0.060180 0.946010 0.930050 -0.539529
O17   O     O_R   0.913690 0.271230 0.915700 -0.547931
O18   O     O_R   0.086310 0.771230 0.084300 -0.547921
C55   C     C_R   0.919051 0.614396 0.085343 0.720096
C56   C     C_R   0.080951 0.114390 0.914659 0.720066
O19   O     O_3   0.991670 0.603050 0.949510 -0.374166
O20   O     O_3   0.008330 0.103050 0.050490 -0.374067
V3    V     V_3+5 0.001550 0.329940 0.009370 1.472150
V4    V     V_3+5 0.998450 0.829940 0.990630 1.472021
C57   C     C_2   0.290325 0.574389 0.905544 0.744467
O21   O     O_2   0.287429 0.536205 0.972117 -0.559688
O22   O     O_R   0.307077 0.758383 0.888639 -0.666015
H17   H     H_    0.312752 0.848191 0.935037 0.308106
C58   C     C_2   0.709681 0.074432 0.094481 0.744436
O23   O     O_2   0.712552 0.036270 0.027893 -0.559675
O24   O     O_R   0.692969 0.258437 0.111424 -0.666025
H18   H     H_    0.687285 0.348268 0.065027 0.308092
C59   C     C_2   0.125450 0.670856 0.698481 0.490075
H19   H     H_    0.145065 0.527332 0.698758 0.056843
O25   O     O_2   0.060349 0.697590 0.683804 -0.472738
C60   C     C_2   0.874581 0.170926 0.301531 0.490160
H20   H     H_    0.854960 0.027409 0.301189 0.056846
O26   O     O_2   0.939684 0.197665 0.316261 -0.472749
C61   C     C_2   0.227209 0.679075 0.609933 0.393097
H21   H     H_    0.277997 0.617966 0.608650 0.080952
O27   O     O_2   0.170477 0.620097 0.562837 -0.476834
C62   C     C_2   0.772774 0.179024 0.390036 0.393123
H22   H     H_    0.721958 0.118033 0.391310 0.080892
O28   O     O_2   0.829503 0.119836 0.437097 -0.476828
C63   C     C_2   0.861357 0.685275 0.738647 0.520593
H23   H     H_    0.860105 0.534338 0.727822 0.071507
O29   O     O_2   0.915086 0.775872 0.739251 -0.489622
C64   C     C_2   0.138653 0.185275 0.261358 0.520458
H24   H     H_    0.139971 0.034428 0.272369 0.071685
O30   O     O_2   0.084848 0.275764 0.260533 -0.489760
C65   C     C_2   0.731637 0.718944 0.602591 0.811239
O31   O     O_2   0.727436 0.549229 0.589437 -0.569564
O32   O     O_R   0.741032 0.843918 0.545191 -0.639683
H25   H     H_    0.745484 0.776703 0.496228 0.303304
C66   C     C_2   0.268366 0.218979 0.397429 0.811067
O33   O     O_2   0.272583 0.049271 0.410597 -0.569580
O34   O     O_R   0.258952 0.343964 0.454816 -0.639704
H26   H     H_    0.254499 0.276760 0.503781 0.303280
C67   C     C_2   0.435052 0.437314 0.714838 0.762111
O35   O     O_2   0.418631 0.603898 0.702950 -0.575257
O36   O     O_R   0.508153 0.383230 0.741343 -0.659703
H27   H     H_    0.542371 0.494905 0.748992 0.288078
C68   C     C_2   0.564909 0.937228 0.285129 0.762115
O37   O     O_2   0.581294 0.103837 0.296992 -0.575222
O38   O     O_R   0.491818 0.883046 0.258627 -0.659709
H28   H     H_    0.457575 0.994678 0.250944 0.288074

loop_
_geom_bond_atom_site_label_1
_geom_bond_atom_site_label_2
_ccdc_geom_bond_type
C43   C45   A    
C17   C63   S    
C58   O23   D    
O15   C55   A    
C61   H21   S    
C47   H13   S    
O2    C4    A    
C2    O7    A    
C51   H15   S    
C62   H22   S    
C32   C46   A    
C65   O31   D    
C27   C29   A    
C28   C34   A    
C59   O25   D    
C7    C9    A    
O14   C54   A    
C36   C58   S    
C63   O29   D    
O14   V4    S    
C65   O32   S    
C38   C40   A    
C57   O21   D    
O12   C56   A    
C60   H20   S    
C40   C42   A    
C31   C45   A    
C25   C27   A    
C49   C51   A    
C45   C61   S    
C42   C44   A    
C17   C19   S    
C26   C68   S    
O16   C56   A    
C64   O30   D    
C29   C31   A    
O15   V3    S    
C30   C32   A    
C15   C17   S    
C36   C38   A    
C43   C59   S    
C49   C56   S    
C68   O37   D    
C18   C20   S    
C27   C33   A    
C41   C51   A    
O6    V2    S    
C28   C30   A    
C58   O24   S    
C48   H14   S    
C21   C23   A    
C33   H11   S    
C22   C24   A    
C37   C47   A    
C13   C15   A    
O4    V2    S    
C57   O22   S    
C24   C26   A    
C44   C60   S    
C26   C28   A    
C33   C35   A    
C11   C13   A    
C34   C36   A    
C3    C8    S    
C22   H10   S    
C39   C41   A    
C20   H8    S    
O4    C2    A    
O11   V4    S    
O5    V1    S    
C67   O36   S    
C16   C18   S    
O18   V4    S    
C17   H5    S    
O16   V4    S    
C47   C49   A    
C44   C46   A    
O17   V3    S    
C19   H7    S    
C66   O34   S    
O5    C3    A    
O22   H17   S    
O6    C4    A    
O13   V3    S    
C35   C57   S    
C41   C43   A    
C42   C52   A    
C61   O27   D    
O1    V2    S    
C14   C53   S    
O20   V4    S    
O2    V1    S    
C23   C25   A    
C50   C55   S    
C13   C54   S    
C34   H12   S    
C38   C48   A    
O13   C53   A    
C1    C24   S    
C8    C10   A    
C25   C67   S    
O19   V4    S    
C2    C23   S    
C9    H1    S    
O36   H27   S    
C5    C15   A    
C10   H2    S    
C20   C66   S    
C6    C16   A    
C67   O35   D    
O3    V1    S    
C64   H24   S    
O34   H26   S    
C59   H19   S    
C68   O38   S    
C9    C11   A    
O12   V3    S    
C46   C62   S    
C18   H6    S    
O3    C1    A    
C54   O17   A    
C62   O28   D    
C53   O18   A    
C12   C14   A    
C11   H3    S    
O38   H28   S    
C12   H4    S    
C29   C39   A    
C30   C40   A    
C35   C37   A    
O7    V1    S    
C1    O8    A    
C52   H16   S    
O8    V2    S    
C63   H23   S    
C14   C16   A    
O32   H25   S    
C4    C7    S    
C19   C65   S    
C5    C7    A    
C60   O26   D    
C6    C8    A    
O20   V3    S    
C37   C39   A    
C21   H9    S    
O11   C55   A    
C18   C64   S    
O19   V3    S    
C10   C12   A    
O9    V2    S    
O24   H18   S    
C48   C50   A    
O10   V1    S    
C50   C52   A    
O1    C3    A    
C5    C19   S    
C6    C20   S    
C21   C31   A    
C66   O33   D    
C22   C32   A    
