data_mof_unit_40576.cif
_audit_creation_date              2012-12-10T17:12:04-0500
_audit_creation_method            fapswitch 2.2
_symmetry_space_group_name_H-M    P1
_symmetry_Int_Tables_number       1
_space_group_crystal_system       triclinic
_cell_length_a                    11.670667
_cell_length_b                    13.003088
_cell_length_c                    15.547517
_cell_angle_alpha                 92.081708
_cell_angle_beta                  74.549735
_cell_angle_gamma                 99.341298
_cell_volume                      2243.92794481

loop_
_atom_site_label
_atom_site_type_symbol
_atom_type_description
_atom_site_fract_x
_atom_site_fract_y
_atom_site_fract_z
_atom_type_partial_charge
C1    C     C_R   0.520338 0.700335 0.500779 0.840802
C2    C     C_R   0.479623 0.299699 0.499321 0.839996
C3    C     C_R   0.382996 0.350123 0.074441 0.173799
C4    C     C_R   0.656655 0.448936 0.901576 0.108286
C5    C     C_R   0.297012 0.330553 0.024944 0.143908
C6    C     C_R   0.742440 0.473467 0.951483 0.081799
C7    C     C_R   0.466546 0.187230 0.506354 -0.079043
C8    C     C_R   0.533374 0.812893 0.493961 -0.080917
C9    C     C_R   0.638446 0.972800 0.416708 -0.199729
C10   C     C_R   0.361766 0.027504 0.584004 -0.200012
C11   C     C_R   0.631281 0.866419 0.429642 0.092653
C12   C     C_R   0.369133 0.133945 0.571199 0.095518
C13   C     C_R   0.443904 0.866247 0.547101 0.046646
C14   C     C_R   0.555738 0.133804 0.453003 0.046023
C15   C     C_R   0.451173 0.973297 0.533277 0.100522
C16   C     C_R   0.548715 0.026864 0.467108 0.100363
C17   C     C_R   0.936696 0.590653 0.588653 0.131232
C18   C     C_R   0.063414 0.409499 0.411155 0.147388
C19   C     C_R   0.819317 0.582255 0.578955 0.060938
C20   C     C_R   0.180737 0.417790 0.420986 0.061344
C21   C     C_R   0.861236 0.462331 0.460854 0.050747
C22   C     C_R   0.138730 0.537617 0.539153 0.046415
C23   C     C_R   0.427148 0.491739 0.668918 0.808926
C24   C     C_R   0.572780 0.504574 0.330964 0.812684
C25   C     C_R   0.980892 0.467376 0.467406 -0.034520
C26   C     C_R   0.019097 0.532570 0.532568 -0.030101
C27   C     C_R   0.384173 0.465239 0.764752 -0.132747
C28   C     C_R   0.617314 0.501143 0.233018 -0.117144
C29   C     C_R   0.233154 0.373267 0.888247 0.161169
C30   C     C_R   0.783738 0.521704 0.099171 0.174344
C31   C     C_R   0.267441 0.414850 0.801792 -0.139344
C32   C     C_R   0.739861 0.526836 0.191578 -0.157948
C33   C     C_R   0.466317 0.477534 0.816145 -0.165922
C34   C     C_R   0.537631 0.469191 0.180996 -0.247097
C35   C     C_R   0.440501 0.427529 0.899342 0.059188
C36   C     C_R   0.578984 0.452460 0.088701 0.020931
C37   C     C_R   0.320611 0.376765 0.938783 -0.019267
C38   C     C_R   0.703643 0.483254 0.045560 0.088899
C39   C     C_R   0.531598 0.432055 0.945350 0.019846
C40   C     C_R   0.496595 0.412893 0.037873 -0.074836
Cu1   Cu    Cu3+1 0.386820 0.492450 0.493500 0.954758
Cu2   Cu    Cu3+1 0.613180 0.507550 0.506500 0.960388
H1    H     H_    0.243882 0.373514 0.377894 0.144893
H2    H     H_    0.756215 0.626562 0.622073 0.153942
H3    H     H_    0.442498 0.459138 0.213154 0.165662
H4    H     H_    0.551283 0.527492 0.789964 0.176706
H5    H     H_    0.802477 0.554061 0.231059 0.182984
H6    H     H_    0.201914 0.406399 0.762956 0.178528
H7    H     H_    0.714264 0.012193 0.366212 0.195677
H8    H     H_    0.286189 0.988219 0.634747 0.195144
H9    H     H_    0.170647 0.586423 0.588323 0.168070
H10   H     H_    0.829283 0.413487 0.411716 0.165441
N1    N     N_R   0.216750 0.481110 0.483710 -0.208961
N2    N     N_R   0.783250 0.518890 0.516290 -0.207028
O1    O     O_R   0.419950 0.645670 0.495380 -0.594460
O2    O     O_R   0.580050 0.354330 0.504620 -0.594430
O3    O     O_R   0.611110 0.658410 0.506370 -0.554796
O4    O     O_R   0.388890 0.341590 0.493630 -0.556944
O5    O     O_R   0.350820 0.490050 0.621260 -0.580834
O6    O     O_R   0.649180 0.509950 0.378740 -0.580365
O7    O     O_R   0.541970 0.502800 0.632250 -0.580598
O8    O     O_R   0.458030 0.497200 0.367750 -0.587521
N3    N     N_3   0.191597 0.256628 0.062990 -0.532379
H11   H     H_    0.184069 0.194049 0.019776 0.223392
H12   H     H_    0.115017 0.292318 0.081706 0.243810
N4    N     N_3   0.868285 0.487925 0.905973 -0.616293
H13   H     H_    0.887395 0.548577 0.859534 0.263230
H14   H     H_    0.889589 0.419375 0.872873 0.240574
Br1   Br    Br    0.978393 0.682462 0.678969 -0.607120
Br2   Br    Br    0.022285 0.318823 0.319927 -0.578848
N5    N     N_3   0.108057 0.332248 0.921293 -0.612521
H15   H     H_    0.070908 0.371252 0.979186 0.223997
H16   H     H_    0.095405 0.251788 0.930322 0.222931
N6    N     N_3   0.909280 0.559775 0.063383 -0.581031
H17   H     H_    0.919895 0.619360 0.017233 0.255993
H18   H     H_    0.953254 0.498540 0.034041 0.252129
N7    N     N_3   0.360215 0.288386 0.154069 -0.536974
H19   H     H_    0.439876 0.276491 0.168002 0.222574
H20   H     H_    0.306037 0.323827 0.207594 0.241354
N8    N     N_3   0.696635 0.427976 0.807789 -0.593998
H21   H     H_    0.743900 0.364993 0.798894 0.232533
H22   H     H_    0.753863 0.493449 0.775392 0.235072
N9    N     N_3   0.652406 0.186732 0.383399 -0.580434
H23   H     H_    0.709524 0.238484 0.412206 0.259001
H24   H     H_    0.616630 0.228222 0.343156 0.214278
N10   N     N_3   0.346646 0.813131 0.616174 -0.579036
H25   H     H_    0.289845 0.761711 0.586848 0.260662
H26   H     H_    0.381834 0.771268 0.656538 0.214986
N11   N     N_3   0.279793 0.188839 0.626605 -0.569131
H27   H     H_    0.195664 0.154818 0.618786 0.235666
H28   H     H_    0.279267 0.178658 0.693129 0.219948
N12   N     N_3   0.721418 0.811846 0.374869 -0.565364
H29   H     H_    0.805051 0.846004 0.383550 0.238367
H30   H     H_    0.723086 0.822262 0.308147 0.220640

loop_
_geom_bond_atom_site_label_1
_geom_bond_atom_site_label_2
_ccdc_geom_bond_type
C18   Br2   S    
N4    H14   S    
N3    H12   S    
C17   Br1   S    
C8    C13   A    
C5    C37   A    
C1    C8    S    
Cu1   Cu2   S    
C2    C7    S    
N7    H19   S    
C27   C33   A    
C23   O5    A    
C30   C38   A    
N6    H18   S    
C17   C26   A    
C14   N9    S    
C35   C37   A    
C9    C16   A    
Cu1   O4    S    
C4    N8    S    
C10   C15   A    
C21   N2    A    
C30   N6    S    
N10   H26   S    
C15   C16   A    
C5    N3    S    
Cu1   O1    S    
Cu2   O2    S    
C11   N12   S    
C7    C14   A    
C13   N10   S    
C6    C38   A    
C23   C27   S    
N11   H28   S    
C18   C20   A    
N4    H13   S    
C28   C34   A    
C33   H4    S    
C18   C25   A    
Cu1   O8    S    
Cu2   O3    S    
C22   N1    A    
N7    H20   S    
C7    C12   A    
N6    H17   S    
C27   C31   A    
C12   N11   S    
C28   C32   A    
C9    H7    S    
Cu1   O5    S    
C4    C6    A    
Cu2   O6    S    
C39   C40   A    
N5    H16   S    
N10   H25   S    
C20   N1    A    
C25   C26   A    
C35   C39   A    
C1    O3    A    
N9    H23   S    
C4    C39   A    
C36   C40   A    
C24   O6    A    
N12   H30   S    
C34   H3    S    
C9    C11   A    
Cu2   O7    S    
Cu1   N1    S    
C10   C12   A    
C19   N2    A    
N8    H22   S    
N9    H24   S    
C3    C40   A    
C31   H6    S    
C13   C15   A    
C32   H5    S    
C14   C16   A    
C10   H8    S    
C20   H1    S    
C19   H2    S    
C23   O7    A    
C21   C25   A    
C24   O8    A    
C24   C28   S    
N8    H21   S    
C3    C5    A    
C2    O4    A    
C36   C38   A    
C1    O1    A    
N5    H15   S    
C29   C31   A    
C2    O2    A    
Cu2   N2    S    
C30   C32   A    
C33   C35   A    
C8    C11   A    
N12   H29   S    
C17   C19   A    
C34   C36   A    
N3    H11   S    
C6    N4    S    
C22   C26   A    
C29   C37   A    
N11   H27   S    
C21   H10   S    
C22   H9    S    
C29   N5    S    
C3    N7    S    
