data_mof_unit_18057.cif
_audit_creation_date              2013-03-05T15:51:32-0500
_audit_creation_method            fapswitch 2.2
_symmetry_space_group_name_H-M    P1
_symmetry_Int_Tables_number       1
_space_group_crystal_system       triclinic
_cell_length_a                    15.88705
_cell_length_b                    10.860109
_cell_length_c                    9.594777
_cell_angle_alpha                 90.496709
_cell_angle_beta                  90.325992
_cell_angle_gamma                 92.715702
_cell_volume                      1653.48360844

loop_
_atom_site_label
_atom_site_type_symbol
_atom_site_description
_atom_site_fract_x
_atom_site_fract_y
_atom_site_fract_z
_atom_type_partial_charge
O1    O     O_R   0.499990 0.319640 0.618810 -0.599169
O2    O     O_R   0.500000 0.319660 0.381240 -0.543804
C1    C     C_R   0.507536 0.263315 0.500503 0.818955
O3    O     O_R   0.379430 0.499990 0.618840 -0.583454
O4    O     O_R   0.379440 0.500020 0.381260 -0.520734
C2    C     C_R   0.340324 0.499592 0.499700 0.840760
Cu1   Cu    Cu3+1 0.499990 0.499990 0.640660 0.949175
Cu2   Cu    Cu3+1 0.500010 0.500010 0.359340 1.010843
O5    O     O_R   0.500000 0.680340 0.618760 -0.614360
O6    O     O_R   0.500010 0.680360 0.381190 -0.606734
O7    O     O_R   0.620560 0.499980 0.618740 -0.593789
O8    O     O_R   0.620570 0.500010 0.381160 -0.594467
C3    C     C_R   0.495995 0.737678 0.501548 0.788566
C4    C     C_R   0.659633 0.500526 0.500310 0.808381
C5    C     C_3   0.049423 0.482102 0.647625 -0.412926
C6    C     C_3   0.044572 0.389767 0.406245 0.127158
C7    C     C_3   0.946338 0.394523 0.400507 0.057944
H1    H     H_    0.070658 0.394176 0.691578 0.212625
H2    H     H_    0.061647 0.303306 0.458948 0.170478
C8    C     C_1   0.749177 0.500610 0.500982 -0.076268
C9    C     C_3   0.082879 0.499253 0.497029 0.051174
C10   C     C_3   0.951897 0.481120 0.648771 -0.310276
C11   C     C_3   0.916847 0.499714 0.499058 -0.005079
C12   C     C_3   0.955001 0.623863 0.439259 0.141752
C13   C     C_3   0.052977 0.624986 0.444400 -0.387477
C14   C     C_1   0.824639 0.500386 0.500660 0.040586
C15   C     C_1   0.175138 0.499534 0.498140 0.022446
C16   C     C_1   0.250670 0.499596 0.498877 -0.091436
H3    H     H_    0.078795 0.699953 0.514423 0.218816
H4    H     H_    0.079039 0.646439 0.339811 0.213832
H5    H     H_    0.936061 0.628360 0.327388 0.131404
H6    H     H_    0.509474 0.108994 0.279629 0.198964
C17   C     C_R   0.551807 0.123293 0.758184 -0.105511
C18   C     C_R   0.539500 0.065304 0.885839 -0.076441
C19   C     C_R   0.497803 0.950254 0.890347 -0.121329
H7    H     H_    0.483719 0.907831 0.989766 0.143165
C20   C     C_R   0.476254 0.888029 0.766606 -0.157823
C21   C     C_R   0.497196 0.940011 0.635224 0.114122
C22   C     C_R   0.522609 0.066012 0.632374 0.102200
C23   C     C_R   0.516974 0.129714 0.504104 -0.122091
C24   C     C_R   0.509152 0.063006 0.379150 -0.130729
C25   C     C_R   0.501096 0.935855 0.380395 -0.186097
C26   C     C_R   0.494264 0.872576 0.506809 -0.095949
C27   C     C_R   0.611384 0.665301 0.146275 -0.189283
C28   C     C_R   0.664613 0.747897 0.075604 -0.268873
C29   C     C_R   0.665056 0.749253 0.931060 0.310433
C30   C     C_R   0.611213 0.665371 0.858536 -0.211348
C31   C     C_R   0.554778 0.581232 0.926636 0.128983
C32   C     C_R   0.554835 0.581131 0.076012 0.146807
N1    N     N_R   0.500800 0.501210 0.147910 -0.253247
C33   C     C_R   0.447141 0.423132 0.071582 0.402822
C34   C     C_R   0.447922 0.423083 0.923841 -0.103374
N2    N     N_R   0.500820 0.501290 0.852040 -0.219534
H8    H     H_    0.926177 0.393473 0.693510 0.230360
H9    H     H_    0.075352 0.557947 0.716444 0.224750
H10   H     H_    0.930847 0.553793 0.720801 0.233047
H11   H     H_    0.586122 0.211605 0.759512 0.167626
H12   H     H_    0.560183 0.111236 0.981497 0.152681
H13   H     H_    0.440710 0.801582 0.776984 0.173532
H14   H     H_    0.498991 0.887218 0.281270 0.165753
N3    N     N_R   0.387747 0.341813 0.139497 0.142903
O9    O     O_R   0.311294 0.376866 0.156282 -0.288870
O10   O     O_R   0.400483 0.224448 0.139053 -0.389464
H15   H     H_    0.617500 0.672224 0.256197 0.223225
H16   H     H_    0.705883 0.811082 0.135124 0.219951
N4    N     N_R   0.719822 0.835933 0.857623 0.149660
O11   O     O_R   0.769780 0.913775 0.925863 -0.285457
O12   O     O_R   0.719418 0.839295 0.722020 -0.316842
H17   H     H_    0.615547 0.670041 0.748886 0.233636
H18   H     H_    0.405148 0.360496 0.866566 0.178334
N5    N     N_R   0.080467 0.387055 0.265448 0.140548
O13   O     O_R   0.124502 0.294680 0.227291 -0.256526
O14   O     O_R   0.065475 0.472182 0.175191 -0.359486
N6    N     N_R   0.905202 0.273717 0.431617 0.145257
O15   O     O_R   0.852192 0.222457 0.342259 -0.289843
O16   O     O_R   0.924023 0.213479 0.543351 -0.308472
H19   H     H_    0.926992 0.418377 0.292599 0.154768
N7    N     N_R   0.922930 0.732773 0.509716 0.163127
O17   O     O_R   0.946610 0.763460 0.635879 -0.298994
O18   O     O_R   0.873540 0.804111 0.442415 -0.275993

loop_
_geom_bond_atom_site_label_1
_geom_bond_atom_site_label_2
_geom_bond_distance
_ccdc_geom_bond_type
C27   C32   1.414847 A    
C5    H1    1.113261 S    
N4    O12   1.301899 A    
C6    C9    1.565352 S    
C24   C25   1.380909 A    
C19   H7    1.082843 S    
C33   N3    1.425814 S    
Cu1   Cu2   2.699205 S    
C10   H8    1.108820 S    
C28   C29   1.387128 A    
C27   H15   1.060281 S    
Cu1   O7    1.928209 S    
C7    C11   1.567060 S    
N6    O16   1.301435 A    
C19   C20   1.393917 A    
C29   N4    1.442389 S    
C21   C22   1.408779 A    
O7    C4    1.297831 A    
N7    O18   1.301312 A    
C18   C19   1.387321 A    
C11   C14   1.465449 S    
N3    O10   1.299955 A    
O5    C3    1.292931 A    
C30   H17   1.056208 S    
C5    C10   1.549034 S    
C2    C16   1.424313 S    
C6    C7    1.564614 S    
H6    C24   1.081362 S    
N4    O11   1.301619 A    
C9    C15   1.465561 S    
C6    N5    1.469942 S    
O3    Cu1   1.925565 S    
N1    C33   1.376843 A    
C13   H3    1.112748 S    
C31   N2    1.382963 A    
N6    O15   1.301277 A    
C33   C34   1.417661 A    
C4    C8    1.422523 S    
C12   C13   1.556507 S    
O3    C2    1.297809 A    
C25   H14   1.083474 S    
C22   C23   1.421499 A    
N5    O14   1.301440 A    
N7    O17   1.301485 A    
C10   H10   1.109308 S    
O1    C1    1.293642 A    
C5    H9    1.113320 S    
C20   C21   1.420478 A    
C30   C31   1.416032 A    
C5    C9    1.552110 S    
Cu2   O8    1.925566 S    
C7    H19   1.114505 S    
C17   C18   1.392646 A    
C17   C22   1.418653 A    
C20   H13   1.078051 S    
C12   N7    1.470623 S    
C31   C32   1.433234 A    
O8    C4    1.297543 A    
C1    C23   1.466385 S    
C28   H16   1.083144 S    
C7    N6    1.471465 S    
C25   C26   1.401462 A    
Cu1   N2    2.028035 S    
Cu2   N1    2.028885 S    
C3    C26   1.467003 S    
C34   N2    1.360634 A    
C13   H4    1.110124 S    
Cu1   O5    1.971663 S    
C9    C13   1.554315 S    
C29   C30   1.397919 A    
C23   C24   1.397265 A    
C17   H11   1.080439 S    
O1    Cu1   1.968001 S    
O2    Cu2   1.971663 S    
C27   C28   1.387341 A    
O6    C3    1.310442 A    
O4    Cu2   1.928207 S    
O2    C1    1.309857 A    
C12   H5    1.115213 S    
C21   C26   1.427270 A    
O4    C2    1.298263 A    
C8    C14   1.199005 T    
C6    H2    1.114356 S    
N3    O9    1.300427 A    
C34   H18   1.082261 S    
C11   C12   1.566646 S    
N5    O13   1.301117 A    
Cu2   O6    1.968000 S    
C32   N1    1.382995 A    
C15   C16   1.199928 T    
C18   H12   1.082725 S    
C10   C11   1.555910 S    
