data_mof_unit_52481.cif
_audit_creation_date              2012-12-10T17:42:12-0500
_audit_creation_method            fapswitch 2.2
_symmetry_space_group_name_H-M    P1
_symmetry_Int_Tables_number       1
_space_group_crystal_system       triclinic
_cell_length_a                    15.043476
_cell_length_b                    13.792017
_cell_length_c                    10.906634
_cell_angle_alpha                 90.080822
_cell_angle_beta                  92.987079
_cell_angle_gamma                 90.348265
_cell_volume                      2259.78736577

loop_
_atom_site_label
_atom_site_type_symbol
_atom_type_description
_atom_site_fract_x
_atom_site_fract_y
_atom_site_fract_z
_atom_type_partial_charge
C1    C     C_R   0.328830 0.499818 0.510356 0.924216
C2    C     C_3   0.603686 0.502348 0.941820 -0.383449
C3    C     C_R   0.811419 0.566519 0.435948 -0.137897
C4    C     C_R   0.767480 0.503041 0.511922 -0.075405
C5    C     C_R   0.814917 0.448175 0.600460 -0.172005
C6    C     C_R   0.907654 0.455466 0.611895 0.074261
C7    C     C_R   0.952675 0.515368 0.530847 0.040764
C8    C     C_R   0.904326 0.572875 0.442697 0.007293
C9    C     C_R   0.955803 0.404102 0.703294 -0.194089
C10   C     C_R   0.049141 0.408558 0.713554 0.339752
C11   C     C_R   0.095834 0.461605 0.625455 0.003768
C12   C     C_R   0.496564 0.499993 0.259328 0.889036
C13   C     C_R   0.046087 0.514786 0.534630 -0.000278
C14   C     C_R   0.089699 0.563369 0.442350 -0.041529
C15   C     C_R   0.043045 0.627529 0.363667 -0.190259
C16   C     C_R   0.950596 0.633647 0.363102 0.401491
C17   C     C_R   0.190026 0.464294 0.623036 -0.203438
C18   C     C_R   0.230853 0.500948 0.519383 -0.119488
C19   C     C_R   0.177069 0.538250 0.422181 0.357865
C20   C     C_R   0.422356 0.798481 0.494912 0.616088
C21   C     C_R   0.422248 0.200445 0.492866 0.550367
C22   C     C_R   0.580110 0.793177 0.498405 0.023055
C23   C     C_R   0.580070 0.207669 0.499432 0.021572
C24   C     C_R   0.584349 0.896476 0.492262 -0.161124
C25   C     C_R   0.584289 0.104426 0.492596 -0.155603
C26   C     C_R   0.671061 0.500419 0.503791 0.768254
C27   C     C_R   0.505320 0.948191 0.470122 -0.102924
C28   C     C_R   0.505331 0.051608 0.469928 -0.094827
C29   C     C_R   0.424742 0.896896 0.457114 -0.256891
C30   C     C_R   0.424837 0.101784 0.455863 -0.253530
C31   C     C_R   0.664776 0.949621 0.507877 0.569639
C32   C     C_R   0.664746 0.052395 0.508066 0.560438
C33   C     C_R   0.347653 0.049263 0.416859 0.621188
C34   C     C_R   0.347482 0.948074 0.418076 0.631727
C35   C     C_R   0.507858 0.500105 0.740163 0.784377
C36   C     C_3   0.459813 0.597575 0.060150 0.265342
C37   C     C_3   0.462396 0.401151 0.060566 0.255355
C38   C     C_3   0.457780 0.589715 0.920057 -0.357672
C39   C     C_3   0.459794 0.408848 0.920526 -0.389875
C40   C     C_3   0.597891 0.502390 0.085101 -0.527093
C41   C     C_3   0.497798 0.500153 0.121187 -0.116642
C42   C     C_3   0.508724 0.500260 0.878087 -0.038776
Cu1   Cu    Cu3+1 0.499990 0.597420 0.500010 1.054362
Cu2   Cu    Cu3+1 0.499990 0.402580 0.500010 1.048946
H1    H     H_    0.509384 0.655426 0.086056 0.124757
H2    H     H_    0.513555 0.345582 0.086151 0.123981
H3    H     H_    0.231939 0.434640 0.696629 0.208652
H4    H     H_    0.079200 0.671942 0.301233 0.243511
H5    H     H_    0.641680 0.753606 0.507414 0.206474
H6    H     H_    0.641704 0.247781 0.509784 0.199750
H7    H     H_    0.388272 0.583667 0.881099 0.213507
H8    H     H_    0.389933 0.411669 0.882054 0.226219
H9    H     H_    0.486844 0.657585 0.883440 0.212840
H10   H     H_    0.491025 0.342437 0.884238 0.181365
H11   H     H_    0.633257 0.567365 0.124488 0.209150
H12   H     H_    0.634988 0.439160 0.124611 0.199560
H13   H     H_    0.640181 0.568157 0.912910 0.202596
H14   H     H_    0.641763 0.438051 0.913004 0.188998
H15   H     H_    0.771896 0.608250 0.369613 0.195896
H16   H     H_    0.779417 0.401625 0.661651 0.144685
H17   H     H_    0.919955 0.361897 0.768544 0.194039
N1    N     N_R   0.499930 0.743810 0.499950 -0.245437
N2    N     N_R   0.499930 0.256190 0.499950 -0.246002
O1    O     O_R   0.370250 0.582280 0.500040 -0.516951
O2    O     O_R   0.370250 0.417720 0.500040 -0.483972
O3    O     O_R   0.499970 0.582270 0.317700 -0.554622
O4    O     O_R   0.499970 0.417730 0.317700 -0.548741
O5    O     O_R   0.629730 0.582260 0.499980 -0.609720
O6    O     O_R   0.629730 0.417740 0.499980 -0.608265
O7    O     O_R   0.500000 0.582270 0.682320 -0.551232
O8    O     O_R   0.500000 0.417730 0.682320 -0.571798
S1    S     S_3+6 0.102528 0.353987 0.843760 0.112448
O9    O     O_2   0.039289 0.288254 0.906821 -0.183795
O10   O     O_2   0.182206 0.296255 0.810719 -0.171467
O11   O     O_3   0.133744 0.444073 0.940296 -0.425232
H18   H     H_    0.167183 0.490391 0.890599 0.349204
S2    S     S_3+6 0.195408 0.492140 0.276235 0.109301
O12   O     O_2   0.292880 0.497395 0.258011 -0.203632
O13   O     O_2   0.166908 0.387449 0.272825 -0.191006
O14   O     O_3   0.138072 0.551980 0.163897 -0.444580
H19   H     H_    0.079916 0.518007 0.153951 0.382472
S3    S     S_3+6 0.895658 0.713633 0.257270 0.049859
O15   O     O_2   0.961658 0.777012 0.195765 -0.183599
O16   O     O_2   0.843823 0.654975 0.161418 -0.318989
O17   O     O_3   0.825338 0.784024 0.332149 -0.466716
H20   H     H_    0.789018 0.817379 0.266826 0.385615
S4    S     S_3+6 0.329482 0.768947 0.584180 0.090771
O18   O     O_2   0.297773 0.859235 0.645450 -0.200127
O19   O     O_2   0.254487 0.730044 0.501691 -0.270503
O20   O     O_3   0.355253 0.688952 0.695536 -0.536608
H21   H     H_    0.297269 0.669101 0.726964 0.365194
S5    S     S_3+6 0.328377 0.229606 0.579413 0.110020
O21   O     O_2   0.256054 0.273663 0.497622 -0.172302
O22   O     O_2   0.291125 0.139057 0.634703 -0.203811
O23   O     O_3   0.356987 0.304946 0.695330 -0.540989
H22   H     H_    0.377631 0.261747 0.763281 0.371414
F1    F     F_    0.743152 0.902473 0.527468 -0.572805
F2    F     F_    0.743156 0.100678 0.527266 -0.592940
F3    F     F_    0.271600 0.095592 0.379685 -0.538212
F4    F     F_    0.271300 0.900518 0.381993 -0.541964
S6    S     S_3+6 0.358429 0.655451 0.100153 0.076418
O24   O     O_2   0.356253 0.753197 0.039193 -0.239124
O25   O     O_2   0.280270 0.597964 0.048729 -0.185214
O26   O     O_3   0.352022 0.674128 0.251623 -0.481725
H23   H     H_    0.295937 0.710288 0.259636 0.412712
S7    S     S_3+6 0.362903 0.339006 0.102468 0.098914
O27   O     O_2   0.282799 0.394315 0.056611 -0.118531
O28   O     O_2   0.361142 0.242272 0.038514 -0.258196
O29   O     O_3   0.359293 0.318118 0.253724 -0.469874
H24   H     H_    0.314021 0.266314 0.260840 0.422002

loop_
_geom_bond_atom_site_label_1
_geom_bond_atom_site_label_2
_ccdc_geom_bond_type
S4    O18   D    
S6    O24   D    
C27   C29   A    
O23   H22   S    
C24   C27   A    
Cu1   Cu2   S    
C6    C9    A    
Cu2   O2    S    
C2    H13   S    
C7    C8    A    
S2    O12   D    
C25   C28   A    
C1    C18   S    
C9    H17   S    
C38   C42   S    
C5    C6    A    
C39   H10   S    
S7    O27   D    
C15   C16   A    
C20   S4    S    
Cu2   O8    S    
C18   C19   A    
C19   S2    S    
C35   C42   S    
C35   O7    A    
Cu1   O5    S    
C40   H12   S    
C1    O2    A    
C9    C10   A    
C5    H16   S    
C25   C32   A    
C23   N2    A    
C39   H8    S    
C35   O8    A    
S6    O25   D    
C13   C14   A    
C37   C41   S    
C36   C41   S    
C15   H4    S    
S1    O11   S    
C16   S3    S    
O26   H23   S    
Cu1   O1    S    
C33   C34   A    
C39   C42   S    
C20   C29   A    
S2    O13   D    
Cu2   N2    S    
C12   O4    A    
Cu2   O6    S    
S1    O10   D    
C3    C8    A    
S1    O9    D    
C23   H6    S    
C38   H7    S    
O17   H20   S    
C12   O3    A    
C29   C34   A    
S5    O23   S    
C36   S6    S    
C33   F3    S    
O11   H18   S    
C12   C41   S    
C22   N1    A    
C34   F4    S    
C31   C32   A    
C7    C13   A    
C40   H11   S    
S5    O22   D    
C17   C18   A    
C36   H1    S    
C22   H5    S    
C40   C41   S    
Cu1   O7    S    
S3    O16   D    
S4    O19   D    
C22   C24   A    
C3    C4    A    
C1    O1    A    
S2    O14   S    
C11   C17   A    
C30   C33   A    
C14   C19   A    
C17   H3    S    
O14   H19   S    
C4    C26   S    
C2    H14   S    
C6    C7    A    
S6    O26   S    
S3    O17   S    
C21   C30   A    
C26   O5    A    
C36   C38   S    
C24   C31   A    
C37   S7    S    
C37   C39   S    
O29   H24   S    
C11   C13   A    
O20   H21   S    
C38   H9    S    
S7    O28   D    
C2    C42   S    
Cu1   O3    S    
C28   C30   A    
S5    O21   D    
C32   F2    S    
C31   F1    S    
C20   N1    A    
C21   N2    A    
C10   C11   A    
C2    C40   S    
C4    C5    A    
C23   C25   A    
C8    C16   A    
S3    O15   D    
S4    O20   S    
C27   C28   A    
C26   O6    A    
C14   C15   A    
Cu2   O4    S    
C37   H2    S    
C21   S5    S    
Cu1   N1    S    
C10   S1    S    
S7    O29   S    
C3    H15   S    
