data_mof_unit_9515.cif
_audit_creation_date              2013-03-05T15:49:53-0500
_audit_creation_method            fapswitch 2.2
_symmetry_space_group_name_H-M    P1
_symmetry_Int_Tables_number       1
_space_group_crystal_system       triclinic
_cell_length_a                    27.725044
_cell_length_b                    13.001743
_cell_length_c                    11.649973
_cell_angle_alpha                 100.202538
_cell_angle_beta                  92.637388
_cell_angle_gamma                 91.435123
_cell_volume                      4126.37537663

loop_
_atom_site_label
_atom_site_type_symbol
_atom_site_description
_atom_site_fract_x
_atom_site_fract_y
_atom_site_fract_z
_atom_type_partial_charge
O1    O     O_R   0.502540 0.354460 0.582000 -0.587842
O2    O     O_R   0.497460 0.645540 0.418000 -0.587845
O3    O     O_R   0.496500 0.341410 0.386200 -0.593822
O4    O     O_R   0.503500 0.658590 0.613800 -0.593812
C1    C     C_R   0.499228 0.298997 0.478243 0.822849
C2    C     C_R   0.500773 0.701003 0.521757 0.822861
O5    O     O_R   0.433290 0.506540 0.597890 -0.587339
O6    O     O_R   0.566710 0.493460 0.402110 -0.587388
O7    O     O_R   0.427240 0.493490 0.402090 -0.584572
O8    O     O_R   0.572760 0.506510 0.597910 -0.584576
C3    C     C_R   0.407331 0.498207 0.501276 0.805197
C4    C     C_R   0.592670 0.501780 0.498722 0.805237
Cu1   Cu    Cu3+1 0.503580 0.507730 0.615930 0.938082
Cu2   Cu    Cu3+1 0.496420 0.492270 0.384070 0.938048
C5    C     C_R   0.174753 0.390541 0.463857 0.577979
C6    C     C_R   0.825272 0.609264 0.535989 0.577878
O9    O     O_2   0.197628 0.307578 0.407608 -0.457938
O10   O     O_2   0.802402 0.692329 0.592028 -0.458048
N1    N     N_R   0.201695 0.475977 0.519834 -0.475935
N2    N     N_R   0.798321 0.523782 0.480147 -0.475844
C7    C     C_R   0.180525 0.560376 0.582053 0.538490
C8    C     C_R   0.819492 0.439302 0.418083 0.538459
C9    C     C_R   0.274483 0.482683 0.407961 -0.102933
C10   C     C_R   0.725513 0.517887 0.592128 -0.102788
C11   C     C_R   0.324675 0.489592 0.403403 -0.214365
C12   C     C_R   0.675320 0.511046 0.596702 -0.214455
C13   C     C_R   0.332845 0.485579 0.610855 -0.216287
C14   C     C_R   0.667167 0.513582 0.388991 -0.216449
C15   C     C_R   0.282758 0.478258 0.615060 -0.090135
C16   C     C_R   0.717254 0.520858 0.384767 -0.090110
C17   C     C_R   0.253335 0.477442 0.513900 0.342667
C18   C     C_R   0.746674 0.522364 0.486052 0.342310
C19   C     C_R   0.101375 0.480435 0.519838 -0.095308
C20   C     C_R   0.898647 0.519278 0.480173 -0.095294
C21   C     C_R   0.123589 0.389634 0.464671 -0.148312
C22   C     C_R   0.876438 0.610125 0.535241 -0.148329
C23   C     C_R   0.094250 0.299889 0.418558 0.330072
C24   C     C_R   0.905787 0.699869 0.581315 0.330079
C25   C     C_R   0.130213 0.563669 0.584209 0.006959
C26   C     C_R   0.869803 0.436009 0.415896 0.007019
C27   C     C_R   0.354306 0.491779 0.505078 -0.042488
C28   C     C_R   0.645697 0.508152 0.494911 -0.042555
H1    H     H_    0.354714 0.486204 0.690487 0.155472
H2    H     H_    0.645306 0.512369 0.309251 0.155638
H3    H     H_    0.266711 0.474104 0.697220 0.144909
H4    H     H_    0.733301 0.524428 0.302494 0.145141
C29   C     C_R   0.970993 0.418442 0.432217 0.074953
C30   C     C_R   0.029026 0.581240 0.567815 0.074941
C31   C     C_R   0.978722 0.596320 0.548768 -0.055811
C32   C     C_R   0.021303 0.403380 0.451219 -0.055783
C33   C     C_R   0.949610 0.511239 0.488066 0.059223
C34   C     C_R   0.050412 0.488459 0.511944 0.059211
C35   C     C_R   0.941583 0.346939 0.351877 -0.194873
C36   C     C_R   0.058426 0.652715 0.648214 -0.194841
C37   C     C_R   0.891753 0.352696 0.347831 -0.146863
C38   C     C_R   0.108255 0.646944 0.652318 -0.146871
O11   O     O_2   0.791870 0.357653 0.360510 -0.537865
O12   O     O_2   0.208151 0.641938 0.639809 -0.537747
C39   C     C_R   0.043362 0.304636 0.419025 -0.135760
C40   C     C_R   0.956674 0.695083 0.580903 -0.135774
H5    H     H_    0.659773 0.507364 0.679535 0.159258
H6    H     H_    0.340215 0.493908 0.320688 0.159249
H7    H     H_    0.748029 0.518369 0.670689 0.145479
H8    H     H_    0.251956 0.482754 0.329513 0.145235
H9    H     H_    0.870557 0.292179 0.289756 0.190272
H10   H     H_    0.129446 0.707434 0.710448 0.190267
H11   H     H_    0.956497 0.286641 0.289346 0.158462
H12   H     H_    0.043499 0.712999 0.710743 0.158437
C41   C     C_R   0.501034 0.814487 0.534745 -0.072004
C42   C     C_R   0.498966 0.185512 0.465253 -0.072009
C43   C     C_R   0.497342 0.014312 0.342129 0.006033
C44   C     C_R   0.502649 0.985685 0.657862 0.005998
C45   C     C_R   0.497818 0.122862 0.354363 -0.230815
C46   C     C_R   0.502175 0.877138 0.645633 -0.230806
C47   C     C_R   0.499795 0.140028 0.565080 -0.262641
C48   C     C_R   0.500212 0.859970 0.434918 -0.262692
C49   C     C_R   0.500758 0.031840 0.556391 0.110589
C50   C     C_R   0.499238 0.968157 0.443602 0.110574
H13   H     H_    0.500527 0.810201 0.350093 0.172268
H14   H     H_    0.499493 0.189796 0.649910 0.172286
H15   H     H_    0.503466 0.841752 0.723148 0.151820
H16   H     H_    0.496521 0.158251 0.276850 0.151816
N3    N     N_R   0.508960 0.519350 0.790140 -0.180506
N4    N     N_R   0.491040 0.480650 0.209860 -0.180531
C51   C     C_R   0.454394 0.400443 0.022863 -0.330256
C52   C     C_R   0.545603 0.599563 0.977138 -0.330252
C53   C     C_R   0.458828 0.410116 0.144988 0.068162
C54   C     C_R   0.541170 0.589888 0.855012 0.068161
C55   C     C_R   0.519707 0.543351 0.156523 0.028161
C56   C     C_R   0.480292 0.456650 0.843477 0.028251
C57   C     C_R   0.516563 0.536259 0.033798 0.068079
C58   C     C_R   0.483436 0.463744 0.966203 0.068104
H17   H     H_    0.454944 0.401192 0.790454 0.118755
H18   H     H_    0.545055 0.598809 0.209546 0.118849
H19   H     H_    0.563525 0.639282 0.812014 0.126919
H20   H     H_    0.436473 0.360722 0.187986 0.126992
H21   H     H_    0.428630 0.343661 0.973279 0.146373
H22   H     H_    0.571366 0.656348 0.026721 0.146401
C59   C     C_R   0.493985 0.951846 0.222389 0.080176
C60   C     C_R   0.452096 0.890827 0.181605 -0.161273
C61   C     C_R   0.449066 0.831453 0.068898 -0.125366
C62   C     C_R   0.487611 0.833141 0.996064 -0.110671
C63   C     C_R   0.529274 0.894255 0.035708 -0.119857
C64   C     C_R   0.532449 0.953853 0.148406 -0.139424
H23   H     H_    0.421986 0.889015 0.237323 0.142434
H24   H     H_    0.416833 0.784125 0.037993 0.139192
H25   H     H_    0.485125 0.787148 0.908907 0.128729
H26   H     H_    0.558987 0.895832 0.978883 0.135019
H27   H     H_    0.564852 0.001092 0.178193 0.136553
C65   C     C_R   0.506001 0.048154 0.777596 0.080112
C66   C     C_R   0.467496 0.046312 0.851488 -0.139444
C67   C     C_R   0.470667 0.105917 0.964182 -0.119896
C68   C     C_R   0.512366 0.166872 0.003910 -0.110659
C69   C     C_R   0.550951 0.168396 0.931165 -0.125490
C70   C     C_R   0.547923 0.109020 0.818459 -0.161271
H28   H     H_    0.435064 0.999199 0.821630 0.136590
H29   H     H_    0.440923 0.104472 0.020938 0.134982
H30   H     H_    0.514851 0.212866 0.091067 0.128709
H31   H     H_    0.583213 0.215595 0.962137 0.139169
H32   H     H_    0.578063 0.110705 0.762806 0.142463
N5    N     N_R   0.115707 0.200816 0.383347 0.153203
O13   O     O_R   0.127066 0.171383 0.275630 -0.334672
O14   O     O_R   0.124145 0.140334 0.459301 -0.357710
N6    N     N_R   0.884344 0.798961 0.616497 0.153278
O15   O     O_R   0.872944 0.828383 0.724182 -0.334682
O16   O     O_R   0.876017 0.859528 0.540592 -0.357827
C71   C     C_R   0.014792 0.204142 0.407246 0.131022
C72   C     C_R   0.986589 0.184986 0.499054 -0.148473
C73   C     C_R   0.957296 0.094170 0.486352 -0.094873
C74   C     C_R   0.956399 0.021018 0.382754 -0.079708
C75   C     C_R   0.984840 0.038459 0.291699 -0.172431
C76   C     C_R   0.013839 0.129641 0.303496 -0.104774
H33   H     H_    0.986815 0.241155 0.579743 0.139093
H34   H     H_    0.935476 0.080213 0.557093 0.175406
H35   H     H_    0.933888 0.950514 0.373298 0.173287
H36   H     H_    0.984014 0.981810 0.211400 0.146987
H37   H     H_    0.034206 0.143750 0.230482 0.165644
C77   C     C_R   0.985266 0.795552 0.592689 0.131121
C78   C     C_R   0.986213 0.870072 0.696421 -0.104761
C79   C     C_R   0.015231 0.961227 0.708228 -0.172428
C80   C     C_R   0.043696 0.978623 0.617197 -0.079756
C81   C     C_R   0.042805 0.905453 0.513614 -0.094962
C82   C     C_R   0.013493 0.814662 0.500904 -0.148434
H38   H     H_    0.965823 0.856000 0.769415 0.165616
H39   H     H_    0.016052 0.017892 0.788514 0.146989
H40   H     H_    0.066222 0.049108 0.626657 0.173223
H41   H     H_    0.064643 0.919377 0.442891 0.175320
H42   H     H_    0.013272 0.758478 0.420229 0.139070

loop_
_geom_bond_atom_site_label_1
_geom_bond_atom_site_label_2
_geom_bond_distance
_ccdc_geom_bond_type
C2    C41   1.456121 S    
C61   C62   1.396917 A    
C13   C15   1.393249 A    
C66   C67   1.399104 A    
N4    C53   1.364214 A    
Cu2   N4    2.006616 S    
N1    C17   1.436397 S    
C72   C73   1.398112 A    
C8    O11   1.350203 S    
C69   C70   1.398058 A    
C49   C50   1.421850 A    
C19   C34   1.419373 A    
C5    N1    1.368992 A    
C20   C33   1.419394 A    
C19   C25   1.409516 A    
C31   C40   1.432751 A    
O1    C1    1.291214 A    
C32   C39   1.432780 A    
N1    C7    1.365155 A    
C12   H5    1.083022 S    
C48   C50   1.393295 A    
C73   C74   1.396874 A    
C77   C82   1.406762 A    
C67   H29   1.082319 S    
C52   C54   1.405319 A    
C59   C64   1.404256 A    
C1    C42   1.456125 S    
C36   H12   1.076085 S    
C39   C71   1.492684 S    
C55   H18   1.082705 S    
C41   C48   1.394506 A    
C14   C28   1.406536 A    
O4    Cu1   1.966045 S    
C71   C76   1.407440 A    
C4    C28   1.473586 S    
C65   C66   1.404227 A    
C25   C38   1.394866 A    
C31   C33   1.414514 A    
C32   C34   1.414538 A    
C48   H13   1.081623 S    
C66   H28   1.082992 S    
C55   C57   1.414820 A    
C47   H14   1.081633 S    
C69   H31   1.082217 S    
C6    N2    1.369056 A    
C29   C35   1.410225 A    
C35   C37   1.384509 A    
N3    C54   1.364214 A    
C54   H19   1.081717 S    
Cu1   Cu2   2.670656 S    
O2    C2    1.291211 A    
C52   H22   1.083281 S    
C5    C21   1.418743 A    
C67   C68   1.397800 A    
C37   H9    1.083460 S    
C51   C58   1.403410 A    
O5    C3    1.294199 A    
C29   C32   1.426030 A    
C44   C65   1.482217 S    
C51   C53   1.405318 A    
C82   H42   1.083072 S    
C36   C38   1.384525 A    
C62   H25   1.081542 S    
C79   C80   1.397034 A    
C44   C46   1.392814 A    
C75   H36   1.082239 S    
C11   C27   1.405741 A    
C57   C58   1.406995 A    
C43   C45   1.392833 A    
C29   C33   1.422579 A    
C76   H37   1.081831 S    
C43   C59   1.482267 S    
C14   H2    1.083091 S    
C73   H34   1.082348 S    
C15   H3    1.083191 S    
C9    C17   1.402134 A    
C30   C36   1.410231 A    
O7    Cu2   1.939206 S    
C10   C18   1.401868 A    
C44   C49   1.416858 A    
O7    C3    1.295740 A    
C78   H38   1.081833 S    
C13   C27   1.406886 A    
C56   C58   1.414818 A    
C59   C60   1.404821 A    
C7    C25   1.397884 A    
C30   C34   1.422539 A    
O6    C4    1.294205 A    
C26   C37   1.394862 A    
C8    C26   1.397870 A    
C53   H20   1.081717 S    
C42   C45   1.398419 A    
C60   H23   1.083105 S    
C41   C46   1.398412 A    
C47   C49   1.393286 A    
N5    O13   1.301039 A    
C23   C39   1.413977 A    
O3    Cu2   1.966045 S    
O8    C4    1.295749 A    
C80   H40   1.082238 S    
C23   N5    1.433544 S    
O4    C2    1.289863 A    
C9    H8    1.083106 S    
C74   H35   1.082236 S    
N2    C8    1.365208 A    
C10   H7    1.082863 S    
C24   C40   1.413977 A    
O1    Cu1   1.960934 S    
N4    C55   1.369258 A    
C46   H15   1.083276 S    
C75   C76   1.398260 A    
C45   H16   1.083279 S    
C42   C47   1.394504 A    
C12   C28   1.405433 A    
C56   H17   1.082706 S    
N6    O16   1.300922 A    
C68   C69   1.396902 A    
N2    C18   1.436549 S    
O2    Cu2   1.960933 S    
C61   H24   1.082234 S    
C5    O9    1.348069 S    
N3    C56   1.369259 A    
C30   C31   1.425986 A    
O6    Cu2   1.949831 S    
C21   C23   1.414908 A    
C81   H41   1.082347 S    
C16   H4    1.082944 S    
C10   C12   1.396291 A    
O3    C1    1.289862 A    
O8    Cu1   1.939206 S    
C79   H39   1.082239 S    
C78   C79   1.398263 A    
Cu1   N3    2.006613 S    
C52   C57   1.403411 A    
C22   C24   1.414948 A    
C74   C75   1.397031 A    
C7    O12   1.350207 S    
C15   C17   1.400393 A    
C72   H33   1.083072 S    
C6    C22   1.418781 A    
C16   C18   1.400167 A    
C64   H27   1.083010 S    
C38   H10   1.083458 S    
C14   C16   1.393239 A    
C60   C61   1.398059 A    
C19   C21   1.410739 A    
C3    C27   1.473554 S    
C20   C22   1.410753 A    
C11   H6    1.083305 S    
C9    C11   1.396286 A    
C62   C63   1.397817 A    
C35   H11   1.076064 S    
N5    O14   1.301071 A    
C51   H21   1.083281 S    
C77   C78   1.407438 A    
C68   H30   1.081540 S    
C13   H1    1.083359 S    
O5    Cu1   1.949836 S    
C6    O10   1.348052 S    
C70   H32   1.083090 S    
C63   C64   1.399105 A    
C81   C82   1.398112 A    
C20   C26   1.409487 A    
C63   H26   1.082329 S    
C80   C81   1.396873 A    
C65   C70   1.404774 A    
C43   C50   1.416879 A    
C24   N6    1.433548 S    
C71   C72   1.406760 A    
C40   C77   1.492693 S    
N6    O15   1.300998 A    
