data_mof_unit_66380.cif
_audit_creation_date              2012-12-10T19:02:10-0500
_audit_creation_method            fapswitch 2.2
_symmetry_space_group_name_H-M    P1
_symmetry_Int_Tables_number       1
_space_group_crystal_system       triclinic
_cell_length_a                    13.367136
_cell_length_b                    14.259835
_cell_length_c                    16.756882
_cell_angle_alpha                 90.042663
_cell_angle_beta                  84.737878
_cell_angle_gamma                 90.028045
_cell_volume                      3180.61964842

loop_
_atom_site_label
_atom_site_type_symbol
_atom_type_description
_atom_site_fract_x
_atom_site_fract_y
_atom_site_fract_z
_atom_type_partial_charge
C1    C     C_R   0.500019 0.673463 0.500009 0.923191
C2    C     C_1   0.169417 0.499996 0.499985 0.104174
C3    C     C_1   0.950474 0.499985 0.500006 -0.032350
C4    C     C_1   0.049524 0.499989 0.499996 -0.030936
C5    C     C_R   0.486151 0.500878 0.655991 0.952452
C6    C     C_R   0.513716 0.499471 0.344242 0.993715
C7    C     C_R   0.474115 0.472550 0.739705 -0.270341
C8    C     C_R   0.522704 0.478728 0.258973 -0.270957
C9    C     C_R   0.531148 0.395786 0.763635 0.290566
C10   C     C_R   0.460587 0.527458 0.209882 0.281907
C11   C     C_R   0.510461 0.358428 0.841407 0.347768
C12   C     C_R   0.499969 0.326546 0.500133 0.932172
C13   C     C_R   0.464871 0.505133 0.127589 0.370613
C14   C     C_R   0.439931 0.403692 0.895275 -0.037466
C15   C     C_R   0.524243 0.428850 0.098261 -0.057869
C16   C     C_R   0.381450 0.477132 0.870261 -0.190650
C17   C     C_R   0.587815 0.383139 0.146660 -0.219786
C18   C     C_R   0.397635 0.512568 0.793111 0.366845
C19   C     C_R   0.586809 0.405812 0.227169 0.371814
C20   C     C_2   0.438917 0.388461 0.981272 -0.018365
C21   C     C_2   0.525037 0.399539 0.014942 -0.067085
C22   C     C_1   0.500053 0.774113 0.500016 -0.199347
C23   C     C_1   0.499972 0.225915 0.500080 -0.192179
C24   C     C_1   0.500062 0.858679 0.500022 0.010059
C25   C     C_1   0.500005 0.141355 0.500053 0.013162
C26   C     C_1   0.500057 0.957739 0.500029 0.026184
C27   C     C_1   0.500040 0.042299 0.500037 0.026234
C28   C     C_1   0.830582 0.499988 0.500016 0.109162
H1    H     H_    0.659342 0.332801 0.740089 0.343631
H2    H     H_    0.575868 0.238243 0.819776 0.349504
H3    H     H_    0.336937 0.599600 0.213197 0.348322
H4    H     H_    0.612516 0.346952 0.327826 0.332797
H5    H     H_    0.370986 0.619143 0.725001 0.327435
H6    H     H_    0.597106 0.398109 0.979168 0.177491
H7    H     H_    0.367564 0.393131 0.017891 0.161972
H8    H     H_    0.327105 0.511386 0.912661 0.211429
H9    H     H_    0.635389 0.326399 0.122478 0.199514
H10   H     H_    0.407568 0.622807 0.094762 0.352568
N1    N     N_1   0.738130 0.500000 0.500020 -0.051175
N2    N     N_1   0.261870 0.500000 0.499980 -0.055628
O1    O     O_R   0.423530 0.626280 0.499990 -0.591214
O2    O     O_3   0.396438 0.595351 0.244140 -0.755536
O3    O     O_3   0.645627 0.351857 0.272773 -0.732931
O4    O     O_3   0.339813 0.588187 0.773919 -0.731280
O5    O     O_3   0.415493 0.557869 0.074197 -0.782084
O6    O     O_3   0.557137 0.278784 0.866766 -0.767429
O7    O     O_R   0.576470 0.373720 0.500010 -0.580678
O8    O     O_R   0.576470 0.626280 0.500010 -0.605836
O9    O     O_R   0.423530 0.373720 0.499990 -0.606119
O10   O     O_R   0.414510 0.500000 0.615790 -0.611202
O11   O     O_R   0.585490 0.500000 0.384210 -0.619654
O12   O     O_R   0.567420 0.500000 0.615810 -0.549484
O13   O     O_R   0.432580 0.500000 0.384190 -0.571474
O14   O     O_3   0.605308 0.358599 0.709888 -0.747882
Zn1   Zn    Zn3+2 0.397910 0.500000 0.499990 1.006283
Zn2   Zn    Zn3+2 0.602090 0.500000 0.500010 1.015967

loop_
_geom_bond_atom_site_label_1
_geom_bond_atom_site_label_2
_ccdc_geom_bond_type
C2    C4    S    
C1    O8    A    
C15   C17   A    
C9    O14   S    
H3    O2    S    
C18   O4    S    
C6    O11   A    
C10   O2    S    
O10   Zn1   S    
N2    Zn1   S    
C7    C9    A    
C7    C18   A    
C13   C15   A    
C12   O9    A    
C1    C22   S    
C5    O12   A    
C17   H9    S    
C16   H8    S    
C13   O5    S    
C9    C11   A    
C12   C23   S    
H5    O4    S    
C26   C27   T    
O12   Zn2   S    
C12   O7    A    
C1    O1    A    
C3    C28   S    
C17   C19   A    
H4    O3    S    
C19   O3    S    
C5    C7    S    
O13   Zn1   S    
C11   C14   A    
C22   C24   T    
C5    O10   A    
C8    C19   A    
C25   C27   S    
H1    O14   S    
C6    O13   A    
C3    C4    T    
C2    N2    T    
C15   C21   S    
C23   C25   T    
C20   C21   D    
C14   C20   S    
C16   C18   A    
O11   Zn2   S    
O8    Zn2   S    
O1    Zn1   S    
H10   O5    S    
C6    C8    S    
C21   H6    S    
C28   N1    T    
C14   C16   A    
O9    Zn1   S    
C20   H7    S    
H2    O6    S    
C8    C10   A    
N1    Zn2   S    
C24   C26   S    
O7    Zn2   S    
C11   O6    S    
C10   C13   A    
