data_mof_unit_11183.cif
_audit_creation_date              2012-12-11T20:17:15-0500
_audit_creation_method            fapswitch 2.2
_symmetry_space_group_name_H-M    P1
_symmetry_Int_Tables_number       1
_space_group_crystal_system       triclinic
_cell_length_a                    8.225947
_cell_length_b                    17.330962
_cell_length_c                    18.828177
_cell_angle_alpha                 99.071572
_cell_angle_beta                  93.177968
_cell_angle_gamma                 97.605288
_cell_volume                      2619.32608172

loop_
_atom_site_label
_atom_site_type_symbol
_atom_type_description
_atom_site_fract_x
_atom_site_fract_y
_atom_site_fract_z
_atom_type_partial_charge
Ba1   Ba    Ba6+2 0.852650 0.537180 0.468240 1.618682
Ba2   Ba    Ba6+2 0.337190 0.462880 0.531770 1.639126
C1    C     C_3   0.696804 0.825429 0.308263 -0.116255
C2    C     C_3   0.666667 0.740387 0.323865 0.287153
C3    C     C_3   0.467777 0.317299 0.306782 0.330439
C4    C     C_3   0.468648 0.279472 0.227920 -0.170715
C5    C     C_3   0.068148 0.250313 0.725248 0.474749
C6    C     C_3   0.112583 0.199395 0.780549 -0.312981
C7    C     C_3   0.626720 0.271165 0.738735 0.306669
C8    C     C_3   0.598078 0.212599 0.790564 -0.367474
C9    C     C_2   0.303131 0.508105 0.292400 -0.254010
C10   C     C_3   0.441416 0.513901 0.243223 0.045303
C11   C     C_2   0.377152 0.526066 0.169286 -0.104128
C12   C     C_3   0.101849 0.706342 0.282475 0.368129
C13   C     C_2   0.218539 0.498056 0.144502 -0.073305
C14   C     C_2   0.107640 0.458763 0.194704 0.003010
C15   C     C_1   0.156005 0.470550 0.265818 0.073326
C16   C     C_R   0.047160 0.502715 0.928395 0.464631
C17   C     C_R   0.158580 0.502187 0.068104 0.443419
C18   C     C_R   0.089365 0.528696 0.801717 -0.130897
C19   C     C_R   0.034394 0.520207 0.728461 0.080956
C20   C     C_R   0.770546 0.454530 0.752537 -0.024077
C21   C     C_R   0.823816 0.462833 0.826042 -0.124505
C22   C     C_R   0.985937 0.498488 0.851329 -0.054047
C23   C     C_3   0.030974 0.729218 0.211281 0.136018
C24   C     C_R   0.877421 0.481464 0.704275 -0.289515
C25   C     C_2   0.432671 0.723611 0.485633 -0.265361
C26   C     C_3   0.308051 0.780412 0.485209 -0.007670
C27   C     C_2   0.387015 0.858633 0.471448 -0.116596
C28   C     C_2   0.544841 0.883313 0.495935 -0.013768
C29   C     C_2   0.645780 0.825484 0.521969 -0.137596
C30   C     C_1   0.578910 0.750672 0.520040 0.082805
C31   C     C_R   0.800811 0.137231 0.560763 -0.001871
C32   C     C_R   0.865590 0.217674 0.562512 -0.030563
C33   C     C_R   0.615524 0.240900 0.498280 0.060116
C34   C     C_3   0.225870 0.709113 0.631552 0.314762
C35   C     C_R   0.549886 0.161950 0.495733 -0.130902
C36   C     C_R   0.637884 0.110355 0.528223 0.024250
C37   C     C_2   0.616552 0.966175 0.496340 -0.090612
C38   C     C_2   0.552163 0.029514 0.529364 0.073322
C39   C     C_R   0.768892 0.268843 0.534762 -0.272204
C40   C     C_3   0.196617 0.795432 0.652027 -0.194987
C41   C     C_3   0.945444 0.299959 0.380685 0.303687
C42   C     C_3   0.908228 0.210357 0.362606 -0.384212
C43   C     C_3   0.730000 0.643563 0.693699 0.318275
C44   C     C_3   0.682416 0.655854 0.771893 -0.184016
H1    H     H_    0.782086 0.730078 0.351268 0.091296
H2    H     H_    0.089750 0.798512 0.685574 0.120314
H3    H     H_    0.161851 0.818605 0.602575 0.046924
H4    H     H_    0.835301 0.324382 0.399276 0.019455
H5    H     H_    0.045164 0.315779 0.424533 0.095494
H6    H     H_    0.804483 0.192695 0.320378 0.136675
H7    H     H_    0.874973 0.184883 0.411064 0.060285
H8    H     H_    0.018446 0.185952 0.342454 0.121874
H9    H     H_    0.863024 0.640415 0.692446 -0.008871
H10   H     H_    0.659488 0.586519 0.666370 0.037866
H11   H     H_    0.732216 0.866004 0.360215 0.087547
H12   H     H_    0.707371 0.604981 0.797720 0.068568
H13   H     H_    0.547524 0.656680 0.771048 0.105826
H14   H     H_    0.567217 0.736487 0.360916 0.000660
H15   H     H_    0.340053 0.326955 0.318137 0.016786
H16   H     H_    0.550595 0.374704 0.316451 0.039022
H17   H     H_    0.386712 0.221708 0.217627 0.107373
H18   H     H_    0.595663 0.268354 0.216835 0.115666
H19   H     H_    0.801038 0.833852 0.274333 0.108848
H20   H     H_    0.939370 0.227643 0.704080 -0.055534
H21   H     H_    0.234910 0.223326 0.808980 0.128278
H22   H     H_    0.019527 0.198454 0.821066 0.072588
H23   H     H_    0.115940 0.138036 0.753523 0.081393
H24   H     H_    0.747396 0.307123 0.756956 -0.019170
H25   H     H_    0.632310 0.239017 0.683260 0.012461
H26   H     H_    0.593099 0.244868 0.846087 0.118858
H27   H     H_    0.700065 0.176717 0.790685 0.062659
H28   H     H_    0.009573 0.659572 0.295631 0.106065
H29   H     H_    0.480471 0.172847 0.774619 0.119778
H30   H     H_    0.462649 0.552192 0.134845 0.102623
H31   H     H_    0.211662 0.559229 0.819810 0.101027
H32   H     H_    0.740125 0.440003 0.862646 0.095290
H33   H     H_    0.326919 0.533947 0.349052 0.061413
H34   H     H_    0.835584 0.475018 0.647858 0.066073
H35   H     H_    0.771138 0.845861 0.544710 0.095061
H36   H     H_    0.727873 0.975101 0.468690 0.068731
H37   H     H_    0.312007 0.898286 0.450390 0.083262
H38   H     H_    0.430729 0.140003 0.467151 0.091031
H39   H     H_    0.405122 0.663487 0.456746 0.071976
H40   H     H_    0.819590 0.329698 0.534940 0.060063
H41   H     H_    0.899584 0.733700 0.216503 0.121275
H42   H     H_    0.354639 0.705978 0.618877 -0.007636
H43   H     H_    0.143466 0.682099 0.583025 0.061890
N1    N     N_R   0.210622 0.519704 0.949875 -0.240055
N2    N     N_R   0.265073 0.519426 0.018085 -0.241433
N3    N     N_R   0.995471 0.486967 0.046646 -0.251513
N4    N     N_R   0.940923 0.486825 0.978595 -0.243953
O1    O     O_2   0.865200 0.455450 0.325860 -0.469209
O2    O     O_3   0.693203 0.707146 0.661157 -0.650128
O3    O     O_3   0.127128 0.772388 0.338640 -0.638712
O4    O     O_2   0.324510 0.544570 0.674190 -0.456431
O5    O     O_3   0.071830 0.543290 0.586690 -0.493658
O6    O     O_3   0.531950 0.400150 0.621890 -0.460498
O7    O     O_3   0.194230 0.670729 0.690306 -0.656897
O8    O     O_3   0.606980 0.404400 0.458100 -0.482240
O9    O     O_3   0.107660 0.359170 0.583950 -0.473317
O10   O     O_2   0.189017 0.220924 0.530976 -0.488931
O11   O     O_3   0.178965 0.245198 0.670713 -0.563855
O12   O     O_3   0.117880 0.456770 0.413320 -0.485012
O13   O     O_3   0.582730 0.595670 0.541910 -0.485305
O14   O     O_2   0.334130 0.306180 0.453490 -0.459124
O15   O     O_3   0.524368 0.265326 0.349269 -0.663762
O16   O     O_2   0.436015 0.458980 0.750145 -0.480690
O17   O     O_3   0.496053 0.315927 0.740003 -0.559206
O18   O     O_3   0.657770 0.599920 0.378120 -0.486320
O19   O     O_2   0.780735 0.561956 0.253730 -0.517200
O20   O     O_3   0.992015 0.328772 0.318409 -0.649365
O21   O     O_3   0.625233 0.683613 0.260754 -0.627333
O22   O     O_2   0.855570 0.693850 0.546560 -0.480349
O23   O     O_3   0.082050 0.640900 0.416060 -0.490850
O24   O     O_2   0.971996 0.776382 0.456644 -0.509310
P1    P     P_3+3 0.032830 0.432130 0.335280 0.977011
P2    P     P_3+3 0.680690 0.682340 0.566920 0.974609
P3    P     P_3+3 0.121585 0.742792 0.424119 0.910143
P4    P     P_3+3 0.156880 0.567940 0.664730 0.976941
P5    P     P_3+3 0.083912 0.258840 0.588577 0.950520
P6    P     P_3+3 0.622827 0.588683 0.284116 0.922336
P7    P     P_3+3 0.521184 0.303496 0.440776 0.955403
P8    P     P_3+3 0.561455 0.408153 0.716335 0.977070
C45   C     C_3   0.348154 0.850092 0.691267 -0.220563
C46   C     C_3   0.389122 0.832980 0.766791 -0.355562
H44   H     H_    0.281157 0.836529 0.799436 0.125544
H45   H     H_    0.426874 0.773617 0.763822 0.158275
H46   H     H_    0.492833 0.877201 0.794039 0.102947
H47   H     H_    0.456434 0.845219 0.658905 0.105412
H48   H     H_    0.322737 0.912052 0.696499 0.108693
C47   C     C_3   0.770293 0.732779 0.818025 -0.210878
C48   C     C_3   0.949529 0.727846 0.840182 -0.422351
H49   H     H_    0.957727 0.677620 0.869631 0.140040
H50   H     H_    0.021527 0.720597 0.792257 0.155122
H51   H     H_    0.004440 0.783231 0.876265 0.128253
H52   H     H_    0.763997 0.783567 0.789075 0.144158
H53   H     H_    0.705147 0.744522 0.867919 0.119228
N5    N     N_3   0.552234 0.848887 0.273852 -0.495977
H54   H     H_    0.524348 0.813562 0.223186 0.204717
H55   H     H_    0.453115 0.840351 0.305576 0.193998
N6    N     N_3   0.414197 0.331014 0.180170 -0.545496
H56   H     H_    0.287421 0.329118 0.182556 0.166623
H57   H     H_    0.432019 0.306276 0.127344 0.185961
N7    N     N_3   0.037422 0.668385 0.148443 -0.464589
H58   H     H_    0.159808 0.664578 0.137925 0.193053
H59   H     H_    0.984447 0.613922 0.159825 0.194906
N8    N     N_3   0.077592 0.331865 0.761204 -0.510067
H60   H     H_    0.049876 0.365181 0.721955 0.156261
H61   H     H_    0.198849 0.352948 0.781529 0.230937
C49   C     C_3   0.988791 0.385284 0.160625 -0.231101
C50   C     C_3   0.809407 0.399518 0.154953 -0.308159
H62   H     H_    0.753583 0.396388 0.206544 0.153323
H63   H     H_    0.797162 0.457604 0.139328 0.168931
H64   H     H_    0.738039 0.352793 0.113558 0.103626
H65   H     H_    0.023175 0.363648 0.105562 0.110954
H66   H     H_    0.999412 0.335365 0.189920 0.114321
C51   C     C_3   0.391228 0.021239 0.566281 -0.214035
C52   C     C_3   0.395286 0.079278 0.636412 -0.405682
H67   H     H_    0.500284 0.073262 0.673574 0.121173
H68   H     H_    0.404354 0.140794 0.625817 0.178852
H69   H     H_    0.280200 0.066049 0.663030 0.115538
H70   H     H_    0.289260 0.030587 0.528801 0.106309
H71   H     H_    0.361460 0.961843 0.580851 0.105528
C53   C     C_3   0.905995 0.081310 0.590884 -0.199703
C54   C     C_3   0.837988 0.048755 0.655878 -0.436817
H72   H     H_    0.933990 0.021291 0.682549 0.115629
H73   H     H_    0.802575 0.096703 0.695481 0.123629
H74   H     H_    0.730843 0.002239 0.639792 0.143074
H75   H     H_    0.924335 0.032125 0.548436 0.096382
H76   H     H_    0.032282 0.110362 0.608456 0.123446
N9    N     N_3   0.254668 0.673615 0.271424 -0.521895
H77   H     H_    0.336888 0.713728 0.250983 0.188083
H78   H     H_    0.307454 0.666559 0.321180 0.144162
N10   N     N_3   0.110725 0.805502 0.197214 -0.469601
H79   H     H_    0.096283 0.850004 0.239837 0.196453
H80   H     H_    0.236342 0.804319 0.193217 0.181935

loop_
_geom_bond_atom_site_label_1
_geom_bond_atom_site_label_2
_ccdc_geom_bond_type
C34   H43   S    
O5    P4    S    
C19   C24   A    
C53   H76   S    
C45   C46   S    
C44   H13   S    
C38   C51   S    
C34   C40   S    
C31   C53   S    
C48   H51   S    
C5    C6    S    
C54   H73   S    
N9    H77   S    
C34   H42   S    
C13   C17   S    
C39   H40   S    
C26   C27   S    
C6    H23   S    
C35   C36   A    
C18   H31   S    
C16   C22   S    
C12   H28   S    
C2    O21   S    
C33   P7    S    
C33   C35   A    
N5    H55   S    
C27   H37   S    
C12   N9    S    
N8    H61   S    
C3    C4    S    
O13   P2    S    
C8    H27   S    
O11   P5    S    
Ba2   O9    S    
C13   C14   S    
Ba2   O14   S    
C23   H41   S    
Ba1   Ba2   S    
Ba1   P2    S    
C4    H18   S    
C25   H39   S    
O4    P4    D    
C17   N3    A    
C5    N8    S    
C42   H7    S    
C9    C15   D    
C18   C22   A    
Ba2   O4    S    
C14   C15   D    
C3    H16   S    
C21   C22   A    
C35   H38   S    
C23   N7    S    
Ba1   O23   S    
C50   H63   S    
C7    C8    S    
Ba1   O13   S    
C42   H6    S    
N10   H80   S    
C53   H75   S    
C21   H32   S    
C44   H12   S    
C53   C54   S    
C1    H19   S    
C32   C39   A    
O14   P7    D    
O15   P7    S    
C12   O3    S    
C54   H74   S    
N7    H59   S    
N9    H78   S    
C49   H66   S    
O8    P7    S    
O18   P6    S    
C16   N1    A    
C52   H69   S    
N5    H54   S    
C43   H10   S    
O19   P6    D    
O6    P8    S    
C26   P3    S    
O24   P3    D    
C37   C38   D    
Ba1   O1    S    
C20   P8    S    
C48   H50   S    
C40   H3    S    
Ba2   O8    S    
O2    P2    S    
C43   C44   S    
Ba2   O13   S    
C24   H34   S    
C1    C2    S    
O23   P3    S    
C52   H68   S    
C4    H17   S    
C41   C42   S    
C46   H45   S    
C27   C28   D    
C8    H29   S    
C51   C52   S    
C11   H30   S    
C45   H48   S    
C2    H14   S    
C31   C32   A    
C3    H15   S    
C34   O7    S    
C40   H2    S    
C7    H24   S    
C50   H64   S    
Ba2   O5    S    
C9    H33   S    
C15   P1    S    
O21   P6    S    
C1    H11   S    
O16   P8    D    
N10   H79   S    
Ba2   O6    S    
C47   H53   S    
O22   P2    D    
C5    O11   S    
C11   C13   D    
C47   C48   S    
O12   P1    S    
C30   P2    S    
C46   H44   S    
C43   O2    S    
Ba1   O8    S    
C54   H72   S    
N7    H58   S    
Ba2   P4    S    
C7    O17   S    
N6    H57   S    
C49   H65   S    
O7    P4    S    
C25   C30   D    
C20   C21   A    
O3    P3    S    
C29   C30   D    
C7    H25   S    
C37   H36   S    
Ba1   O5    S    
C9    C10   S    
C14   C49   S    
C41   H4    S    
C6    H22   S    
C48   H49   S    
C1    N5    S    
Ba2   O12   S    
C31   C36   A    
C29   H35   S    
C52   H67   S    
C50   H62   S    
C46   H46   S    
N8    H60   S    
C41   O20   S    
C44   C47   S    
C36   C38   S    
O1    P1    D    
C23   N10   S    
C41   H5    S    
N1    N2    A    
C28   C29   S    
C10   P6    S    
C45   H47   S    
N3    N4    A    
C28   C37   S    
Ba1   P1    S    
C12   C23   S    
C19   P4    S    
C33   C39   A    
C51   H71   S    
C17   N2    A    
C40   C45   S    
O17   P8    S    
O20   P1    S    
C42   H8    S    
C47   H52   S    
C18   C19   A    
C43   H9    S    
C6    H21   S    
C32   P5    S    
C20   C24   A    
C25   C26   S    
C16   N4    A    
C51   H70   S    
C49   C50   S    
Ba1   O22   S    
C10   C11   S    
C4    N6    S    
O9    P5    S    
O10   P5    D    
C3    O15   S    
Ba1   O18   S    
N6    H56   S    
Ba1   O12   S    
C5    H20   S    
C2    H1    S    
C8    H26   S    
