data_mof_unit_52498.cif
_audit_creation_date              2012-12-10T21:20:06-0500
_audit_creation_method            fapswitch 2.2
_symmetry_space_group_name_H-M    P1
_symmetry_Int_Tables_number       1
_space_group_crystal_system       triclinic
_cell_length_a                    16.728694
_cell_length_b                    16.582059
_cell_length_c                    17.49156
_cell_angle_alpha                 90.596398
_cell_angle_beta                  90.126639
_cell_angle_gamma                 84.909303
_cell_volume                      4832.68711683

loop_
_atom_site_label
_atom_site_type_symbol
_atom_type_description
_atom_site_fract_x
_atom_site_fract_y
_atom_site_fract_z
_atom_type_partial_charge
C1    C     C_R   0.499991 0.498923 0.352965 0.887097
C2    C     C_R   0.572352 0.489771 0.229717 -0.211645
C3    C     C_R   0.433601 0.454839 0.844998 -0.241521
C4    C     C_R   0.573076 0.475885 0.151476 -0.244660
C5    C     C_R   0.504850 0.460395 0.885340 0.034076
C6    C     C_R   0.501753 0.463004 0.113716 0.034121
C7    C     C_1   0.503839 0.453542 0.965610 -0.019293
C8    C     C_1   0.503028 0.454504 0.033446 -0.017789
C9    C     C_R   0.836806 0.447607 0.451746 -0.270797
C10   C     C_R   0.163339 0.551282 0.549468 -0.270244
C11   C     C_R   0.752463 0.448554 0.452567 0.019759
C12   C     C_R   0.500147 0.498679 0.647015 0.888161
C13   C     C_R   0.247688 0.550263 0.548587 0.021559
C14   C     C_R   0.743622 0.551361 0.547666 0.015980
C15   C     C_R   0.256184 0.449986 0.451163 0.009757
C16   C     C_R   0.511286 0.346343 0.501113 0.965226
C17   C     C_R   0.488798 0.653721 0.502012 0.962777
C18   C     C_R   0.827797 0.552287 0.548574 -0.270668
C19   C     C_R   0.171996 0.449154 0.450274 -0.271693
C20   C     C_R   0.875544 0.499987 0.500139 0.162230
C21   C     C_R   0.124417 0.500209 0.499917 0.159934
C22   C     C_1   0.963394 0.500083 0.500081 -0.047032
C23   C     C_R   0.574540 0.481362 0.848755 0.521057
C24   C     C_1   0.036562 0.500163 0.500011 -0.047677
C25   C     C_R   0.519410 0.261931 0.521205 -0.269212
C26   C     C_R   0.481569 0.738335 0.523779 -0.281909
C27   C     C_R   0.480342 0.239684 0.587069 -0.399028
C28   C     C_R   0.529213 0.761616 0.584253 -0.397750
C29   C     C_R   0.489433 0.159674 0.612531 0.486679
C30   C     C_R   0.523214 0.841546 0.610498 0.484110
C31   C     C_R   0.540556 0.103100 0.571052 -0.142481
C32   C     C_R   0.465403 0.897418 0.577191 -0.153083
C33   C     C_R   0.586366 0.127534 0.508997 0.370269
C34   C     C_R   0.428680 0.465824 0.153091 0.519558
C35   C     C_R   0.412039 0.872282 0.520713 0.371132
C36   C     C_R   0.572809 0.206486 0.481917 0.366533
C37   C     C_R   0.423130 0.793402 0.491117 0.369538
C38   C     C_2   0.538913 0.016495 0.585062 -0.050516
C39   C     C_2   0.468675 0.984135 0.591449 -0.043587
C40   C     C_3   0.416038 0.768919 0.362839 0.110215
C41   C     C_3   0.373541 0.718760 0.304049 -0.322403
C42   C     C_3   0.419367 0.711618 0.228552 -0.983216
C43   C     C_3   0.567780 0.227122 0.353625 0.097910
C44   C     C_3   0.610562 0.264267 0.287327 -0.337691
C45   C     C_R   0.572754 0.493915 0.770312 -0.281888
C46   C     C_3   0.560943 0.263867 0.214033 -0.922160
C47   C     C_3   0.712024 0.060152 0.507391 0.066183
C48   C     C_3   0.770344 0.119594 0.479220 -0.286651
C49   C     C_3   0.854273 0.099815 0.512105 -0.992152
C50   C     C_3   0.286515 0.938066 0.533950 0.065765
C51   C     C_3   0.226404 0.876950 0.512504 -0.286748
C52   C     C_3   0.147132 0.895171 0.554893 -0.998372
C53   C     C_3   0.651722 0.843856 0.661764 0.071763
C54   C     C_3   0.682413 0.781804 0.721601 -0.320113
C55   C     C_3   0.770626 0.753316 0.708424 -0.997622
C56   C     C_R   0.428556 0.477632 0.231842 -0.299936
C57   C     C_3   0.377620 0.171173 0.694500 0.065825
C58   C     C_3   0.378260 0.233513 0.759810 -0.314149
C59   C     C_3   0.295764 0.279141 0.770780 -0.971730
C60   C     C_3   0.646355 0.562692 0.924565 0.076705
C61   C     C_3   0.703064 0.613899 0.881843 -0.349189
C62   C     C_3   0.709140 0.695365 0.921861 -0.962542
C63   C     C_3   0.321694 0.526609 0.087151 0.076211
C64   C     C_3   0.255634 0.561731 0.141626 -0.360276
C65   C     C_3   0.211933 0.638865 0.109782 -0.953771
C66   C     C_R   0.501139 0.488751 0.729429 -0.105558
C67   C     C_R   0.500147 0.490274 0.270278 -0.099772
C68   C     C_R   0.431574 0.469168 0.767103 -0.213107
H1    H     H_    0.444503 0.285799 0.619154 0.183267
H2    H     H_    0.593215 0.977343 0.574280 0.145852
H3    H     H_    0.627107 0.508109 0.741760 0.167602
H4    H     H_    0.372642 0.476296 0.262700 0.166485
H5    H     H_    0.375955 0.463956 0.736355 0.173195
H6    H     H_    0.628254 0.499067 0.258468 0.165254
H7    H     H_    0.379506 0.440463 0.873949 0.159478
H8    H     H_    0.629061 0.475573 0.120342 0.157966
H9    H     H_    0.871434 0.406264 0.413576 0.140360
H10   H     H_    0.128851 0.591670 0.588580 0.140401
H11   H     H_    0.479322 0.741880 0.368074 0.107423
H12   H     H_    0.570579 0.716923 0.611521 0.180765
H13   H     H_    0.416494 0.832094 0.342016 0.165739
H14   H     H_    0.368639 0.656990 0.326742 0.236701
H15   H     H_    0.311948 0.747576 0.293717 0.226705
H16   H     H_    0.424920 0.772601 0.204480 0.268309
H17   H     H_    0.386709 0.675777 0.186871 0.267623
H18   H     H_    0.480206 0.680372 0.237281 0.270109
H19   H     H_    0.508116 0.261905 0.361428 0.110430
H20   H     H_    0.558795 0.162966 0.339120 0.169507
H21   H     H_    0.621348 0.327721 0.302284 0.227669
H22   H     H_    0.669569 0.229411 0.277464 0.225501
H23   H     H_    0.723120 0.407979 0.415109 0.134149
H24   H     H_    0.550431 0.200861 0.197354 0.261934
H25   H     H_    0.593702 0.291130 0.167091 0.273512
H26   H     H_    0.502282 0.299800 0.222219 0.271459
H27   H     H_    0.737665 0.997496 0.494011 0.158384
H28   H     H_    0.706506 0.064216 0.570970 0.113907
H29   H     H_    0.773533 0.116943 0.415758 0.240707
H30   H     H_    0.748503 0.182167 0.497030 0.240633
H31   H     H_    0.852547 0.102994 0.575558 0.269241
H32   H     H_    0.894802 0.144315 0.491226 0.270264
H33   H     H_    0.878716 0.038217 0.493674 0.266547
H34   H     H_    0.277155 0.589851 0.586923 0.126317
H35   H     H_    0.258055 0.000121 0.523667 0.161046
H36   H     H_    0.300247 0.934855 0.596418 0.112674
H37   H     H_    0.214931 0.878981 0.449902 0.244574
H38   H     H_    0.251730 0.814900 0.527403 0.235796
H39   H     H_    0.157158 0.892591 0.617657 0.266635
H40   H     H_    0.105284 0.849489 0.538680 0.270693
H41   H     H_    0.119154 0.956160 0.539643 0.268477
H42   H     H_    0.683368 0.899372 0.670609 0.151231
H43   H     H_    0.668285 0.821412 0.602973 0.121335
H44   H     H_    0.675263 0.809621 0.779535 0.236446
H45   H     H_    0.707332 0.591856 0.585213 0.120832
H46   H     H_    0.646741 0.728520 0.719371 0.209940
H47   H     H_    0.778803 0.724589 0.650994 0.259254
H48   H     H_    0.791151 0.707973 0.752094 0.269983
H49   H     H_    0.808045 0.805256 0.712870 0.270255
H50   H     H_    0.340800 0.122289 0.712852 0.154179
H51   H     H_    0.346957 0.197564 0.642629 0.124609
H52   H     H_    0.396512 0.201918 0.813661 0.232994
H53   H     H_    0.422610 0.277824 0.748150 0.228418
H54   H     H_    0.277844 0.313779 0.718525 0.264698
H55   H     H_    0.297825 0.322344 0.819515 0.266407
H56   H     H_    0.292341 0.410496 0.412666 0.124656
H57   H     H_    0.250300 0.236166 0.783230 0.267570
H58   H     H_    0.669262 0.552799 0.983714 0.164455
H59   H     H_    0.585942 0.596958 0.930054 0.117909
H60   H     H_    0.763760 0.580826 0.878734 0.235605
H61   H     H_    0.680668 0.624455 0.822656 0.212316
H62   H     H_    0.649653 0.730931 0.922546 0.267007
H63   H     H_    0.752296 0.730285 0.890937 0.269864
H64   H     H_    0.730760 0.686250 0.981504 0.265979
H65   H     H_    0.293872 0.513473 0.031167 0.168217
H66   H     H_    0.365027 0.572640 0.075754 0.115556
H67   H     H_    0.855327 0.593540 0.586835 0.139777
H68   H     H_    0.211688 0.516233 0.150574 0.235802
H69   H     H_    0.282128 0.576098 0.197850 0.215581
H70   H     H_    0.254600 0.685695 0.101573 0.265279
H71   H     H_    0.164692 0.662845 0.150588 0.268335
H72   H     H_    0.183127 0.625986 0.054226 0.264633
H73   H     H_    0.144340 0.408911 0.411089 0.140767
H74   H     H_    0.412924 0.023010 0.591447 0.152249
N1    N     N_R   0.707230 0.500020 0.500030 -0.088482
N2    N     N_R   0.292770 0.499980 0.499970 -0.088945
O1    O     O_R   0.566570 0.500000 0.389130 -0.627036
O2    O     O_3   0.615709 0.230528 0.419915 -0.639078
O3    O     O_3   0.637491 0.072287 0.468710 -0.632745
O4    O     O_3   0.355676 0.927066 0.487112 -0.629507
O5    O     O_3   0.568411 0.865323 0.672347 -0.621339
O6    O     O_3   0.456569 0.135572 0.680996 -0.624488
O7    O     O_3   0.645620 0.485821 0.888559 -0.647717
O8    O     O_3   0.358043 0.452503 0.115618 -0.650094
O9    O     O_R   0.433430 0.500000 0.610870 -0.630173
O10   O     O_R   0.433480 0.499990 0.389100 -0.631270
O11   O     O_R   0.566520 0.500010 0.610900 -0.625562
O12   O     O_R   0.574410 0.384200 0.500000 -0.584149
O13   O     O_R   0.425590 0.615800 0.500000 -0.585160
O14   O     O_R   0.441320 0.384200 0.499980 -0.632308
O15   O     O_R   0.558680 0.615800 0.500020 -0.630298
O16   O     O_3   0.374005 0.769365 0.432919 -0.630488
Zn1   Zn    Zn3+2 0.588860 0.500000 0.500020 0.944711
Zn2   Zn    Zn3+2 0.411140 0.500000 0.499980 0.938207

loop_
_geom_bond_atom_site_label_1
_geom_bond_atom_site_label_2
_ccdc_geom_bond_type
C53   H42   S    
C66   C68   A    
C38   H2    S    
C34   C56   A    
C23   C45   A    
C45   H3    S    
C41   C42   S    
C62   H62   S    
C1    O1    A    
C3    C68   A    
C12   O9    A    
C64   H68   S    
C10   H10   S    
C7    C8    T    
C53   C54   S    
O11   Zn1   S    
C50   H36   S    
C48   H29   S    
O1    Zn1   S    
C43   H20   S    
C63   H65   S    
C37   O16   S    
C35   C37   A    
C49   H33   S    
C38   C39   D    
C32   C39   S    
C46   H24   S    
C55   H48   S    
C54   C55   S    
C41   H15   S    
C33   C36   A    
C27   C29   A    
C13   N2    A    
C14   C18   A    
C33   O3    S    
C29   O6    S    
C15   C19   A    
C65   H72   S    
C52   H39   S    
C56   H4    S    
C5    C23   A    
C16   O12   A    
C47   H28   S    
C31   C33   A    
C42   H18   S    
C17   O13   A    
C2    H6    S    
C61   H61   S    
C57   H51   S    
C53   H43   S    
C59   H54   S    
C50   H35   S    
C19   H73   S    
C53   O5    S    
C1    O10   A    
C17   O15   A    
C40   H13   S    
C44   C46   S    
C64   H69   S    
C10   C21   A    
C59   H55   S    
C47   O3    S    
C15   H56   S    
C16   O14   A    
C51   C52   S    
C63   H66   S    
C62   H64   S    
C42   H16   S    
C4    C6    A    
C2    C67   A    
C5    C7    S    
C34   O8    S    
C30   O5    S    
C6    C8    S    
C68   H5    S    
C12   C66   S    
C6    C34   A    
C60   C61   S    
C60   O7    S    
C2    C4    A    
C43   C44   S    
C32   C35   A    
C49   H31   S    
C9    C20   A    
C47   C48   S    
C46   H26   S    
C39   H74   S    
C51   H37   S    
C57   O6    S    
C58   H52   S    
C50   C51   S    
C40   H11   S    
C54   H44   S    
C18   H67   S    
C42   H17   S    
C9    H9    S    
C9    C11   A    
C65   H70   S    
C36   O2    S    
C40   C41   S    
C20   C22   S    
O12   Zn1   S    
C22   C24   T    
C59   H57   S    
C17   C26   S    
C12   O11   A    
C14   H45   S    
O10   Zn2   S    
C44   H22   S    
C3    H7    S    
C55   H49   S    
C50   O4    S    
C16   C25   S    
C23   O7    S    
C14   N1    A    
C48   C49   S    
C58   H53   S    
N2    Zn2   S    
C62   H63   S    
C40   O16   S    
C60   H59   S    
C63   C64   S    
C3    C5    A    
C10   C13   A    
C27   H1    S    
C26   C37   A    
C25   C27   A    
C56   C67   A    
C48   H30   S    
C26   C28   A    
C31   C38   S    
O9    Zn2   S    
C43   H19   S    
C64   C65   S    
C60   H58   S    
O15   Zn1   S    
C58   C59   S    
C29   C31   A    
C43   O2    S    
C49   H32   S    
C30   C32   A    
C57   C58   S    
C46   H25   S    
C55   H47   S    
C52   H41   S    
C51   H38   S    
C41   H14   S    
C54   H46   S    
C28   C30   A    
C1    C67   S    
C61   H60   S    
C18   C20   A    
C35   O4    S    
C61   C62   S    
C28   H12   S    
C63   O8    S    
C4    H8    S    
O14   Zn2   S    
C25   C36   A    
C15   N2    A    
C65   H71   S    
C11   H23   S    
C52   H40   S    
C21   C24   S    
C45   C66   A    
C47   H27   S    
C13   H34   S    
C11   N1    A    
O13   Zn2   S    
N1    Zn1   S    
C44   H21   S    
C57   H50   S    
C19   C21   A    
