data_mof_unit_38278.cif
_audit_creation_date              2012-12-10T17:33:14-0500
_audit_creation_method            fapswitch 2.2
_symmetry_space_group_name_H-M    P1
_symmetry_Int_Tables_number       1
_space_group_crystal_system       triclinic
_cell_length_a                    11.988948
_cell_length_b                    12.829481
_cell_length_c                    13.634988
_cell_angle_alpha                 91.079569
_cell_angle_beta                  79.700582
_cell_angle_gamma                 94.973117
_cell_volume                      2055.65185197

loop_
_atom_site_label
_atom_site_type_symbol
_atom_type_description
_atom_site_fract_x
_atom_site_fract_y
_atom_site_fract_z
_atom_type_partial_charge
C1    C     C_R   0.524063 0.700859 0.498818 0.931766
C2    C     C_R   0.475809 0.298966 0.501721 0.919278
C3    C     C_R   0.453595 0.973528 0.540634 0.054754
C4    C     C_R   0.554874 0.028381 0.489757 0.077640
C5    C     C_R   0.960402 0.391405 0.418392 -0.340940
C6    C     C_R   0.039509 0.608300 0.582028 -0.330695
C7    C     C_R   0.843991 0.403169 0.425098 0.033879
C8    C     C_R   0.155960 0.596622 0.575182 0.037034
C9    C     C_R   0.856200 0.548507 0.533924 -0.014778
C10   C     C_R   0.143753 0.451382 0.466229 -0.037848
C11   C     C_R   0.973653 0.539768 0.529460 0.087721
C12   C     C_R   0.026270 0.460017 0.470851 0.094682
C13   C     C_R   0.480396 0.501328 0.686857 0.898915
C14   C     C_R   0.519606 0.498709 0.313141 0.895572
C15   C     C_1   0.534111 0.497789 0.208750 -0.175363
C16   C     C_1   0.465911 0.502496 0.791242 -0.171650
C17   C     C_2   0.548277 0.496971 0.016535 -0.161766
C18   C     C_2   0.451775 0.503771 0.983452 -0.161211
C19   C     C_1   0.455766 0.503354 0.879460 0.009870
C20   C     C_1   0.544264 0.497168 0.120530 0.008422
C21   C     C_R   0.458095 0.186337 0.507198 -0.185220
C22   C     C_R   0.542264 0.813213 0.501765 -0.124483
C23   C     C_R   0.655692 0.976732 0.458360 0.007765
C24   C     C_R   0.354764 0.026285 0.577241 0.076291
C25   C     C_R   0.644855 0.866382 0.455539 0.400885
C26   C     C_R   0.358109 0.133930 0.560369 0.373494
C27   C     C_R   0.452023 0.866346 0.549712 -0.363415
C28   C     C_R   0.551410 0.132524 0.467886 -0.315856
H1    H     H_    0.371055 0.509458 0.033562 0.160625
H2    H     H_    0.628988 0.491255 0.966421 0.160573
H3    H     H_    0.620740 0.173908 0.418279 0.163219
H4    H     H_    0.377879 0.821347 0.589270 0.183895
H5    H     H_    0.185772 0.390872 0.421216 0.116187
H6    H     H_    0.814172 0.609024 0.578920 0.129704
H7    H     H_    0.206601 0.649758 0.615573 0.125113
H8    H     H_    0.793347 0.349938 0.384807 0.124037
H9    H     H_    0.998370 0.329205 0.372790 0.145329
H10   H     H_    0.001525 0.670390 0.627789 0.144497
N1    N     N_R   0.206090 0.519450 0.517820 -0.095267
N2    N     N_R   0.793910 0.480550 0.482180 -0.097080
O1    O     O_R   0.421240 0.658850 0.504760 -0.642830
O2    O     O_R   0.578760 0.341150 0.495240 -0.628999
O3    O     O_R   0.609960 0.646370 0.493320 -0.562144
O4    O     O_R   0.390040 0.353630 0.506680 -0.613436
O5    O     O_R   0.392060 0.507120 0.646890 -0.605681
O6    O     O_R   0.607940 0.492880 0.353110 -0.607601
O7    O     O_R   0.580780 0.494630 0.635450 -0.618245
O8    O     O_R   0.419220 0.505370 0.364550 -0.615216
Zn1   Zn    Zn3+2 0.373990 0.508340 0.507630 0.954348
Zn2   Zn    Zn3+2 0.626010 0.491660 0.492370 0.971559
O9    O     O_3   0.265234 0.186997 0.599845 -0.769368
H11   H     H_    0.240411 0.219526 0.542891 0.339164
O10   O     O_3   0.730929 0.808502 0.407821 -0.770618
H12   H     H_    0.782878 0.852286 0.357433 0.332063
C29   C     C_3   0.773779 0.036375 0.434466 -0.446605
C30   C     C_3   0.852439 0.004907 0.504528 -0.314254
C31   C     C_3   0.967465 0.069165 0.483999 -0.894993
H13   H     H_    0.010215 0.057400 0.405817 0.260817
H14   H     H_    0.956350 0.153672 0.497087 0.267454
H15   H     H_    0.022609 0.043819 0.534744 0.251508
H16   H     H_    0.811738 0.018006 0.583176 0.226827
H17   H     H_    0.867643 0.920921 0.495490 0.248325
H18   H     H_    0.812580 0.023741 0.355372 0.189097
H19   H     H_    0.770876 0.121808 0.444131 0.212626
C32   C     C_3   0.244642 0.969671 0.631809 -0.388706
C33   C     C_3   0.252677 0.946329 0.740178 -0.326977
C34   C     C_3   0.146439 0.881377 0.791728 -0.891308
H20   H     H_    0.069553 0.923832 0.791580 0.267172
H21   H     H_    0.136832 0.804946 0.753120 0.253033
H22   H     H_    0.153946 0.866595 0.870163 0.255893
H23   H     H_    0.328195 0.903104 0.743639 0.218077
H24   H     H_    0.261986 0.021301 0.781348 0.244845
H25   H     H_    0.171285 0.017075 0.632804 0.237834
H26   H     H_    0.222397 0.897240 0.591092 0.180764

loop_
_geom_bond_atom_site_label_1
_geom_bond_atom_site_label_2
_ccdc_geom_bond_type
O4    Zn1   S    
C14   O8    A    
C11   C12   A    
C6    H10   S    
O3    Zn2   S    
C23   C29   S    
C8    N1    A    
C5    H9    S    
O7    Zn2   S    
C7    H8    S    
O6    Zn2   S    
C33   H23   S    
C14   C15   S    
O5    Zn1   S    
C8    H7    S    
C29   C30   S    
C34   H22   S    
C29   H19   S    
C2    C21   S    
C3    C27   A    
C17   C18   D    
C31   H13   S    
C32   H25   S    
C1    C22   S    
C14   O6    A    
C18   H1    S    
C26   O9    S    
C25   O10   S    
C13   O5    A    
C17   H2    S    
C9    C11   A    
C3    C24   A    
C15   C20   T    
C10   C12   A    
C24   C32   S    
C2    O2    A    
C16   C19   T    
N2    Zn2   S    
O1    Zn1   S    
O8    Zn1   S    
C4    C28   A    
C21   C26   A    
O2    Zn2   S    
C33   C34   S    
C10   H5    S    
C22   C27   A    
C23   C25   A    
C9    H6    S    
C30   H17   S    
C31   H14   S    
C28   H3    S    
C32   C33   S    
C21   C28   A    
C34   H20   S    
C17   C20   S    
O9    H11   S    
C30   C31   S    
C3    C4    A    
C5    C12   A    
C13   O7    A    
C18   C19   S    
C13   C16   S    
C1    O1    A    
C6    C11   A    
C5    C7    A    
C4    C23   A    
C30   H16   S    
C31   H15   S    
C6    C8    A    
N1    Zn1   S    
C27   H4    S    
O10   H12   S    
C7    N2    A    
C1    O3    A    
C9    N2    A    
C33   H24   S    
C32   H26   S    
C24   C26   A    
C2    O4    A    
C10   N1    A    
C34   H21   S    
C22   C25   A    
C29   H18   S    
