data_mof_unit_47289.cif
_audit_creation_date              2012-10-26T20:32:43-0400
_audit_creation_method            fapswitch 2.2
_symmetry_space_group_name_H-M    P1
_symmetry_Int_Tables_number       1
_space_group_crystal_system       triclinic
_cell_length_a                    27.755154
_cell_length_b                    10.894673
_cell_length_c                    9.578936
_cell_angle_alpha                 89.366131
_cell_angle_beta                  90.105686
_cell_angle_gamma                 90.609639
_cell_volume                      2896.16501195

loop_
_atom_site_label
_atom_site_type_symbol
_atom_type_description
_atom_site_fract_x
_atom_site_fract_y
_atom_site_fract_z
_atom_type_partial_charge
C1    C     C_R   0.499589 0.262959 0.500462 0.595919
C2    C     C_R   0.973485 0.362796 0.459314 0.008329
C3    C     C_R   0.976496 0.587943 0.470328 -0.011405
C4    C     C_R   0.407485 0.497313 0.499648 0.616069
C5    C     C_R   0.949692 0.476749 0.471454 -0.011423
C6    C     C_R   0.946082 0.254514 0.479931 -0.161762
C7    C     C_R   0.895889 0.255441 0.485610 0.002898
C8    C     C_R   0.871689 0.369082 0.480928 0.045701
C9    C     C_R   0.898921 0.479181 0.488025 -0.086359
C10   C     C_R   0.875282 0.591268 0.511925 -0.029851
C11   C     C_R   0.825000 0.587932 0.534778 0.396498
C12   C     C_R   0.280284 0.406298 0.390577 0.227745
C13   C     C_R   0.821263 0.378034 0.469735 0.418726
C14   C     C_R   0.719442 0.405190 0.594356 0.033033
C15   C     C_R   0.668343 0.409361 0.588972 0.210474
C16   C     C_R   0.497095 0.737113 0.498664 0.588395
C17   C     C_R   0.673128 0.588324 0.433098 -0.077682
C18   C     C_R   0.723089 0.577413 0.430128 -0.105770
C19   C     C_R   0.746697 0.488086 0.510309 0.155927
C20   C     C_R   0.024530 0.360396 0.442498 -0.016749
C21   C     C_R   0.050620 0.472484 0.439909 -0.022316
C22   C     C_R   0.026101 0.585124 0.434449 0.013409
C23   C     C_R   0.252837 0.478168 0.480545 0.296646
C24   C     C_R   0.050670 0.250937 0.419727 0.015918
C25   C     C_R   0.102140 0.690430 0.377985 0.255800
C26   C     C_R   0.953111 0.697302 0.512202 0.324891
C27   C     C_R   0.902970 0.700769 0.521744 0.296380
C28   C     C_R   0.592375 0.500137 0.500724 0.649682
C29   C     C_R   0.051071 0.688748 0.380048 0.221348
C30   C     C_R   0.499309 0.060223 0.619346 0.079855
C31   C     C_R   0.497149 0.130709 0.498808 0.013672
C32   C     C_R   0.490239 0.068753 0.372036 -0.079640
C33   C     C_R   0.486662 0.939602 0.368100 0.018326
C34   C     C_R   0.101500 0.472133 0.437462 -0.099476
C35   C     C_R   0.492817 0.870193 0.494528 0.006981
C36   C     C_R   0.496917 0.936436 0.617327 0.004769
C37   C     C_3   0.501126 0.924406 0.772269 -0.077392
C38   C     C_3   0.503999 0.066399 0.774016 0.142068
C39   C     C_R   0.523406 0.591018 0.072049 0.168852
C40   C     C_R   0.176150 0.369492 0.492146 0.447016
C41   C     C_R   0.473043 0.417695 0.075203 -0.007050
C42   C     C_R   0.472880 0.418039 0.926550 0.013330
C43   C     C_R   0.524111 0.589259 0.925059 0.090282
C44   C     C_3   0.576368 0.622240 0.915787 0.124599
C45   C     C_R   0.126225 0.361583 0.463430 -0.021771
C46   C     C_3   0.575936 0.626433 0.074796 0.452760
C47   C     C_R   0.178112 0.580655 0.423662 0.497616
C48   C     C_R   0.274970 0.553005 0.580984 0.232036
C49   C     C_R   0.325981 0.561060 0.587602 -0.056372
C50   C     C_R   0.331108 0.408209 0.400895 -0.037420
C51   C     C_2   0.359679 0.325655 0.311343 0.237736
C52   C     C_2   0.652279 0.701073 0.370960 0.302783
C53   C     C_2   0.473478 0.883929 0.232477 0.261846
C54   C     C_2   0.456025 0.870098 0.836085 0.300640
C55   C     C_2   0.124749 0.128908 0.470632 0.366307
C56   C     C_R   0.100304 0.248618 0.454750 0.034538
C57   C     C_2   0.744863 0.316188 0.686467 0.309999
C58   C     C_2   0.871518 0.135531 0.511124 0.318835
C59   C     C_2   0.029663 0.155098 0.325861 0.259366
C60   C     C_2   0.349443 0.647982 0.685513 0.255155
C61   C     C_R   0.127431 0.582653 0.413944 0.034271
C62   C     C_R   0.354125 0.488392 0.497108 -0.038303
C63   C     C_R   0.645387 0.498519 0.504773 0.047706
Cu1   Cu    Cu3+1 0.500000 0.499980 0.640670 1.073902
Cu2   Cu    Cu3+1 0.500000 0.500020 0.359330 1.073589
H1    H     H_    0.744351 0.642760 0.369502 0.145825
H2    H     H_    0.263067 0.682830 0.717283 0.341725
H3    H     H_    0.107175 0.868159 0.360512 0.384531
H4    H     H_    0.008885 0.775234 0.596146 0.339848
H5    H     H_    0.672227 0.752320 0.291808 0.141169
H6    H     H_    0.856359 0.822581 0.473320 0.349005
H7    H     H_    0.043943 0.817819 0.240495 0.367397
H8    H     H_    0.452989 0.798877 0.227785 0.136313
H9    H     H_    0.457513 0.781389 0.888123 0.112844
H10   H     H_    0.275870 0.268639 0.260407 0.338725
H11   H     H_    0.550197 0.107177 0.916225 0.350585
H12   H     H_    0.485946 0.121053 0.275977 0.190776
H13   H     H_    0.637119 0.558490 0.854226 0.317580
H14   H     H_    0.638943 0.564301 0.121894 0.326741
H15   H     H_    0.563441 0.803248 0.079339 0.316281
H16   H     H_    0.158336 0.111756 0.416861 0.170380
H17   H     H_    0.655224 0.314345 0.757251 0.376547
H18   H     H_    0.779241 0.341369 0.732760 0.129079
H19   H     H_    0.886241 0.053268 0.465693 0.148711
H20   H     H_    0.996612 0.173470 0.269076 0.119624
H21   H     H_    0.338288 0.650719 0.793933 0.118816
H22   H     H_    0.534745 0.878233 0.805618 0.112670
H23   H     H_    0.473669 0.115014 0.824577 0.156627
H24   H     H_    0.452010 0.349260 0.131339 0.139800
H25   H     H_    0.451594 0.350146 0.871760 0.117143
H26   H     H_    0.583441 0.711225 0.861198 0.083647
H27   H     H_    0.963521 0.167492 0.497760 0.144505
H28   H     H_    0.352013 0.319518 0.200489 0.106709
N1    N     N_R   0.201041 0.476547 0.467238 -0.345637
N2    N     N_R   0.798751 0.484102 0.505937 -0.414678
N3    N     N_R   0.500300 0.500930 0.147930 -0.232099
N4    N     N_R   0.500310 0.500890 0.852020 -0.211790
O1    O     O_R   0.500000 0.319640 0.618810 -0.480325
O2    O     O_R   0.569730 0.499960 0.618810 -0.420469
O3    O     O_R   0.569740 0.500000 0.381220 -0.423199
O4    O     O_2   0.199839 0.272550 0.546270 -0.456643
O5    O     O_2   0.391058 0.261138 0.361794 -0.505432
O6    O     O_3   0.244898 0.618413 0.667445 -0.643107
O7    O     O_3   0.127610 0.796090 0.343437 -0.610736
O8    O     O_3   0.978003 0.801168 0.553600 -0.573043
O9    O     O_2   0.614105 0.741788 0.412159 -0.444787
O10   O     O_3   0.882419 0.813399 0.543450 -0.593327
O11   O     O_3   0.024805 0.781716 0.318205 -0.625468
O12   O     O_2   0.795013 0.283401 0.419486 -0.414832
O13   O     O_2   0.484115 0.935663 0.123013 -0.562036
O14   O     O_2   0.417492 0.922873 0.827692 -0.449185
O15   O     O_3   0.255476 0.335780 0.294201 -0.665477
O16   O     O_3   0.549677 0.110078 0.812692 -0.632190
O17   O     O_3   0.604022 0.524904 0.866835 -0.618171
O18   O     O_3   0.605128 0.536817 0.136894 -0.588330
O19   O     O_3   0.584492 0.744131 0.129306 -0.665049
O20   O     O_2   0.107285 0.048458 0.545143 -0.432026
O21   O     O_3   0.639707 0.328998 0.665580 -0.595905
O22   O     O_2   0.729002 0.212532 0.706486 -0.402452
O23   O     O_2   0.204528 0.681680 0.391394 -0.366930
O24   O     O_2   0.837078 0.126053 0.589752 -0.396774
O25   O     O_2   0.049409 0.057562 0.305266 -0.469167
O26   O     O_2   0.380538 0.719710 0.644476 -0.465533
O27   O     O_2   0.802434 0.686156 0.587467 -0.444275
O28   O     O_R   0.500010 0.319680 0.381230 -0.507251
O29   O     O_R   0.430260 0.500000 0.618780 -0.498924
O30   O     O_R   0.430270 0.500040 0.381190 -0.507699
O31   O     O_R   0.499990 0.680320 0.618770 -0.516865
O32   O     O_R   0.500000 0.680360 0.381190 -0.505678

loop_
_geom_bond_atom_site_label_1
_geom_bond_atom_site_label_2
_ccdc_geom_bond_type
C53   O13   D    
C10   C27   A    
C41   H24   S    
C55   C56   S    
C8    C13   A    
C22   C29   A    
H14   O18   S    
C41   C42   A    
C11   O27   S    
H2    O6    S    
C7    C8    A    
H13   O17   S    
C51   O5    D    
C12   C23   A    
C30   C38   S    
H10   O15   S    
C49   C60   S    
C46   O18   S    
C13   N2    A    
Cu2   O30   S    
C36   C37   S    
C1    O28   A    
H6    O10   S    
C16   C35   S    
C30   C31   A    
C41   N3    A    
C4    C62   S    
C1    C31   S    
C26   O8    S    
C18   C19   A    
C46   O19   S    
C20   C24   A    
C13   O12   S    
C40   O4    S    
C54   H9    S    
Cu2   N3    S    
H7    O11   S    
C45   C56   A    
C8    C9    A    
Cu1   O31   S    
C57   H18   S    
C29   O11   S    
C49   C62   A    
H11   O16   S    
C55   H16   S    
C9    C10   A    
C7    C58   S    
C57   O22   D    
C28   O3    A    
C59   O25   D    
Cu1   O1    S    
C32   H12   S    
C44   O17   S    
C21   C22   A    
C25   C29   A    
C2    C6    A    
C17   C52   S    
C44   C46   S    
C50   C51   S    
Cu1   O2    S    
C33   C53   S    
C40   C45   A    
C2    C20   A    
H15   O19   S    
C42   N4    A    
C38   O16   S    
H4    O8    S    
C39   C43   A    
C21   C34   A    
C48   O6    S    
C34   C61   A    
C38   H23   S    
C42   H25   S    
C35   C36   A    
Cu2   O28   S    
C60   O26   D    
C43   C44   S    
C59   H20   S    
C5    C9    A    
C37   C38   S    
C58   H19   S    
Cu2   O32   S    
C31   C32   A    
C27   O10   S    
C17   C18   A    
C26   C27   A    
C34   C45   A    
C25   C61   A    
C16   O32   A    
C16   O31   A    
C44   H26   S    
C51   H28   S    
C39   C46   S    
C37   C54   S    
C28   O2    A    
C48   C49   A    
Cu1   O29   S    
C50   C62   A    
C2    C5    A    
C18   H1    S    
H17   O21   S    
C12   O15   S    
C19   N2    S    
C55   O20   D    
C11   N2    A    
C14   C57   S    
C47   O23   S    
C58   O24   D    
C60   H21   S    
C23   C48   A    
C4    O30   A    
C14   C19   A    
C37   H22   S    
C3    C26   A    
C53   H8    S    
C43   N4    A    
Cu2   O3    S    
C40   N1    A    
C3    C5    A    
C1    O1    A    
C47   C61   A    
C12   C50   A    
C15   O21   S    
C25   O7    S    
C6    C7    A    
C30   C36   A    
C24   C56   A    
C23   N1    S    
C4    O29   A    
C32   C33   A    
H3    O7    S    
Cu1   Cu2   S    
Cu1   N4    S    
C24   C59   S    
C6    H27   S    
C33   C35   A    
C47   N1    A    
C54   O14   D    
C39   N3    A    
C52   H5    S    
C10   C11   A    
C52   O9    D    
C28   C63   S    
C20   C21   A    
C15   C63   A    
C14   C15   A    
C3    C22   A    
C17   C63   A    
