data_mof_unit_68336.cif
_audit_creation_date              2013-03-05T16:05:14-0500
_audit_creation_method            fapswitch 2.2
_symmetry_space_group_name_H-M    P1
_symmetry_Int_Tables_number       1
_space_group_crystal_system       triclinic
_cell_length_a                    8.439728
_cell_length_b                    15.240936
_cell_length_c                    15.146311
_cell_angle_alpha                 98.647161
_cell_angle_beta                  98.094929
_cell_angle_gamma                 98.919353
_cell_volume                      1875.76389083

loop_
_atom_site_label
_atom_site_type_symbol
_atom_site_description
_atom_site_fract_x
_atom_site_fract_y
_atom_site_fract_z
_atom_type_partial_charge
P1    P     P_3+3 0.996570 0.418570 0.288410 0.598994
O1    O     O_2   0.826460 0.445380 0.275370 -0.222324
O2    O     O_3   0.098920 0.448470 0.388920 -0.431008
O3    O     O_3   0.628660 0.613390 0.338240 -0.315254
O4    O     O_2   0.675657 0.529537 0.176576 -0.222509
O5    O     O_3   0.955192 0.301123 0.257943 -0.504176
O6    O     O_3   0.645656 0.696810 0.175286 -0.546164
H1    H     H_    0.755740 0.775129 0.297785 0.165863
C1    C     C_3   0.717822 0.858954 0.196504 -0.744265
H2    H     H_    0.833167 0.853365 0.171738 0.240373
P2    P     P_3+3 0.693070 0.712070 0.580610 0.577259
P3    P     P_3+3 0.108398 0.777962 0.395539 0.504926
O7    O     O_2   0.863170 0.725020 0.553760 -0.324113
O8    O     O_3   0.060910 0.661460 0.386100 -0.368062
O9    O     O_2   0.974701 0.815281 0.440669 -0.287538
O10   O     O_3   0.705027 0.721676 0.699195 -0.545048
O11   O     O_3   0.073175 0.806256 0.286787 -0.572862
C2    C     C_3   0.070118 0.732082 0.217847 0.934002
H3    H     H_    0.175362 0.699380 0.229651 -0.095696
C3    C     C_3   0.070665 0.763558 0.126205 1.076095
H4    H     H_    0.948392 0.742772 0.083410 -0.032299
C4    C     C_3   0.272351 0.746322 0.683200 0.207440
H5    H     H_    0.385898 0.730673 0.661344 0.107976
H6    H     H_    0.168968 0.730438 0.625710 0.117602
C5    C     C_3   0.300071 0.845766 0.727463 -0.696034
H7    H     H_    0.215696 0.855975 0.776397 0.260918
H8    H     H_    0.424537 0.865165 0.767295 0.208147
Ba1   Ba    Ba6+2 0.844900 0.542440 0.457470 1.718891
C6    C     C_3   0.924628 0.261196 0.332373 0.371260
H9    H     H_    0.795820 0.260962 0.339028 0.116455
H10   H     H_    0.006610 0.294885 0.396328 0.099526
C7    C     C_3   0.953077 0.164882 0.314345 -0.830567
H11   H     H_    0.878396 0.128978 0.249163 0.298442
H12   H     H_    0.920266 0.129709 0.369678 0.236042
H13   H     H_    0.083151 0.164297 0.310801 0.222127
C8    C     C_3   0.852446 0.766103 0.755254 0.250731
H14   H     H_    0.954689 0.774652 0.717113 0.083328
C9    C     C_3   0.826498 0.858465 0.806573 -0.843179
H15   H     H_    0.694899 0.850632 0.811106 0.187315
P4    P     P_3+3 0.193140 0.581510 0.711600 0.513784
O12   O     O_2   0.363260 0.554650 0.724690 -0.330759
O13   O     O_3   0.090800 0.551610 0.611090 -0.411539
O14   O     O_3   0.561050 0.386690 0.661770 -0.367747
O15   O     O_3   0.238583 0.697561 0.750509 -0.514518
P5    P     P_3+3 0.073204 0.220717 0.604580 0.504563
O16   O     O_3   0.598950 0.388690 0.448890 -0.368197
O17   O     O_3   0.128800 0.338610 0.613910 -0.353720
O18   O     O_2   0.207827 0.176491 0.565485 -0.338476
O19   O     O_3   0.081418 0.193878 0.713966 -0.540736
Ba2   Ba    Ba6+2 0.344940 0.457640 0.542540 1.673912
P6    P     P_3+3 0.577483 0.597874 0.218032 0.610452
C10   C     C_3   0.661862 0.776508 0.239156 0.328700
H16   H     H_    0.626770 0.861323 0.136642 0.235561
O20   O     O_3   0.590770 0.611390 0.551120 -0.355465
C11   C     C_3   0.377856 0.305509 0.260561 1.099899
H17   H     H_    0.270714 0.316286 0.292780 -0.202772
C12   C     C_3   0.320169 0.266857 0.160372 0.258676
H18   H     H_    0.260490 0.316399 0.127340 0.017862
P7    P     P_3+3 0.499037 0.274481 0.416803 0.483650
O21   O     O_2   0.326540 0.275010 0.446300 -0.407628
O22   O     O_3   0.462600 0.244716 0.299113 -0.599875
C13   C     C_3   0.192787 0.259591 0.777591 0.259326
H19   H     H_    0.305682 0.276755 0.749929 0.197278
H20   H     H_    0.138861 0.321420 0.790323 0.047830
C14   C     C_3   0.235128 0.223205 0.867684 -0.841335
P8    P     P_3+3 0.611825 0.400230 0.780220 0.517267
C15   C     C_3   0.726252 0.254656 0.771550 0.124289
H21   H     H_    0.838059 0.282664 0.821404 0.053009
O23   O     O_2   0.476435 0.440596 0.821949 -0.397543
O24   O     O_3   0.593060 0.289582 0.799893 -0.532773
H22   H     H_    0.747563 0.270732 0.704459 0.114385
H23   H     H_    0.800484 0.127751 0.737091 0.069156
C16   C     C_3   0.694078 0.152334 0.760153 0.371618
C17   C     C_R   0.358287 0.552457 0.173074 0.205172
H24   H     H_    0.320910 0.523919 0.303933 0.214988
H25   H     H_    0.504761 0.610156 0.037584 0.165141
C18   C     C_R   0.104777 0.475274 0.206123 0.125082
C19   C     C_R   0.926951 0.483819 0.769885 -0.440820
C20   C     C_R   0.822386 0.460438 0.828883 0.178862
C21   C     C_R   0.881466 0.472081 0.921298 -0.143823
C22   C     C_R   0.048555 0.505051 0.956374 0.078572
C23   C     C_R   0.149910 0.537674 0.894259 -0.073248
C24   C     C_R   0.118152 0.507622 0.050548 -0.128951
C25   C     C_R   0.285626 0.547854 0.081052 -0.017726
C26   C     C_R   0.377330 0.582220 0.018927 0.035964
C27   C     C_R   0.310653 0.579119 0.928986 -0.016330
C28   C     C_R   0.032245 0.467695 0.114701 0.664320
C29   C     C_R   0.264971 0.519465 0.234197 -0.534554
C30   C     C_R   0.087037 0.527364 0.799033 0.165494
H26   H     H_    0.792588 0.454888 0.962876 0.238182
H27   H     H_    0.389547 0.607785 0.886503 0.187708
C31   C     C_R   0.315768 0.828293 0.461301 0.209850
H28   H     H_    0.344616 0.702440 0.504559 0.179374
H29   H     H_    0.177944 0.958646 0.394673 0.200061
C32   C     C_R   0.573494 0.793243 0.530314 0.153494
C33   C     C_R   0.769772 0.223453 0.504352 -0.452415
C34   C     C_R   0.866631 0.168817 0.541899 0.168140
C35   C     C_R   0.801008 0.077957 0.539939 -0.143391
C36   C     C_R   0.637626 0.039460 0.497392 0.192606
C37   C     C_R   0.540363 0.099178 0.461322 0.043321
C38   C     C_R   0.564377 0.945747 0.492801 -0.078691
C39   C     C_R   0.394485 0.917094 0.458236 -0.042504
C40   C     C_R   0.306106 0.977644 0.421766 -0.057127
C41   C     C_R   0.378056 0.065648 0.421539 -0.037406
C42   C     C_R   0.652064 0.879027 0.520920 0.641320
C43   C     C_R   0.404446 0.770282 0.503295 -0.567794
C44   C     C_R   0.607620 0.191828 0.466839 0.215881
H30   H     H_    0.823070 0.291178 0.500663 0.188259
H31   H     H_    0.879627 0.041760 0.576141 0.241578
H32   H     H_    0.302091 0.107868 0.391782 0.146279
C45   C     C_2   0.273167 0.906691 0.660645 1.103930
O25   O     O_2   0.384086 0.964531 0.652544 -0.539022
O26   O     O_R   0.119517 0.900375 0.610537 -0.705825
H33   H     H_    0.116185 0.949459 0.572265 0.364626
C46   C     C_2   0.889282 0.706870 0.823767 0.959521
O27   O     O_2   0.780588 0.651134 0.839292 -0.613013
O28   O     O_R   0.043619 0.722323 0.876123 -0.760741
H34   H     H_    0.045176 0.688287 0.928314 0.353025
C47   C     C_2   0.743776 0.944702 0.265078 1.073678
O29   O     O_2   0.853354 0.957822 0.329986 -0.598863
O30   O     O_R   0.641305 0.008032 0.257641 -0.759992
H35   H     H_    0.553840 0.990957 0.201851 0.361625
C48   C     C_2   0.867094 0.933100 0.754452 1.196663
O31   O     O_2   0.007027 0.971631 0.761020 -0.567730
O32   O     O_R   0.745243 0.961078 0.700277 -0.751427
H36   H     H_    0.637051 0.920395 0.695073 0.305717
C49   C     C_2   0.915337 0.887881 0.903690 1.156589
O33   O     O_2   0.837593 0.894286 0.965985 -0.625159
O34   O     O_R   0.085214 0.908147 0.922008 -0.735368
H37   H     H_    0.129366 0.928337 0.988994 0.393703
C50   C     C_2   0.505304 0.783649 0.272018 0.859361
O35   O     O_2   0.409494 0.827661 0.240369 -0.584722
O36   O     O_R   0.472520 0.736442 0.339805 -0.830001
H38   H     H_    0.358405 0.702736 0.331711 0.293889
F1    F     F_    0.481158 0.387170 0.268409 -0.661615
C51   C     C_2   0.203183 0.178863 0.146417 0.924456
O37   O     O_2   0.251556 0.111207 0.165169 -0.536337
O38   O     O_R   0.039559 0.174480 0.111290 -0.751667
H39   H     H_    0.974006 0.111221 0.102274 0.368260
F2    F     F_    0.454382 0.252513 0.121462 -0.560198
F3    F     F_    0.181670 0.725616 0.081247 -0.742114
C52   C     C_2   0.372839 0.289362 0.932174 1.175175
O39   O     O_2   0.498514 0.265337 0.960288 -0.431920
O40   O     O_R   0.359449 0.378205 0.962366 -0.738780
H40   H     H_    0.259748 0.394817 0.929509 0.299297
C53   C     C_2   0.088223 0.213068 0.915223 1.017829
O41   O     O_2   0.015307 0.138134 0.918925 -0.591611
O42   O     O_R   0.039313 0.289684 0.958194 -0.831986
H41   H     H_    0.948176 0.275105 0.993315 0.420861
C54   C     C_2   0.286560 0.131463 0.849087 1.258035
O43   O     O_2   0.298382 0.097504 0.772567 -0.504370
O44   O     O_R   0.316915 0.084927 0.920818 -0.728324
H42   H     H_    0.336678 0.021927 0.899749 0.351877
F4    F     F_    0.561376 0.119987 0.692697 -0.599906
F5    F     F_    0.935921 0.666612 0.212902 -0.708014
C55   C     C_2   0.667934 0.116244 0.845508 1.096080
O45   O     O_2   0.703544 0.165427 0.919334 -0.565001
O46   O     O_R   0.609356 0.024666 0.840601 -0.797903
H43   H     H_    0.610036 0.006881 0.902496 0.338883
F6    F     F_    0.882632 0.415704 0.089965 -0.637698
C56   C     C_2   0.860011 0.467684 0.675852 1.096674
O47   O     O_2   0.872843 0.399206 0.627452 -0.676707
O48   O     O_R   0.767507 0.526462 0.643826 -0.723388
H44   H     H_    0.699435 0.494943 0.584553 0.383775
F7    F     F_    0.814682 0.896201 0.541666 -0.668254
F8    F     F_    0.114602 0.856468 0.137654 -0.651491

loop_
_geom_bond_atom_site_label_1
_geom_bond_atom_site_label_2
_geom_bond_distance
_ccdc_geom_bond_type
C24   C28   1.442063 A    
C11   H17   1.108613 S    
O8    Ba1   2.811016 S    
C38   C39   1.430518 A    
O16   P7    1.775443 S    
P1    C18   1.879887 S    
C45   O25   1.215513 D    
P6    C17   1.863212 S    
C56   O47   1.210679 D    
C48   O31   1.218113 D    
C45   O26   1.388900 S    
P8    O24   1.743369 S    
C26   C27   1.389681 A    
P8    C20   1.861549 S    
Ba1   O16   2.853211 S    
Ba2   O20   2.852612 S    
C23   C30   1.441183 A    
C4    H6    1.111435 S    
C8    H14   1.106099 S    
C22   C23   1.448955 A    
O6    C10   1.409913 S    
C2    H3    1.090261 S    
C6    C7    1.514669 S    
C27   H27   1.078545 S    
C9    H15   1.111468 S    
P4    Ba2   3.461591 S    
C48   O32   1.384290 S    
P8    O23   1.545338 D    
C46   O27   1.223765 D    
C34   C35   1.403737 A    
C37   C41   1.399473 A    
C28   F6    1.352738 S    
P1    O1    1.547085 D    
P5    O17   1.764140 S    
C14   C54   1.525464 S    
C13   H20   1.111474 S    
C32   C42   1.408194 A    
O3    Ba1   2.834112 S    
Ba1   Ba2   4.634206 S    
C55   O46   1.393737 S    
C4    O15   1.384498 S    
O48   H44   1.003143 S    
C18   C29   1.389947 A    
C46   O28   1.392403 S    
C4    C5    1.530240 S    
C16   F4    1.377082 S    
P1    Ba1   3.460977 S    
C12   C51   1.504486 S    
C15   C16   1.519884 S    
P4    C30   1.915747 S    
C1    H2    1.102077 S    
H1    C10   1.108778 S    
C15   H22   1.112512 S    
C9    C48   1.503288 S    
C31   C39   1.422683 A    
P4    O13   1.603208 S    
C33   H30   1.073008 S    
P7    O21   1.582666 D    
C35   H31   1.071100 S    
C1    C10   1.537952 S    
C56   O48   1.374116 S    
O2    Ba2   2.862910 S    
C9    C49   1.521094 S    
O17   Ba2   2.811768 S    
C53   O42   1.397898 S    
C47   O30   1.398695 S    
C19   C30   1.388037 A    
C38   C42   1.427559 A    
P7    O22   1.742729 S    
C53   O41   1.223603 D    
O3    P6    1.781811 S    
C15   H21   1.104684 S    
C7    H13   1.107962 S    
C25   C26   1.409383 A    
C51   O38   1.395827 S    
Ba1   O20   2.970506 S    
C19   C20   1.387317 A    
H23   C16   1.105523 S    
C5    H7    1.108585 S    
C23   C27   1.396241 A    
P7    C44   1.857546 S    
P1    O5    1.746818 S    
C12   F2    1.379939 S    
P1    O2    1.603239 S    
C7    H12   1.104929 S    
P3    O11   1.761540 S    
C49   O34   1.397425 S    
C6    H9    1.105320 S    
C32   C43   1.401131 A    
H28   C43   1.082221 S    
O36   H38   1.000445 S    
P2    O10   1.767197 S    
C24   C25   1.431569 A    
P3    O9    1.537298 D    
P5    O19   1.759917 S    
C33   C34   1.381158 A    
C3    H4    1.110825 S    
C13   H19   1.104493 S    
O11   C2    1.413289 S    
O7    Ba1   2.911606 S    
O42   H41   1.010823 S    
O30   H35   1.012578 S    
P2    O20   1.604363 S    
O13   Ba2   2.976956 S    
C31   C43   1.409473 A    
P4    O12   1.547519 D    
C36   C38   1.452988 A    
C33   C44   1.386404 A    
P3    O8    1.738010 S    
H29   C40   1.079048 S    
C11   C12   1.523506 S    
O32   H36   1.006930 S    
C1    C47   1.507882 S    
C54   O44   1.399551 S    
C1    H16   1.111813 S    
C50   O35   1.220374 D    
O12   Ba2   2.898944 S    
C52   O40   1.389668 S    
O26   H33   1.014294 S    
P5    O18   1.550097 D    
P2    C32   1.892984 S    
O2    Ba1   2.976100 S    
C37   C44   1.423290 A    
O19   C13   1.406412 S    
C13   C14   1.564925 S    
C52   O39   1.216766 D    
C10   C50   1.489615 S    
C3    F3    1.380236 S    
P3    C31   1.872579 S    
O4    P6    1.543694 D    
C17   C25   1.428351 A    
C21   C22   1.418581 A    
C50   O36   1.374327 S    
C22   C24   1.456454 A    
C47   O29   1.220347 D    
O14   Ba2   2.833436 S    
C5    H8    1.107439 S    
C3    F8    1.384906 S    
O16   Ba2   2.969649 S    
C54   O43   1.220365 D    
C36   C37   1.433735 A    
O40   H40   1.002904 S    
C15   O24   1.408544 S    
Ba2   O21   2.911823 S    
C7    H11   1.107598 S    
C8    C9    1.564685 S    
O34   H37   1.013415 S    
O6    P6    1.775782 S    
C6    H10   1.110051 S    
P5    C34   1.856590 S    
O28   H34   1.008295 S    
O10   C8    1.412723 S    
C41   H32   1.077955 S    
C14   C52   1.530467 S    
P2    O7    1.538174 D    
C12   H18   1.111152 S    
O46   H43   1.013782 S    
P2    Ba1   3.472023 S    
O14   P8    1.757755 S    
C11   F1    1.383135 S    
C11   O22   1.400554 S    
C16   C55   1.509672 S    
Ba1   O13   2.862299 S    
C42   F7    1.339138 S    
C2    C3    1.535620 S    
C21   H26   1.072210 S    
C39   C40   1.401352 A    
O38   H39   1.013910 S    
C5    C45   1.490385 S    
C20   C21   1.393101 A    
H24   C29   1.082226 S    
P4    O15   1.742223 S    
O5    C6    1.395440 S    
C55   O45   1.219024 D    
O44   H42   1.011976 S    
C18   C28   1.413048 A    
C19   C56   1.425883 S    
C35   C36   1.430414 A    
C40   C41   1.384626 A    
C4    H5    1.105124 S    
C51   O37   1.223334 D    
O1    Ba1   2.898399 S    
C17   C29   1.397383 A    
C14   C53   1.518223 S    
C8    C46   1.505446 S    
H25   C26   1.074260 S    
C2    F5    1.373751 S    
C49   O33   1.223451 D    
