data_mof_unit_32289.cif
_audit_creation_date              2012-12-10T17:05:43-0500
_audit_creation_method            fapswitch 2.2
_symmetry_space_group_name_H-M    P1
_symmetry_Int_Tables_number       1
_space_group_crystal_system       triclinic
_cell_length_a                    15.900967
_cell_length_b                    11.03449
_cell_length_c                    9.978687
_cell_angle_alpha                 111.126703
_cell_angle_beta                  98.695574
_cell_angle_gamma                 91.925701
_cell_volume                      1607.01129615

loop_
_atom_site_label
_atom_site_type_symbol
_atom_type_description
_atom_site_fract_x
_atom_site_fract_y
_atom_site_fract_z
_atom_type_partial_charge
C1    C     C_R   0.492041 0.255173 0.440864 0.818689
C2    C     C_3   0.965946 0.546578 0.652365 -0.381422
C3    C     C_3   0.916000 0.504516 0.493293 0.129023
C4    C     C_3   0.944499 0.604467 0.423967 -0.127928
C5    C     C_3   0.045167 0.599668 0.418180 -0.133759
C6    C     C_1   0.823723 0.502626 0.497008 -0.058532
C7    C     C_1   0.176044 0.502666 0.498982 -0.055521
C8    C     C_1   0.251467 0.501253 0.500599 -0.089485
C9    C     C_2   0.470570 0.118902 0.410443 -0.341856
C10   C     C_2   0.520947 0.049961 0.470100 -0.095961
C11   C     C_2   0.507325 0.887262 0.586400 -0.152921
C12   C     C_R   0.340698 0.499896 0.500253 0.836670
C13   C     C_2   0.482684 0.926155 0.472153 -0.030871
C14   C     C_2   0.514582 0.497268 0.075914 -0.024162
C15   C     C_2   0.497633 0.479657 0.915769 -0.042820
C16   C     C_R   0.503532 0.746155 0.558826 0.901356
C17   C     C_R   0.659304 0.500201 0.499704 0.826862
C18   C     C_3   0.063866 0.555283 0.655099 -0.216705
C19   C     C_3   0.037506 0.361976 0.415568 -0.203479
C20   C     C_3   0.938622 0.364736 0.401044 -0.200525
C21   C     C_1   0.748564 0.501328 0.498898 -0.126805
C22   C     C_3   0.082942 0.504560 0.494977 0.082656
Cu1   Cu    Cu3+1 0.514650 0.521810 0.644910 0.983471
Cu2   Cu    Cu3+1 0.485350 0.478190 0.355090 1.052346
H1    H     H_    0.946221 0.477724 0.702812 0.233420
H2    H     H_    0.089770 0.659227 0.712028 0.158718
H3    H     H_    0.948460 0.643087 0.721801 0.174243
H4    H     H_    0.405021 0.082369 0.357666 0.154572
H5    H     H_    0.059943 0.304471 0.483185 0.194409
H6    H     H_    0.910643 0.343832 0.284872 0.122517
N1    N     N_2   0.463320 0.445430 0.137380 -0.263724
N2    N     N_2   0.536720 0.554500 0.862620 -0.288674
O1    O     O_R   0.507820 0.332330 0.577400 -0.590811
O2    O     O_R   0.483070 0.295500 0.332660 -0.543200
O3    O     O_R   0.391820 0.518430 0.622420 -0.584109
O4    O     O_R   0.367070 0.481600 0.377680 -0.535064
O5    O     O_R   0.516930 0.704500 0.667340 -0.571114
O6    O     O_R   0.492180 0.667670 0.422600 -0.529938
O7    O     O_R   0.632930 0.518400 0.622320 -0.594137
O8    O     O_R   0.608180 0.481570 0.377580 -0.574055
C23   C     C_1   0.891703 0.573294 0.277166 0.239446
N3    N     N_1   0.850526 0.549028 0.163052 -0.267947
C24   C     C_2   0.415583 0.847557 0.344463 0.446861
H7    H     H_    0.417809 0.850668 0.237610 0.127145
O9    O     O_2   0.355388 0.784838 0.359655 -0.548548
C25   C     C_2   0.614286 0.091829 0.522874 0.424534
H8    H     H_    0.640435 0.188541 0.536743 0.060331
O10   O     O_2   0.663636 0.016360 0.546132 -0.495590
C26   C     C_2   0.544728 0.984059 0.734208 0.442251
H9    H     H_    0.539600 0.087498 0.759412 0.076985
O11   O     O_2   0.581232 0.949709 0.829372 -0.520320
C27   C     C_1   0.444599 0.363695 0.816550 0.304753
N4    N     N_1   0.401141 0.270765 0.739802 -0.278224
C28   C     C_2   0.601244 0.555815 0.154464 0.504966
H10   H     H_    0.656433 0.510019 0.114159 0.030662
O12   O     O_2   0.611871 0.659968 0.257520 -0.487188
C29   C     C_2   0.566796 0.686690 0.951422 0.636618
H11   H     H_    0.622082 0.731812 0.929525 0.086979
O13   O     O_2   0.527621 0.753019 0.043952 -0.557701
C30   C     C_1   0.106094 0.485337 0.744471 0.306251
N5    N     N_1   0.139200 0.430655 0.814247 -0.209182
C31   C     C_2   0.375154 0.413559 0.073328 0.654860
H12   H     H_    0.343554 0.465549 0.008972 0.019859
O14   O     O_2   0.333781 0.327211 0.091194 -0.508745
C32   C     C_1   0.061748 0.290355 0.272378 0.250132
N6    N     N_1   0.080750 0.233817 0.160494 -0.190274
C33   C     C_2   0.897965 0.256053 0.436546 0.379459
H13   H     H_    0.844074 0.192702 0.360702 0.091513
O15   O     O_2   0.923290 0.239816 0.550088 -0.507419
C34   C     C_1   0.093181 0.731240 0.491179 0.246173
N7    N     N_1   0.130683 0.833438 0.547906 -0.210375
C35   C     C_1   0.062692 0.556937 0.266655 0.278512
N8    N     N_1   0.076469 0.524465 0.148720 -0.211479
C36   C     C_1   0.923172 0.737070 0.510921 0.262837
N9    N     N_1   0.906429 0.840097 0.578507 -0.189508

loop_
_geom_bond_atom_site_label_1
_geom_bond_atom_site_label_2
_ccdc_geom_bond_type
C10   C25   S    
Cu2   O6    S    
Cu1   Cu2   S    
C5    C34   S    
C11   C26   S    
Cu1   O5    S    
C12   O4    A    
C7    C22   S    
C11   C13   D    
C23   N3    T    
C16   O5    A    
C20   C33   S    
C4    C36   S    
C19   C20   S    
C18   H2    S    
C13   C24   S    
C14   N1    D    
C8    C12   S    
C3    C6    S    
Cu1   N2    S    
C19   C22   S    
C31   H12   S    
C30   N5    T    
C2    C3    S    
Cu2   N1    S    
C1    O1    A    
C3    C20   S    
C20   H6    S    
C15   C27   S    
C27   N4    T    
C12   O3    A    
C24   O9    D    
N1    C31   S    
C29   H11   S    
Cu2   O4    S    
N2    C29   S    
C24   H7    S    
Cu1   O7    S    
C9    C10   D    
C18   C30   S    
C14   C28   S    
C1    O2    A    
C19   C32   S    
C5    C35   S    
Cu1   O3    S    
C2    H3    S    
C17   O7    A    
C14   C15   S    
C28   O12   D    
C29   O13   D    
C25   H8    S    
C2    C18   S    
C4    C23   S    
C3    C4    S    
C19   H5    S    
C25   O10   D    
C2    H1    S    
C15   N2    D    
C34   N7    T    
C1    C9    S    
C36   N9    T    
Cu1   O1    S    
C32   N6    T    
C11   C16   S    
C33   O15   D    
C26   H9    S    
C7    C8    T    
C28   H10   S    
C35   N8    T    
C31   O14   D    
Cu2   O8    S    
C18   C22   S    
C6    C21   T    
C10   C13   S    
C17   C21   S    
C5    C22   S    
C33   H13   S    
C9    H4    S    
C16   O6    A    
C4    C5    S    
C26   O11   D    
C17   O8    A    
Cu2   O2    S    
