data_mof_unit_49347.cif
_audit_creation_date              2012-12-10T17:33:43-0500
_audit_creation_method            fapswitch 2.2
_symmetry_space_group_name_H-M    P1
_symmetry_Int_Tables_number       1
_space_group_crystal_system       triclinic
_cell_length_a                    11.659673
_cell_length_b                    12.503721
_cell_length_c                    13.263156
_cell_angle_alpha                 117.519623
_cell_angle_beta                  74.479176
_cell_angle_gamma                 101.509067
_cell_volume                      1645.77893733

loop_
_atom_site_label
_atom_site_type_symbol
_atom_type_description
_atom_site_fract_x
_atom_site_fract_y
_atom_site_fract_z
_atom_type_partial_charge
C1    C     C_R   0.510645 0.854912 0.286375 0.795702
C2    C     C_R   0.465267 0.226488 0.837474 -0.062370
C3    C     C_R   0.593126 0.809314 0.079338 -0.188065
C4    C     C_R   0.629548 0.725937 0.965140 0.439934
C5    C     C_R   0.594580 0.602948 0.932554 -0.208191
C6    C     C_R   0.515559 0.561646 0.011706 0.051151
C7    C     C_R   0.471467 0.648916 0.125268 0.083672
C8    C     C_R   0.476093 0.436979 0.980983 0.115406
C9    C     C_R   0.387232 0.403142 0.060590 0.129791
C10   C     C_R   0.338486 0.491435 0.167982 -0.204265
C11   C     C_R   0.378005 0.612403 0.198886 -0.143345
C12   C     C_R   0.715699 0.000185 0.499213 0.821659
C13   C     C_R   0.518980 0.344698 0.872036 -0.149421
C14   C     C_R   0.381098 0.193581 0.917925 -0.143633
C15   C     C_R   0.520404 0.771269 0.161829 -0.182353
C16   C     C_R   0.668098 0.331042 0.305441 -0.315583
C17   C     C_R   0.372257 0.782809 0.671548 0.010020
C18   C     C_R   0.391059 0.724417 0.732236 0.360110
C19   C     C_R   0.461192 0.626791 0.672388 -0.123174
C20   C     C_R   0.490645 0.572229 0.550458 -0.001624
C21   C     C_R   0.495955 0.651943 0.500105 0.236756
C22   C     C_R   0.534373 0.453386 0.480201 -0.071311
C23   C     C_R   0.484924 0.144550 0.713650 0.818342
C24   C     C_R   0.608451 0.434579 0.371166 0.036616
C25   C     C_R   0.632244 0.524388 0.331889 -0.196099
C26   C     C_R   0.577824 0.631349 0.395594 -0.136558
C27   C     C_R   0.503311 0.350442 0.508100 0.454922
C28   C     C_R   0.657297 0.244138 0.345652 0.528418
C29   C     C_R   0.284648 0.998015 0.498308 0.841189
C30   C     C_1   0.837950 0.000595 0.498222 -0.111322
C31   C     C_1   0.940517 0.999389 0.497796 0.055079
C32   C     C_1   0.060079 0.997425 0.497756 0.050156
C33   C     C_1   0.162541 0.996594 0.497960 -0.113140
C34   C     C_R   0.343757 0.281375 0.029807 -0.156294
Cu1   Cu    Cu3+1 0.526510 0.098270 0.475420 1.083868
Cu2   Cu    Cu3+1 0.473490 0.901730 0.524580 0.953492
H1    H     H_    0.339665 0.101766 0.892703 0.189724
H2    H     H_    0.695320 0.512744 0.251577 0.159743
H3    H     H_    0.732919 0.324441 0.227538 0.207158
H4    H     H_    0.323869 0.862854 0.717707 0.171506
H5    H     H_    0.498105 0.599402 0.721399 0.227305
H6    H     H_    0.610986 0.699329 0.365315 0.193425
H7    H     H_    0.267497 0.467131 0.227668 0.168301
H8    H     H_    0.276084 0.255147 0.090297 0.171364
H9    H     H_    0.589917 0.362646 0.809199 0.156672
H10   H     H_    0.625997 0.903429 0.104337 0.234750
H11   H     H_    0.628168 0.542588 0.844006 0.182821
H12   H     H_    0.331138 0.677185 0.279932 0.173779
N1    N     N_R   0.566700 0.246290 0.438210 -0.298448
N2    N     N_R   0.434010 0.754320 0.561170 -0.244501
O1    O     O_R   0.533340 0.972510 0.318140 -0.535304
O2    O     O_R   0.488570 0.806530 0.359650 -0.617182
O3    O     O_R   0.685190 0.083000 0.479260 -0.496947
O4    O     O_R   0.640410 0.917020 0.520770 -0.593013
O5    O     O_R   0.511430 0.193470 0.640350 -0.515583
O6    O     O_R   0.466660 0.027490 0.681860 -0.598932
O7    O     O_R   0.359590 0.082980 0.479230 -0.508307
O8    O     O_R   0.314810 0.917000 0.520740 -0.585884
S1    S     S_3+6 0.380659 0.365206 0.633237 0.041210
O9    O     O_2   0.432433 0.430624 0.740451 -0.338454
O10   O     O_2   0.291563 0.439949 0.637606 -0.272856
O11   O     O_3   0.295941 0.248766 0.651990 -0.505123
H13   H     H_    0.242951 0.284722 0.729368 0.373710
S2    S     S_3+6 0.335395 0.779491 0.882911 0.018285
O12   O     O_2   0.205756 0.799429 0.908769 -0.234607
O13   O     O_2   0.348087 0.690393 0.925010 -0.262173
O14   O     O_3   0.411869 0.912214 0.951518 -0.553783
H14   H     H_    0.386311 0.930968 0.035004 0.376961
S3    S     S_3+6 0.727777 0.775705 0.865508 0.039440
O15   O     O_2   0.848910 0.811773 0.896810 -0.195133
O16   O     O_2   0.738837 0.676781 0.743678 -0.318380
O17   O     O_3   0.678080 0.897199 0.873258 -0.478756
H15   H     H_    0.632606 0.864718 0.810286 0.371417
S4    S     S_3+6 0.785536 0.160958 0.293569 0.050073
O18   O     O_2   0.864128 0.177969 0.190862 -0.275994
O19   O     O_2   0.855385 0.212456 0.388699 -0.270519
O20   O     O_3   0.755701 0.011542 0.252126 -0.538503
H16   H     H_    0.834367 0.980142 0.231704 0.371205

loop_
_geom_bond_atom_site_label_1
_geom_bond_atom_site_label_2
_ccdc_geom_bond_type
C16   C28   A    
C21   C26   A    
C8    C13   A    
Cu1   O3    S    
Cu1   Cu2   S    
C28   S4    S    
Cu2   N2    S    
C23   O6    A    
O20   H16   S    
C7    C11   A    
C5    H11   S    
S4    O19   D    
Cu2   O8    S    
C5    C6    A    
C29   C33   S    
C18   C19   A    
S3    O16   D    
C2    C13   A    
C4    S3    S    
C19   C20   A    
C8    C9    A    
S4    O20   S    
Cu1   N1    S    
C1    C15   S    
C9    C10   A    
C12   O3    A    
Cu2   O2    S    
C7    C15   A    
S1    O9    D    
C16   C24   A    
C11   H12   S    
C21   N2    A    
S1    O10   D    
S4    O18   D    
Cu1   O5    S    
O14   H14   S    
S2    O14   S    
C34   H8    S    
C24   C25   A    
C4    C5    A    
C6    C8    A    
C25   C26   A    
C17   H4    S    
S2    O13   D    
S3    O17   S    
O11   H13   S    
Cu2   O6    S    
C25   H2    S    
C28   N1    A    
C31   C32   S    
C17   C18   A    
C29   O8    A    
C1    O1    A    
C20   C22   A    
C22   C27   A    
Cu1   O1    S    
C9    C34   A    
C22   C24   A    
C3    C4    A    
C3    C15   A    
C26   H6    S    
S1    O11   S    
C12   C30   S    
C10   H7    S    
C29   O7    A    
O17   H15   S    
C17   N2    A    
C14   C34   A    
C23   O5    A    
C6    C7    A    
C3    H10   S    
Cu1   O7    S    
C32   C33   T    
C27   S1    S    
S2    O12   D    
C14   H1    S    
C13   H9    S    
C18   S2    S    
C30   C31   T    
S3    O15   D    
C2    C14   A    
C1    O2    A    
Cu2   O4    S    
C10   C11   A    
C16   H3    S    
C27   N1    A    
C20   C21   A    
C2    C23   S    
C12   O4    A    
C19   H5    S    
