data_mof_unit_19818.cif
_audit_creation_date              2012-12-10T18:57:52-0500
_audit_creation_method            fapswitch 2.2
_symmetry_space_group_name_H-M    P1
_symmetry_Int_Tables_number       1
_space_group_crystal_system       triclinic
_cell_length_a                    10.63009
_cell_length_b                    9.846012
_cell_length_c                    8.916411
_cell_angle_alpha                 90.000889
_cell_angle_beta                  90.039305
_cell_angle_gamma                 89.799128
_cell_volume                      933.221229849

loop_
_atom_site_label
_atom_site_type_symbol
_atom_type_description
_atom_site_fract_x
_atom_site_fract_y
_atom_site_fract_z
_atom_type_partial_charge
C1    C     C_R   0.262607 0.500163 0.472420 0.918071
C2    C     C_R   0.067666 0.623689 0.401557 -0.108631
C3    C     C_R   0.874091 0.499128 0.443268 -0.207335
C4    C     C_R   0.132494 0.500118 0.421643 -0.170231
C5    C     C_R   0.460527 0.072017 0.622976 0.000873
C6    C     C_R   0.538092 0.928020 0.376421 -0.092249
C7    C     C_R   0.537968 0.071727 0.376397 -0.083578
C8    C     C_R   0.460483 0.928279 0.622956 -0.006572
C9    C     C_2   0.138748 0.249852 0.360161 0.981056
C10   C     C_2   0.867947 0.752631 0.389410 0.983912
C11   C     C_2   0.873622 0.242357 0.407006 0.996282
C12   C     C_R   0.740927 0.499705 0.485063 0.878088
C13   C     C_2   0.135767 0.750418 0.360464 0.970358
C14   C     C_R   0.500153 0.499999 0.218578 0.952202
C15   C     C_R   0.499883 0.500001 0.781397 0.959157
C16   C     C_1   0.499986 0.499999 0.065369 -0.123075
C17   C     C_1   0.499892 0.500001 0.934653 -0.166083
C18   C     C_R   0.069231 0.375938 0.402823 -0.107773
C19   C     C_R   0.936939 0.623570 0.414086 -0.075467
C20   C     C_R   0.938995 0.374374 0.420223 -0.085151
H1    H     H_    0.428622 0.126252 0.721370 0.138785
H2    H     H_    0.568977 0.873856 0.277556 0.175230
H3    H     H_    0.568171 0.125753 0.277317 0.156883
H4    H     H_    0.428547 0.874286 0.721333 0.140408
H5    H     H_    0.267951 0.163034 0.224697 0.338423
H6    H     H_    0.797421 0.923654 0.480187 0.359011
H7    H     H_    0.801579 0.099916 0.269570 0.341982
H8    H     H_    0.266036 0.838763 0.228461 0.339570
N1    N     N_R   0.500000 0.857200 0.500000 -0.084060
N2    N     N_R   0.500000 0.142800 0.500000 -0.078547
O1    O     O_R   0.316770 0.614620 0.499990 -0.606603
O2    O     O_R   0.224785 0.253733 0.241677 -0.782757
O3    O     O_2   0.824876 0.778604 0.265498 -0.642443
O4    O     O_R   0.850895 0.842503 0.508944 -0.710248
O5    O     O_2   0.853172 0.174991 0.519488 -0.568983
O6    O     O_R   0.840031 0.193849 0.265363 -0.792685
O7    O     O_2   0.116243 0.855759 0.429208 -0.541092
O8    O     O_R   0.224365 0.747451 0.244628 -0.784276
O9    O     O_R   0.683230 0.385380 0.500010 -0.600732
O10   O     O_R   0.683230 0.614620 0.500010 -0.600391
O11   O     O_R   0.316770 0.385380 0.499990 -0.609781
O12   O     O_R   0.500010 0.614640 0.285340 -0.614673
O13   O     O_R   0.499990 0.385360 0.714660 -0.616199
O14   O     O_R   0.499990 0.614640 0.714660 -0.616440
O15   O     O_R   0.500010 0.385360 0.285340 -0.620630
O16   O     O_2   0.123130 0.144600 0.430269 -0.550375
Zn1   Zn    Zn3+2 0.500000 0.653120 0.500000 1.008354
Zn2   Zn    Zn3+2 0.500000 0.346880 0.500000 1.008417

loop_
_geom_bond_atom_site_label_1
_geom_bond_atom_site_label_2
_ccdc_geom_bond_type
C12   O10   A    
O10   Zn1   S    
C2    C4    A    
C3    C19   A    
C6    C7    A    
H7    O6    S    
C10   O3    D    
O13   Zn2   S    
C13   O7    D    
O14   Zn1   S    
H8    O8    S    
C10   C19   S    
C14   O12   A    
C1    C4    S    
C4    C18   A    
H5    O2    S    
C11   O5    D    
C15   O13   A    
C9    O16   D    
C10   O4    S    
C7    N2    A    
O1    Zn1   S    
C3    C20   A    
C13   O8    S    
N1    Zn1   S    
C7    H3    S    
C8    N1    A    
C1    O11   A    
C11   O6    S    
C8    H4    S    
O11   Zn2   S    
C15   O14   A    
C14   O15   A    
C18   C20   A    
O12   Zn1   S    
C14   C16   S    
C11   C20   S    
C5    C8    A    
C6    H2    S    
C9    C18   S    
C1    O1    A    
C6    N1    A    
C5    H1    S    
C5    N2    A    
O15   Zn2   S    
N2    Zn2   S    
C15   C17   S    
C2    C13   S    
C16   C17   T    
C3    C12   S    
C9    O2    S    
C2    C19   A    
H6    O4    S    
C12   O9    A    
O9    Zn2   S    
