data_mof_unit_23035.cif
_audit_creation_date              2012-12-10T18:23:04-0500
_audit_creation_method            fapswitch 2.2
_symmetry_space_group_name_H-M    P1
_symmetry_Int_Tables_number       1
_space_group_crystal_system       triclinic
_cell_length_a                    14.935306
_cell_length_b                    14.135542
_cell_length_c                    10.510067
_cell_angle_alpha                 89.805815
_cell_angle_beta                  87.600002
_cell_angle_gamma                 90.007896
_cell_volume                      2216.91196359

loop_
_atom_site_label
_atom_site_type_symbol
_atom_type_description
_atom_site_fract_x
_atom_site_fract_y
_atom_site_fract_z
_atom_type_partial_charge
C1    C     C_R   0.327211 0.499997 0.502215 0.898721
C2    C     C_R   0.672789 0.500003 0.497785 0.898721
C3    C     C_R   0.953253 0.499961 0.498273 0.049429
C4    C     C_R   0.046747 0.500039 0.501727 0.049429
C5    C     C_R   0.911587 0.504280 0.379640 0.071543
C6    C     C_R   0.088413 0.495720 0.620360 0.071543
C7    C     C_R   0.942542 0.491371 0.730418 -0.209077
C8    C     C_R   0.057458 0.508629 0.269582 -0.209077
C9    C     C_R   0.035204 0.491447 0.734031 -0.203702
C10   C     C_R   0.964796 0.508553 0.265969 -0.203702
C11   C     C_R   0.558243 0.798488 0.419300 0.037593
C12   C     C_R   0.441757 0.201512 0.580700 0.037593
C13   C     C_R   0.441275 0.798032 0.580045 0.040110
C14   C     C_R   0.558725 0.201968 0.419955 0.040111
C15   C     C_R   0.440174 0.898701 0.582172 -0.023014
C16   C     C_R   0.559826 0.101298 0.417828 -0.023014
C17   C     C_R   0.559660 0.899157 0.417627 -0.022102
C18   C     C_R   0.440340 0.100843 0.582373 -0.022102
C19   C     C_R   0.500001 0.949419 0.500014 0.083621
C20   C     C_R   0.499999 0.050581 0.499986 0.083621
C21   C     C_R   0.380956 0.950093 0.663853 -0.193221
C22   C     C_R   0.619044 0.049906 0.336146 -0.193221
C23   C     C_R   0.618917 0.950984 0.335977 -0.193727
C24   C     C_R   0.381083 0.049015 0.664022 -0.193727
C25   C     C_R   0.501565 0.500160 0.257281 0.879452
C26   C     C_R   0.498435 0.499840 0.742719 0.879452
C27   C     C_3   0.519702 0.587804 0.038844 -0.135790
C28   C     C_3   0.480298 0.412196 0.961156 -0.135790
C29   C     C_3   0.580760 0.526162 0.950806 -0.168194
C30   C     C_3   0.419240 0.473838 0.049194 -0.168194
C31   C     C_3   0.437203 0.561164 0.963234 -0.154775
C32   C     C_3   0.562797 0.438836 0.036766 -0.154775
C33   C     C_3   0.498310 0.499543 0.877822 0.018497
C34   C     C_3   0.501690 0.500457 0.122178 0.018497
C35   C     C_R   0.817825 0.504247 0.378387 -0.059324
C36   C     C_R   0.182175 0.495753 0.621612 -0.059324
C37   C     C_R   0.768249 0.499965 0.494650 -0.086710
C38   C     C_R   0.231751 0.500035 0.505350 -0.086710
C39   C     C_R   0.809086 0.495511 0.610727 -0.275374
C40   C     C_R   0.190914 0.504489 0.389273 -0.275374
C41   C     C_R   0.901479 0.495566 0.613646 0.132212
C42   C     C_R   0.098521 0.504434 0.386354 0.132212
H1    H     H_    0.386185 0.611706 0.930798 0.169166
H2    H     H_    0.613815 0.388294 0.069202 0.169166
H3    H     H_    0.535795 0.659519 0.074033 0.158151
H4    H     H_    0.464205 0.340481 0.925967 0.158151
H5    H     H_    0.646443 0.547349 0.906104 0.140522
H6    H     H_    0.353557 0.452651 0.093895 0.140522
H7    H     H_    0.768439 0.492211 0.698789 0.132852
H8    H     H_    0.231561 0.507789 0.301211 0.132852
H9    H     H_    0.902910 0.488044 0.819142 0.149726
H10   H     H_    0.097090 0.511956 0.180857 0.149726
H11   H     H_    0.064560 0.488118 0.826377 0.157196
H12   H     H_    0.935440 0.511882 0.173622 0.157196
H13   H     H_    0.333909 0.914294 0.728680 0.150912
H14   H     H_    0.666091 0.085706 0.271320 0.150912
H15   H     H_    0.665922 0.915533 0.271084 0.151173
H16   H     H_    0.334078 0.084467 0.728916 0.151173
N1    N     N_R   0.500000 0.750030 0.500000 -0.144436
N2    N     N_R   0.500000 0.249970 0.500000 -0.144436
O1    O     O_R   0.367850 0.580280 0.500030 -0.615045
O2    O     O_R   0.632150 0.419720 0.499970 -0.615045
O3    O     O_R   0.632150 0.580280 0.499970 -0.615341
O4    O     O_R   0.367850 0.419720 0.500030 -0.615341
O5    O     O_R   0.499970 0.580260 0.313950 -0.626880
O6    O     O_R   0.500030 0.419740 0.686050 -0.626880
O7    O     O_R   0.500030 0.580260 0.686050 -0.623995
O8    O     O_R   0.499970 0.419740 0.313950 -0.623995
Zn1   Zn    Zn3+2 0.500000 0.607200 0.500000 0.967696
Zn2   Zn    Zn3+2 0.500000 0.392800 0.500000 0.967696
C43   C     C_1   0.772494 0.508559 0.259240 0.173363
N3    N     N_1   0.737151 0.512221 0.163560 -0.226958
C44   C     C_1   0.227506 0.491441 0.740760 0.173363
N4    N     N_1   0.262849 0.487779 0.836439 -0.226958
C45   C     C_1   0.617926 0.745883 0.334694 0.226845
N5    N     N_1   0.666215 0.704766 0.266049 -0.215571
C46   C     C_1   0.382073 0.254117 0.665306 0.226845
N6    N     N_1   0.333785 0.295234 0.733950 -0.215571
C47   C     C_1   0.379156 0.744907 0.661026 0.236469
N7    N     N_1   0.328595 0.703233 0.726069 -0.232012
C48   C     C_1   0.620844 0.255093 0.338973 0.236469
N8    N     N_1   0.671405 0.296767 0.273931 -0.232012

loop_
_geom_bond_atom_site_label_1
_geom_bond_atom_site_label_2
_ccdc_geom_bond_type
C13   C47   S    
C27   C29   S    
C44   N4    T    
C19   C20   A    
C6    C9    A    
C48   N8    T    
C39   C41   A    
C46   N6    T    
C15   C19   A    
C28   H4    S    
C17   C23   A    
C31   H1    S    
C29   H5    S    
C18   C24   A    
C26   O7    A    
C30   H6    S    
C35   C37   A    
C8    C42   A    
C29   C32   S    
C30   C31   S    
C40   H8    S    
C29   C33   S    
O2    Zn2   S    
C7    C9    A    
C11   C17   A    
O3    Zn1   S    
C31   C33   S    
O4    Zn2   S    
C8    H10   S    
C25   C34   S    
C27   H3    S    
C40   C42   A    
C35   C43   S    
C25   O8    A    
C11   N1    A    
C27   C34   S    
C30   C34   S    
C27   C31   S    
C26   O6    A    
C24   H16   S    
C28   C32   S    
C25   O5    A    
C4    C6    A    
C21   H13   S    
C22   H14   S    
O7    Zn1   S    
C32   C34   S    
C45   N5    T    
C26   C33   S    
N2    Zn2   S    
C16   C20   A    
C12   C46   S    
C32   H2    S    
C1    C38   S    
N1    Zn1   S    
C8    C10   A    
C39   H7    S    
C28   C33   S    
C13   C15   A    
C14   C16   A    
C9    H11   S    
C3    C4    A    
C1    O4    A    
C2    O3    A    
O1    Zn1   S    
C23   H15   S    
C3    C41   A    
C16   C22   A    
C3    C5    A    
C1    O1    A    
C13   N1    A    
C14   N2    A    
C28   C30   S    
C7    H9    S    
C43   N3    T    
C37   C39   A    
C11   C45   S    
C38   C40   A    
C2    C37   S    
O6    Zn2   S    
C15   C21   A    
C4    C42   A    
O5    Zn1   S    
C5    C35   A    
C36   C38   A    
C17   C19   A    
C6    C36   A    
C18   C20   A    
C7    C41   A    
C10   H12   S    
C36   C44   S    
C47   N7    T    
C12   N2    A    
C5    C10   A    
O8    Zn2   S    
C21   C24   A    
C12   C18   A    
C22   C23   A    
C14   C48   S    
C2    O2    A    
