data_mof_unit_57153.cif
_audit_creation_date              2012-12-11T15:39:29-0500
_audit_creation_method            fapswitch 2.2
_symmetry_space_group_name_H-M    P1
_symmetry_Int_Tables_number       1
_space_group_crystal_system       triclinic
_cell_length_a                    14.300668
_cell_length_b                    14.80564
_cell_length_c                    33.257697
_cell_angle_alpha                 97.802349
_cell_angle_beta                  90.510864
_cell_angle_gamma                 118.687162
_cell_volume                      6097.87019101

loop_
_atom_site_label
_atom_site_type_symbol
_atom_type_description
_atom_site_fract_x
_atom_site_fract_y
_atom_site_fract_z
_atom_type_partial_charge
C1    C     C_R   0.616708 0.910446 0.436922 0.544066
C2    C     C_R   0.712057 0.437001 0.949378 0.540581
C3    C     C_R   0.560377 0.796701 0.771477 -0.079826
C4    C     C_R   0.569897 0.817721 0.731830 -0.132288
C5    C     C_R   0.606121 0.766278 0.703052 0.001774
C6    C     C_R   0.628364 0.689869 0.713745 -0.112193
C7    C     C_R   0.623398 0.670790 0.754115 0.019112
C8    C     C_R   0.590667 0.726607 0.783494 0.120816
C9    C     C_R   0.565005 0.724990 0.627875 -0.119581
C10   C     C_R   0.568216 0.759144 0.590553 -0.124722
C11   C     C_R   0.698501 0.935022 0.621315 -0.129252
C12   C     C_3   0.828804 0.303315 0.437858 -0.381709
C13   C     C_R   0.710873 0.739450 0.949811 0.557219
C14   C     C_3   0.923540 0.459931 0.104948 -0.381190
C15   C     C_3   0.488497 0.695815 0.173768 -0.407538
C16   C     C_3   0.798036 0.230556 0.697049 -0.395409
C17   C     C_3   0.396202 0.270838 0.633235 -0.004814
C18   C     C_3   0.311476 0.254853 0.600903 -0.363404
C19   C     C_3   0.171345 0.599621 0.633903 -0.010737
C20   C     C_3   0.154198 0.522821 0.662844 -0.366391
C21   C     C_3   0.328340 0.836649 0.710035 -0.406400
C22   C     C_3   0.179850 0.006613 0.678022 -0.411232
C23   C     C_3   0.851053 0.242354 0.228249 -0.021510
C24   C     C_R   0.815045 0.420278 0.164713 -0.056510
C25   C     C_3   0.893718 0.206266 0.191325 -0.372742
C26   C     C_3   0.760376 0.986890 0.927934 0.016707
C27   C     C_3   0.851051 0.088782 0.950335 -0.364625
C28   C     C_3   0.441935 0.466816 0.833623 -0.009350
C29   C     C_3   0.371384 0.382940 0.798371 -0.374372
C30   C     C_3   0.661093 0.596969 0.764655 -0.394779
C31   C     C_3   0.849642 0.898139 0.817410 0.012823
C32   C     C_3   0.900150 0.966242 0.784980 -0.383327
C33   C     C_R   0.822192 0.440373 0.124584 -0.015614
C34   C     C_R   0.747159 0.322086 0.242915 0.278816
C35   C     C_R   0.740881 0.313770 0.284518 -0.107083
C36   C     C_R   0.713369 0.377660 0.311109 -0.012434
C37   C     C_R   0.692781 0.451018 0.296467 -0.134447
C38   C     C_R   0.697681 0.459277 0.255362 -0.168109
C39   C     C_R   0.722717 0.393968 0.228402 0.040682
C40   C     C_R   0.724133 0.402870 0.185007 0.054194
C41   C     C_R   0.593351 0.332218 0.366646 -0.123549
C42   C     C_R   0.594675 0.206557 0.456968 0.548046
C43   C     C_R   0.565124 0.289857 0.402249 -0.138090
C44   C     C_R   0.743231 0.309263 0.413323 -0.004759
C45   C     C_R   0.769710 0.350604 0.377049 -0.098485
C46   C     C_R   0.693779 0.357834 0.352953 0.021512
C47   C     C_R   0.636888 0.272373 0.424855 0.036011
C48   C     C_R   0.245352 0.878289 0.393227 0.020509
C49   C     C_R   0.233073 0.959423 0.380680 -0.128221
C50   C     C_R   0.209619 0.957210 0.339577 -0.114775
C51   C     C_R   0.693995 0.901084 0.658730 -0.123563
C52   C     C_R   0.197523 0.873750 0.310612 0.040865
C53   C     C_R   0.202799 0.789617 0.323063 -0.114451
C54   C     C_R   0.295716 0.892853 0.434339 0.542077
C55   C     C_R   0.226333 0.791632 0.364140 -0.128701
C56   C     C_R   0.196157 0.807001 0.163153 -0.111993
C57   C     C_R   0.167904 0.785560 0.121327 -0.131247
C58   C     C_R   0.091308 0.901137 0.129700 -0.128408
C59   C     C_R   0.119134 0.922011 0.171659 -0.114401
C60   C     C_R   0.168095 0.871962 0.188544 0.041726
C61   C     C_1   0.179295 0.877521 0.231893 -0.030325
C62   C     C_R   0.624485 0.796759 0.662441 0.026944
C63   C     C_1   0.186879 0.877108 0.267938 -0.030742
C64   C     C_R   0.110943 0.828787 0.104431 0.020453
C65   C     C_R   0.636642 0.879329 0.395213 0.020662
C66   C     C_R   0.614048 0.905312 0.551583 0.541301
C67   C     C_R   0.551606 0.800838 0.368127 -0.129774
C68   C     C_R   0.563126 0.788905 0.326400 -0.116141
C69   C     C_R   0.659741 0.854633 0.311454 0.039331
C70   C     C_R   0.746954 0.927941 0.338386 -0.115268
C71   C     C_R   0.735668 0.940159 0.380080 -0.126810
C72   C     C_R   0.778217 0.914621 0.175351 -0.134326
C73   C     C_R   0.632005 0.865204 0.587348 0.023880
C74   C     C_R   0.795296 0.902729 0.134226 -0.139237
C75   C     C_R   0.615147 0.757413 0.119934 -0.108201
C76   C     C_R   0.596627 0.769446 0.161117 0.021106
C77   C     C_R   0.680855 0.846363 0.189192 0.061435
C78   C     C_R   0.589851 0.199315 0.571079 0.566357
C79   C     C_1   0.673160 0.850410 0.232356 -0.028846
C80   C     C_1   0.667227 0.851933 0.268436 -0.037526
C81   C     C_R   0.715558 0.820946 0.106509 0.010270
C82   C     C_R   0.623046 0.246963 0.614550 0.022701
C83   C     C_R   0.566239 0.289256 0.637293 0.262562
C84   C     C_R   0.052204 0.781234 0.063817 0.540184
C85   C     C_R   0.584650 0.311192 0.680127 -0.125056
C86   C     C_R   0.655186 0.288168 0.700138 0.015184
C87   C     C_R   0.717100 0.252554 0.677459 0.006621
C88   C     C_R   0.700943 0.233236 0.634940 -0.161015
C89   C     C_R   0.760864 0.339920 0.845789 -0.112503
C90   C     C_R   0.288849 0.886776 0.548450 0.546985
C91   C     C_R   0.772476 0.369843 0.887935 -0.128423
C92   C     C_R   0.589183 0.337238 0.886385 -0.136525
C93   C     C_R   0.577503 0.306081 0.844237 -0.127791
C94   C     C_R   0.664851 0.312293 0.823760 0.038464
C95   C     C_R   0.744139 0.486194 0.066139 0.546237
C96   C     C_1   0.660079 0.301730 0.780194 -0.038277
C97   C     C_1   0.657994 0.296071 0.743754 -0.031792
C98   C     C_R   0.688538 0.374232 0.908381 0.018729
C99   C     C_R   0.065398 0.754197 0.907921 0.019802
C100  C     C_R   0.067190 0.837921 0.891703 -0.128083
C101  C     C_R   0.085697 0.847348 0.851255 -0.130914
C102  C     C_R   0.735898 0.444675 0.104798 0.029739
C103  C     C_R   0.104612 0.774558 0.826633 0.028138
C104  C     C_R   0.111066 0.695425 0.843214 -0.118704
C105  C     C_R   0.090835 0.684794 0.883757 -0.128339
C106  C     C_R   0.743060 0.789332 0.066378 0.537181
C107  C     C_R   0.208546 0.797172 0.766361 -0.103532
C108  C     C_R   0.221522 0.812169 0.725805 0.024769
C109  C     C_R   0.135765 0.806430 0.701858 0.090804
C110  C     C_R   0.039888 0.786715 0.718778 -0.113368
C111  C     C_R   0.029177 0.774505 0.759459 -0.127569
C112  C     C_R   0.113599 0.780115 0.783301 0.012508
C113  C     C_R   0.178729 0.919737 0.648219 -0.038675
C114  C     C_R   0.642271 0.419751 0.124876 -0.138809
C115  C     C_R   0.217478 0.939106 0.610068 -0.132180
C116  C     C_R   0.176772 0.758992 0.592142 -0.129902
C117  C     C_R   0.020800 0.731729 0.947210 0.543634
C118  C     C_R   0.140814 0.738734 0.630636 0.263778
C119  C     C_R   0.145821 0.820539 0.659063 0.054835
C120  C     C_R   0.222725 0.860670 0.583037 -0.036538
C121  C     C_R   0.664458 0.742768 0.910309 -0.069456
C122  C     C_R   0.575135 0.653465 0.889274 -0.197665
C123  C     C_R   0.546421 0.647443 0.847742 0.215135
C124  C     C_R   0.609692 0.731729 0.827629 -0.000561
C125  C     C_R   0.696154 0.822620 0.848958 0.223027
C126  C     C_R   0.636706 0.399592 0.164550 -0.130821
C127  C     C_R   0.719140 0.830873 0.890610 0.247430
Cr1   Cr    Cr6+3 0.424820 0.846020 0.489780 1.005370
Cr2   Cr    Cr6+3 0.657880 0.078580 0.505700 0.999171
Cr3   Cr    Cr6+3 0.417280 0.075360 0.504550 1.015711
Cr4   Cr    Cr6+3 0.903360 0.812540 0.006510 1.023374
Cr5   Cr    Cr6+3 0.914630 0.587050 0.006280 0.997063
Cr6   Cr    Cr6+3 0.673560 0.582680 0.008540 1.004720
H1    H     H_    0.574260 0.420436 0.110634 0.133899
H2    H     H_    0.046773 0.934951 0.117662 0.121532
H3    H     H_    0.205294 0.022518 0.330231 0.104519
H4    H     H_    0.873573 0.952561 0.124772 0.120832
H5    H     H_    0.843129 0.973941 0.196736 0.101832
H6    H     H_    0.822201 0.978772 0.327015 0.102735
H7    H     H_    0.802619 0.001250 0.400134 0.122559
H8    H     H_    0.474190 0.753223 0.378760 0.124571
H9    H     H_    0.552590 0.694632 0.098690 0.118659
H10   H     H_    0.495313 0.731673 0.305669 0.102243
H11   H     H_    0.849977 0.397463 0.903903 0.126136
H12   H     H_    0.484176 0.264475 0.410527 0.129768
H13   H     H_    0.848235 0.373042 0.366468 0.100744
H14   H     H_    0.828728 0.344203 0.830171 0.107233
H15   H     H_    0.745559 0.201305 0.617900 0.136782
H16   H     H_    0.502439 0.283111 0.827351 0.100935
H17   H     H_    0.522953 0.339384 0.901174 0.119990
H18   H     H_    0.541626 0.343370 0.698073 0.090920
H19   H     H_    0.048479 0.893126 0.909559 0.142522
H20   H     H_    0.089775 0.619588 0.895489 0.126092
H21   H     H_    0.751436 0.253819 0.295876 0.101046
H22   H     H_    0.273890 0.802519 0.785187 0.111123
H23   H     H_    0.882466 0.422696 0.180947 0.122808
H24   H     H_    0.082501 0.909847 0.838795 0.099365
H25   H     H_    0.974040 0.782028 0.700566 0.110995
H26   H     H_    0.955287 0.760980 0.772468 0.100392
H27   H     H_    0.250126 0.017013 0.602615 0.133070
H28   H     H_    0.126554 0.639262 0.824297 0.114131
H29   H     H_    0.175019 0.696849 0.570287 0.125202
H30   H     H_    0.529973 0.588128 0.904987 0.133311
H31   H     H_    0.741018 0.957086 0.685261 0.102635
H32   H     H_    0.552231 0.876743 0.723824 0.110170
H33   H     H_    0.536755 0.840949 0.793693 0.116263
H34   H     H_    0.184056 0.729546 0.102654 0.118690
H35   H     H_    0.656033 0.649919 0.691256 0.121185
H36   H     H_    0.511063 0.644230 0.630345 0.111821
H37   H     H_    0.516288 0.703776 0.564745 0.117923
H38   H     H_    0.565127 0.384444 0.179775 0.109697
H39   H     H_    0.747794 0.017155 0.619761 0.118254
H40   H     H_    0.670764 0.500201 0.316719 0.121451
H41   H     H_    0.680793 0.516048 0.244402 0.118103
H42   H     H_    0.533890 0.337670 0.348248 0.110964
H43   H     H_    0.832074 0.335011 0.470389 0.140774
H44   H     H_    0.812624 0.221371 0.434688 0.160734
H45   H     H_    0.234319 0.768101 0.175946 0.105263
H46   H     H_    0.909249 0.349983 0.427289 0.103737
H47   H     H_    0.903909 0.408243 0.075095 0.141386
H48   H     H_    0.969854 0.542985 0.101058 0.172772
H49   H     H_    0.976111 0.443258 0.123881 0.095775
H50   H     H_    0.480376 0.713103 0.206641 0.135571
H51   H     H_    0.425317 0.701497 0.156411 0.122908
H52   H     H_    0.474573 0.614570 0.166950 0.122906
H53   H     H_    0.807825 0.251047 0.730704 0.140682
H54   H     H_    0.772970 0.146376 0.689094 0.117852
H55   H     H_    0.877279 0.276591 0.685505 0.124382
H56   H     H_    0.193181 0.724449 0.300813 0.103013
H57   H     H_    0.398002 0.326736 0.659585 0.121218
H58   H     H_    0.372297 0.194047 0.642961 0.116661
H59   H     H_    0.307200 0.198795 0.574156 0.167949
H60   H     H_    0.232186 0.223236 0.613525 0.080089
H61   H     H_    0.331365 0.330301 0.591001 0.153690
H62   H     H_    0.257148 0.661260 0.638624 0.121033
H63   H     H_    0.153875 0.557249 0.602160 0.129414
H64   H     H_    0.070108 0.458498 0.658432 0.159094
H65   H     H_    0.208540 0.489412 0.656840 0.088489
H66   H     H_    0.171547 0.563312 0.694868 0.163738
H67   H     H_    0.235661 0.728208 0.372701 0.121761
H68   H     H_    0.334611 0.853325 0.678404 0.135722
H69   H     H_    0.392541 0.906571 0.729630 0.120340
H70   H     H_    0.342633 0.769603 0.711084 0.132340
H71   H     H_    0.203390 0.077705 0.664104 0.112173
H72   H     H_    0.098632 0.981579 0.688330 0.132210
H73   H     H_    0.237145 0.026812 0.704795 0.136246
H74   H     H_    0.824699 0.182240 0.248555 0.135596
H75   H     H_    0.917827 0.317434 0.244402 0.108371
H76   H     H_    0.924635 0.266607 0.171132 0.144811
H77   H     H_    0.959662 0.192753 0.201308 0.083176
H78   H     H_    0.247452 0.027424 0.402246 0.122405
H79   H     H_    0.828877 0.132555 0.173941 0.176367
H80   H     H_    0.701845 0.948336 0.950217 0.119312
H81   H     H_    0.720670 0.005446 0.903816 0.149408
H82   H     H_    0.910310 0.129723 0.928805 0.155356
H83   H     H_    0.818830 0.139810 0.963956 0.090716
H84   H     H_    0.891418 0.072989 0.974999 0.159926
H85   H     H_    0.401062 0.446963 0.861947 0.130272
H86   H     H_    0.519559 0.466507 0.836079 0.128012
H87   H     H_    0.412137 0.397956 0.769813 0.146851
H88   H     H_    0.354806 0.305080 0.804602 0.083509
H89   H     H_    0.097041 0.972415 0.191109 0.103468
H90   H     H_    0.294118 0.382788 0.794356 0.161341
H91   H     H_    0.663221 0.592800 0.797582 0.136536
H92   H     H_    0.607264 0.517422 0.747985 0.133054
H93   H     H_    0.743429 0.622847 0.755392 0.118836
H94   H     H_    0.830029 0.816935 0.804394 0.111891
H95   H     H_    0.909091 0.926299 0.844221 0.167903
H96   H     H_    0.922903 0.048508 0.796940 0.157766
H97   H     H_    0.972900 0.962220 0.776077 0.088138
H98   H     H_    0.842515 0.938480 0.757645 0.160067
O1    O     O_R   0.318160 0.824460 0.443680 -0.521265
O2    O     O_R   0.668160 0.499860 0.053480 -0.519408
O3    O     O_R   0.689170 0.693840 0.050110 -0.501386
O4    O     O_R   0.525040 0.857250 0.449830 -0.502199
O5    O     O_R   0.803860 0.812940 0.962540 -0.458141
O6    O     O_R   0.982950 0.787950 0.964120 -0.500334
O7    O     O_R   0.007050 0.649970 0.960540 -0.520495
O8    O     O_R   0.807910 0.482370 0.965590 -0.503502
O9    O     O_R   0.643310 0.460980 0.963840 -0.519051
O10   O     O_R   0.666140 0.657800 0.967020 -0.510370
O11   O     O_3   0.830520 0.660760 0.007110 -0.236379
O12   O     O_R   0.645130 0.163230 0.552140 -0.518952
O13   O     O_R   0.684760 0.998800 0.456360 -0.522365
O14   O     O_R   0.647540 0.166310 0.470260 -0.502093
O15   O     O_R   0.500960 0.181750 0.467450 -0.521895
O16   O     O_R   0.331100 0.981120 0.457080 -0.503391
O17   O     O_R   0.315560 0.821140 0.532010 -0.519716
O18   O     O_R   0.522630 0.854180 0.531710 -0.499761
O19   O     O_R   0.682160 0.995480 0.544690 -0.520196
O20   O     O_3   0.496813 0.312056 0.616880 -0.538036
O21   O     O_3   0.100586 0.640316 0.641679 -0.548725
O22   O     O_3   0.763141 0.252940 0.214978 -0.554727
O23   O     O_R   0.498360 0.178430 0.555780 -0.466459
O24   O     O_3   0.802627 0.923108 0.910753 -0.528378
O25   O     O_3   0.455465 0.563855 0.826152 -0.548389
O26   O     O_3   0.758041 0.905080 0.828833 -0.548585
O27   O     O_R   0.328690 0.978040 0.538950 -0.505424
O28   O     O_3   0.499990 0.999990 0.500010 -0.236317
O29   O     O_R   0.828710 0.851830 0.052170 -0.524148
O30   O     O_R   0.005980 0.823990 0.047210 -0.501579
O31   O     O_R   0.031900 0.688850 0.050170 -0.527422
O32   O     O_R   0.830940 0.518420 0.048680 -0.504229

loop_
_geom_bond_atom_site_label_1
_geom_bond_atom_site_label_2
_ccdc_geom_bond_type
C48   C55   A    
C105  H20   S    
C87   C88   A    
C66   O19   A    
C42   O14   A    
C19   H62   S    
C93   C94   A    
C31   H94   S    
C23   H75   S    
C18   H61   S    
C107  C112  A    
C21   H70   S    
C26   H80   S    
C93   H16   S    
C111  C112  A    
C35   H21   S    
C23   O22   S    
C2    O9    A    
C28   C29   S    
C14   C33   S    
Cr3   O28   S    
Cr3   O15   S    
C92   C98   A    
C123  C124  A    
C117  O6    A    
Cr2   O14   S    
C45   C46   A    
C56   C57   A    
C48   C54   S    
C15   H52   S    
C18   H59   S    
C26   C27   S    
C37   C38   A    
C34   O22   S    
C43   H12   S    
C116  H29   S    
C36   C37   A    
C59   H89   S    
Cr5   O8    S    
Cr4   O6    S    
C121  C127  A    
C26   O24   S    
C5    C6    A    
C114  C126  A    
C10   C73   A    
C2    O8    A    
C38   H41   S    
C15   H51   S    
C125  O26   S    
C32   H98   S    
C4    H32   S    
C22   H73   S    
C68   H10   S    
C29   H90   S    
C34   C35   A    
C89   C94   A    
C61   C63   T    
C86   C97   S    
C30   H93   S    
C110  C111  A    
C64   C84   S    
C94   C96   S    
Cr5   O7    S    
C126  H38   S    
Cr3   O27   S    
C113  C119  A    
C9    H36   S    
C34   C39   A    
C22   C113  S    
C13   O10   A    
C35   C36   A    
C65   C71   A    
C68   C69   A    
C65   C67   A    
C15   H50   S    
C16   C87   S    
C1    C65   S    
C41   C46   A    
C36   C46   S    
C70   C71   A    
Cr6   O9    S    
C108  C109  A    
C89   C91   A    
C9    C10   A    
C115  C120  A    
C110  H25   S    
C44   C47   A    
C23   H74   S    
C12   H43   S    
Cr6   O10   S    
Cr1   O4    S    
C72   H5    S    
C15   C76   S    
C41   H42   S    
C66   O18   A    
C101  H24   S    
C70   H6    S    
Cr1   O1    S    
C7    C30   S    
C31   H95   S    
C118  C119  A    
C18   H60   S    
C27   H82   S    
C41   C43   A    
C30   H92   S    
C84   O31   A    
C25   H77   S    
C51   C62   A    
C54   O1    A    
C104  C105  A    
C14   H49   S    
C24   C33   A    
C100  C101  A    
C6    H35   S    
C53   C55   A    
C58   C64   A    
C99   C105  A    
C74   H4    S    
C32   H97   S    
C33   C102  A    
Cr1   O17   S    
Cr1   O28   S    
C21   H68   S    
C7    C8    A    
C76   C77   A    
C72   C74   A    
C3    C8    A    
C16   H55   S    
C39   C40   S    
C86   C87   A    
C75   C81   A    
C30   H91   S    
Cr2   O12   S    
C58   C59   A    
C85   C86   A    
C66   C73   S    
C16   H54   S    
C17   H58   S    
C122  H30   S    
C9    C62   A    
C22   H72   S    
C90   O17   A    
C60   C61   S    
C78   O23   A    
C25   H79   S    
C29   H88   S    
C67   C68   A    
C85   H18   S    
C20   H66   S    
C72   C77   A    
C102  C114  A    
C1    O13   A    
Cr6   O11   S    
C99   C117  S    
C13   C121  S    
C79   C80   T    
C78   C82   S    
C50   C52   A    
C55   H67   S    
C107  C108  A    
C40   C126  A    
C96   C97   T    
C49   H78   S    
C17   C18   S    
C88   H15   S    
C77   C79   S    
C51   H31   S    
C31   O26   S    
Cr6   O2    S    
C54   O16   A    
C25   H76   S    
C20   H65   S    
C121  C122  A    
C6    C7    A    
C116  C118  A    
Cr5   O32   S    
Cr3   O23   S    
Cr5   O11   S    
C48   C49   A    
C83   C85   A    
Cr4   O30   S    
C90   C120  S    
C117  O7    A    
C82   C83   A    
C28   H86   S    
C106  O29   A    
C11   C73   A    
C27   H83   S    
C17   H57   S    
C127  O24   S    
C84   O30   A    
C74   C81   A    
C3    C4    A    
C67   H8    S    
C104  H28   S    
C14   H48   S    
C44   C45   A    
C109  C119  S    
C57   C64   A    
Cr5   O31   S    
C91   H11   S    
C123  O25   S    
C89   H14   S    
C32   H96   S    
C42   O15   A    
C75   C76   A    
C28   H85   S    
C106  O3    A    
C83   O20   S    
C58   H2    S    
C21   H69   S    
Cr4   O11   S    
C31   C32   S    
C8    C124  S    
C28   O25   S    
C111  H26   S    
C4    C5    A    
Cr2   O28   S    
C52   C63   S    
Cr3   O16   S    
C95   C102  S    
C27   H84   S    
C71   H7    S    
C57   H34   S    
Cr2   O13   S    
Cr4   O5    S    
C10   H37   S    
C12   H46   S    
C19   H63   S    
Cr1   O18   S    
C99   C100  A    
C22   H71   S    
C115  H27   S    
C26   H81   S    
C19   C20   S    
C12   C44   S    
C118  O21   S    
C109  C110  A    
C56   H45   S    
C75   H9    S    
C92   H17   S    
C45   H13   S    
C50   H3    S    
C100  H19   S    
C38   C39   A    
C53   H56   S    
C1    O4    A    
C82   C88   A    
C95   O32   A    
C92   C93   A    
C114  H1    S    
C17   O20   S    
C5    C62   S    
C12   H44   S    
C78   O12   A    
Cr6   O3    S    
C23   C25   S    
C91   C98   A    
C69   C70   A    
C19   O21   S    
C14   H47   S    
C20   H64   S    
C24   C40   A    
C21   C108  S    
C11   C51   A    
C37   H40   S    
Cr4   O29   S    
C116  C120  A    
C59   C60   A    
C42   C47   S    
C56   C60   A    
C2    C98   S    
C101  C103  A    
C49   C50   A    
Cr2   O19   S    
C13   O5    A    
C103  C104  A    
C125  C127  A    
C103  C112  S    
C69   C80   S    
C16   H53   S    
C95   O2    A    
C113  C115  A    
C122  C123  A    
C81   C106  S    
C43   C47   A    
C11   H39   S    
C107  H22   S    
C24   H23   S    
C3    H33   S    
C52   C53   A    
C124  C125  A    
C29   H87   S    
C90   O27   A    
