data_mof_unit_19515.cif
_audit_creation_date              2013-03-05T15:47:43-0500
_audit_creation_method            fapswitch 2.2
_symmetry_space_group_name_H-M    P1
_symmetry_Int_Tables_number       1
_space_group_crystal_system       triclinic
_cell_length_a                    21.80361
_cell_length_b                    21.758342
_cell_length_c                    30.041209
_cell_angle_alpha                 90.277751
_cell_angle_beta                  90.164575
_cell_angle_gamma                 87.857715
_cell_volume                      14241.6821499

loop_
_atom_site_label
_atom_site_type_symbol
_atom_site_description
_atom_site_fract_x
_atom_site_fract_y
_atom_site_fract_z
_atom_type_partial_charge
O1    O     O_R   0.448270 0.091550 0.500010 -0.619530
O2    O     O_R   0.091550 0.551730 0.500010 -0.589695
O3    O     O_R   0.551730 0.908450 0.500010 -0.586442
O4    O     O_R   0.908450 0.448270 0.500010 -0.590111
O5    O     O_R   0.448270 0.908450 0.499990 -0.616611
O6    O     O_R   0.091550 0.448270 0.499990 -0.602185
O7    O     O_R   0.551730 0.091550 0.499990 -0.607413
O8    O     O_R   0.908450 0.551730 0.499990 -0.595378
O9    O     O_R   0.948270 0.591550 0.000010 -0.589177
O10   O     O_R   0.591550 0.051730 0.000010 -0.589376
O11   O     O_R   0.051730 0.408450 0.000010 -0.599402
O12   O     O_R   0.408450 0.948270 0.000010 -0.588384
O13   O     O_R   0.948270 0.408450 0.999990 -0.612199
O14   O     O_R   0.591550 0.948270 0.999990 -0.589775
O15   O     O_R   0.051730 0.591550 0.999990 -0.613461
O16   O     O_R   0.408450 0.051730 0.999990 -0.595772
C1    C     C_R   0.497428 0.119839 0.495763 0.987280
C2    C     C_R   0.120100 0.499360 0.498548 0.960446
C3    C     C_R   0.501599 0.880049 0.497721 0.997469
C4    C     C_R   0.879822 0.500815 0.499006 0.955037
C5    C     C_R   0.998332 0.619924 0.997516 0.985649
C6    C     C_R   0.620211 0.999107 0.999435 0.958156
C7    C     C_R   0.001435 0.380011 0.998400 0.985533
C8    C     C_R   0.379823 0.000758 0.998990 0.957974
O17   O     O_R   0.448260 0.999910 0.566090 -0.610568
O18   O     O_R   0.999910 0.551740 0.566090 -0.596742
O19   O     O_R   0.551740 0.000090 0.566090 -0.611028
O20   O     O_R   0.000090 0.448260 0.566090 -0.593122
O21   O     O_R   0.448260 0.000090 0.433910 -0.637264
O22   O     O_R   0.999910 0.448260 0.433910 -0.606050
O23   O     O_R   0.551740 0.999910 0.433910 -0.614437
O24   O     O_R   0.000090 0.551740 0.433910 -0.607003
O25   O     O_R   0.948260 0.499910 0.066090 -0.609817
O26   O     O_R   0.499910 0.051740 0.066090 -0.591576
O27   O     O_R   0.051740 0.500090 0.066090 -0.611587
O28   O     O_R   0.500090 0.948260 0.066090 -0.602511
O29   O     O_R   0.948260 0.500090 0.933910 -0.619678
O30   O     O_R   0.499910 0.948260 0.933910 -0.608287
O31   O     O_R   0.051740 0.499910 0.933910 -0.598093
O32   O     O_R   0.500090 0.051740 0.933910 -0.605689
C9    C     C_R   0.500061 0.000112 0.586906 1.013241
C10   C     C_R   0.999924 0.500183 0.586769 0.909061
C11   C     C_R   0.499712 0.001104 0.413407 0.895211
C12   C     C_R   0.999810 0.499876 0.413517 0.903336
C13   C     C_R   0.000067 0.500222 0.086905 0.985878
C14   C     C_R   0.500232 0.000157 0.086737 0.899654
C15   C     C_R   0.999882 0.500177 0.913388 0.901724
C16   C     C_R   0.500101 0.999845 0.913515 0.904307
Zn1   Zn    Zn3+2 0.430920 0.000000 0.500000 0.973369
Zn2   Zn    Zn3+2 0.000000 0.569080 0.500000 1.063319
Zn3   Zn    Zn3+2 0.569080 0.000000 0.500000 1.038554
Zn4   Zn    Zn3+2 1.000000 0.430920 0.500000 1.058722
Zn5   Zn    Zn3+2 0.930920 0.500000 0.000000 1.035276
Zn6   Zn    Zn3+2 0.500000 0.069080 0.000000 1.066288
Zn7   Zn    Zn3+2 0.069080 0.500000 0.000000 1.045554
Zn8   Zn    Zn3+2 0.500000 0.930920 0.000000 1.061024
C17   C     C_R   0.449333 0.024121 0.843607 -0.206108
C18   C     C_R   0.960952 0.462029 0.842875 -0.205092
C19   C     C_R   0.550579 0.974285 0.843679 -0.205717
C20   C     C_R   0.036130 0.541270 0.843288 -0.208672
C21   C     C_R   0.467690 0.956859 0.157301 -0.209131
C22   C     C_R   0.945843 0.514697 0.158050 -0.163246
C23   C     C_R   0.531963 0.045297 0.157396 -0.190112
C24   C     C_R   0.054495 0.486824 0.158243 -0.164154
C25   C     C_R   0.949453 0.525529 0.343647 -0.206353
C26   C     C_R   0.460931 0.963152 0.342908 -0.179997
C27   C     C_R   0.049824 0.473838 0.343664 -0.205771
C28   C     C_R   0.534235 0.044150 0.343370 -0.171472
C29   C     C_R   0.968756 0.455444 0.657321 -0.189973
C30   C     C_R   0.445498 0.012503 0.658081 -0.157227
C31   C     C_R   0.028046 0.547436 0.657633 -0.194618
C32   C     C_R   0.554678 0.987166 0.658210 -0.168028
C33   C     C_R   0.500031 0.999444 0.866075 -0.110342
C34   C     C_R   0.999334 0.500903 0.865666 -0.105359
C35   C     C_R   0.500078 0.000695 0.134646 -0.110433
C36   C     C_R   0.000170 0.500651 0.135195 -0.076155
C37   C     C_R   0.999626 0.499615 0.366082 -0.109046
C38   C     C_R   0.498415 0.002882 0.365704 -0.089465
C39   C     C_R   0.999177 0.500827 0.634736 -0.108415
C40   C     C_R   0.500131 0.000074 0.635194 -0.077876
C41   C     C_R   0.552839 0.977068 0.797418 -0.026088
C42   C     C_R   0.034378 0.544043 0.796984 -0.034927
C43   C     C_R   0.446945 0.020882 0.797353 -0.027036
C44   C     C_R   0.960712 0.460815 0.796578 -0.023922
C45   C     C_R   0.532106 0.046726 0.203769 -0.044740
C46   C     C_R   0.055060 0.485172 0.204579 -0.044338
C47   C     C_R   0.465779 0.957402 0.203608 -0.023543
C48   C     C_R   0.945098 0.516139 0.204380 -0.046306
C49   C     C_R   0.052245 0.476867 0.297432 -0.028006
C50   C     C_R   0.534204 0.045383 0.296972 -0.018034
C51   C     C_R   0.947277 0.523068 0.297357 -0.026116
C52   C     C_R   0.460654 0.961975 0.296591 -0.037359
C53   C     C_R   0.028969 0.548138 0.703975 -0.032872
C54   C     C_R   0.555280 0.985232 0.704538 -0.044738
C55   C     C_R   0.965957 0.456396 0.703614 -0.039712
C56   C     C_R   0.444666 0.013351 0.704418 -0.046426
C57   C     C_R   0.499911 0.999025 0.774094 0.001776
C58   C     C_R   0.997590 0.502337 0.773489 -0.016495
C59   C     C_R   0.498298 0.002695 0.226991 -0.005191
C60   C     C_R   0.000010 0.500517 0.227705 -0.025155
C61   C     C_R   0.999841 0.500145 0.274102 0.001484
C62   C     C_R   0.497502 0.003553 0.273457 -0.023155
C63   C     C_R   0.997502 0.502302 0.727064 -0.003148
C64   C     C_R   0.499955 0.999204 0.727699 -0.025723
C65   C     C_R   0.607334 0.960781 0.774340 0.201751
C66   C     C_R   0.066958 0.588725 0.773965 0.217809
C67   C     C_R   0.392281 0.036614 0.774218 0.202078
C68   C     C_R   0.926040 0.417733 0.773142 0.199455
C69   C     C_R   0.567064 0.089658 0.227184 0.204475
C70   C     C_R   0.108910 0.466790 0.228052 0.193933
C71   C     C_R   0.430524 0.914902 0.226732 0.190684
C72   C     C_R   0.891104 0.534250 0.227675 0.195523
C73   C     C_R   0.106506 0.459590 0.274412 0.202163
C74   C     C_R   0.569473 0.087826 0.273818 0.218039
C75   C     C_R   0.893194 0.540766 0.274151 0.202153
C76   C     C_R   0.426451 0.918434 0.273218 0.213624
C77   C     C_R   0.062200 0.592411 0.727482 0.188649
C78   C     C_R   0.609494 0.967978 0.727968 0.195534
C79   C     C_R   0.930659 0.413852 0.726680 0.192367
C80   C     C_R   0.390189 0.029554 0.727774 0.191662
H1    H     H_    0.411042 0.042892 0.862816 0.177531
H2    H     H_    0.933183 0.431348 0.861821 0.181363
H3    H     H_    0.588900 0.955648 0.862948 0.176927
H4    H     H_    0.063689 0.572144 0.862577 0.188861
H5    H     H_    0.442639 0.923650 0.138258 0.192348
H6    H     H_    0.904734 0.526671 0.139309 0.196485
H7    H     H_    0.558005 0.077458 0.138446 0.195538
H8    H     H_    0.095622 0.474795 0.139625 0.195740
H9    H     H_    0.911423 0.544816 0.362880 0.177230
H10   H     H_    0.434483 0.931285 0.361856 0.182477
H11   H     H_    0.087844 0.454538 0.362928 0.177128
H12   H     H_    0.561183 0.075521 0.362698 0.182922
H13   H     H_    0.945234 0.421144 0.638242 0.195572
H14   H     H_    0.404164 0.023726 0.639389 0.195153
H15   H     H_    0.051837 0.581472 0.638835 0.194527
H16   H     H_    0.596052 0.976243 0.639575 0.196897
C81   C     C_R   0.549449 0.183282 0.567501 0.449414
C82   C     C_R   0.190560 0.410862 0.550472 0.454809
C83   C     C_R   0.443436 0.816992 0.567495 0.449476
C84   C     C_R   0.809106 0.595248 0.547026 0.460229
C85   C     C_R   0.595930 0.807307 0.447777 0.425783
C86   C     C_R   0.186111 0.594456 0.451475 0.432107
C87   C     C_R   0.391339 0.193535 0.449574 0.421571
C88   C     C_R   0.813696 0.405518 0.451937 0.433949
C89   C     C_R   0.057467 0.683921 0.067007 0.447691
C90   C     C_R   0.691767 0.902984 0.046338 0.449245
C91   C     C_R   0.940362 0.316802 0.067121 0.447616
C92   C     C_R   0.309224 0.094487 0.047575 0.457943
C93   C     C_R   0.093515 0.308035 0.948162 0.445975
C94   C     C_R   0.686012 0.093851 0.952498 0.434283
C95   C     C_R   0.902261 0.692419 0.948493 0.426847
C96   C     C_R   0.313637 0.905262 0.951776 0.432607
C97   C     C_R   0.603448 0.201252 0.587143 0.427041
C98   C     C_R   0.216813 0.352666 0.558030 0.425147
C99   C     C_R   0.389639 0.797961 0.586520 0.427316
C100  C     C_R   0.781167 0.653302 0.553172 0.411502
C101  C     C_R   0.653375 0.777097 0.442548 0.402384
C102  C     C_R   0.209568 0.653603 0.450952 0.399455
C103  C     C_R   0.341472 0.231145 0.433818 0.391848
C104  C     C_R   0.790550 0.346245 0.451237 0.400402
C105  C     C_R   0.111604 0.703134 0.085764 0.428958
C106  C     C_R   0.720770 0.845051 0.051332 0.402657
C107  C     C_R   0.886168 0.297322 0.085327 0.428425
C108  C     C_R   0.281429 0.152607 0.053728 0.415595
C109  C     C_R   0.151148 0.279214 0.941748 0.413121
C110  C     C_R   0.709134 0.153174 0.952032 0.400557
C111  C     C_R   0.844927 0.723178 0.943819 0.394071
C112  C     C_R   0.290185 0.846086 0.950982 0.398804
C113  C     C_R   0.627360 0.256442 0.573693 -0.480156
C114  C     C_R   0.277760 0.341999 0.545246 -0.502655
C115  C     C_R   0.367606 0.741572 0.573291 -0.481592
C116  C     C_R   0.718739 0.659989 0.543383 -0.502390
C117  C     C_R   0.656607 0.713741 0.449239 -0.491409
C118  C     C_R   0.270550 0.659715 0.463487 -0.449028
C119  C     C_R   0.343046 0.293814 0.441053 -0.462836
C120  C     C_R   0.729753 0.339916 0.463913 -0.446942
C121  C     C_R   0.133675 0.759137 0.072264 -0.478846
C122  C     C_R   0.783440 0.840014 0.042694 -0.498329
C123  C     C_R   0.865238 0.240508 0.072035 -0.479348
C124  C     C_R   0.219117 0.159594 0.043680 -0.499421
C125  C     C_R   0.156068 0.215918 0.949276 -0.503607
C126  C     C_R   0.770087 0.159546 0.964486 -0.446777
C127  C     C_R   0.842543 0.786643 0.949971 -0.487415
C128  C     C_R   0.229104 0.840112 0.962996 -0.447250
C129  C     C_R   0.590419 0.299724 0.549499 0.466710
C130  C     C_R   0.314015 0.392414 0.535628 0.468899
C131  C     C_R   0.406313 0.698623 0.550095 0.467411
C132  C     C_R   0.684486 0.607510 0.536194 0.479351
C133  C     C_R   0.603028 0.681879 0.456562 0.476334
C134  C     C_R   0.308672 0.606838 0.467915 0.472974
C135  C     C_R   0.397491 0.321234 0.451531 0.481451
C136  C     C_R   0.691569 0.392723 0.468609 0.473328
C137  C     C_R   0.094711 0.801843 0.049198 0.466609
C138  C     C_R   0.816608 0.893177 0.036652 0.472743
C139  C     C_R   0.905284 0.197833 0.049839 0.467785
C140  C     C_R   0.184697 0.107243 0.036397 0.480215
C141  C     C_R   0.103241 0.182891 0.957421 0.480218
C142  C     C_R   0.808323 0.106786 0.968799 0.471312
C143  C     C_R   0.896592 0.818071 0.956700 0.474425
C144  C     C_R   0.191161 0.893062 0.967621 0.472540
C145  C     C_R   0.537588 0.277798 0.525502 -0.111401
C146  C     C_R   0.284241 0.447621 0.518373 -0.094806
C147  C     C_R   0.458396 0.721518 0.526220 -0.105740
C148  C     C_R   0.715233 0.552926 0.518583 -0.093473
C149  C     C_R   0.551139 0.714318 0.476642 -0.089803
C150  C     C_R   0.281489 0.550564 0.481430 -0.120306
C151  C     C_R   0.445561 0.286338 0.474398 -0.083472
C152  C     C_R   0.718606 0.449210 0.482157 -0.129204
C153  C     C_R   0.042220 0.778735 0.025560 -0.105065
C154  C     C_R   0.785171 0.947288 0.019106 -0.094545
C155  C     C_R   0.957421 0.221150 0.026292 -0.105923
C156  C     C_R   0.215328 0.052593 0.018789 -0.094978
C157  C     C_R   0.050895 0.214593 0.977447 -0.091130
C158  C     C_R   0.781340 0.050424 0.982412 -0.123577
C159  C     C_R   0.948607 0.785572 0.976532 -0.091484
C160  C     C_R   0.218444 0.949259 0.981710 -0.123760
C161  C     C_R   0.525442 0.215628 0.529931 -0.197563
C162  C     C_R   0.219949 0.452302 0.521569 -0.201787
C163  C     C_R   0.468745 0.784419 0.530393 -0.194688
C164  C     C_R   0.779741 0.550057 0.520700 -0.200519
C165  C     C_R   0.550031 0.779203 0.473940 -0.174803
C166  C     C_R   0.217410 0.547174 0.476594 -0.145365
C167  C     C_R   0.442138 0.220864 0.473669 -0.159985
C168  C     C_R   0.782512 0.452889 0.477270 -0.145747
C169  C     C_R   0.031716 0.715958 0.029906 -0.195657
C170  C     C_R   0.720552 0.949648 0.021269 -0.184264
C171  C     C_R   0.967079 0.284239 0.030516 -0.192621
C172  C     C_R   0.279815 0.049513 0.021062 -0.199360
C173  C     C_R   0.048955 0.279285 0.974742 -0.192316
C174  C     C_R   0.717361 0.046698 0.977823 -0.146771
C175  C     C_R   0.949188 0.720614 0.974053 -0.169660
C176  C     C_R   0.282462 0.952736 0.977072 -0.143851
C177  C     C_R   0.495706 0.313720 0.498472 -0.129658
C178  C     C_R   0.314636 0.498606 0.499674 -0.123718
C179  C     C_R   0.501741 0.685998 0.499857 -0.130298
C180  C     C_R   0.685293 0.501143 0.500280 -0.128913
C181  C     C_R   0.998578 0.814004 0.999361 -0.128884
C182  C     C_R   0.814782 0.998747 0.000403 -0.125123
C183  C     C_R   0.001434 0.185915 0.000223 -0.128282
C184  C     C_R   0.185279 0.001046 0.000211 -0.126865
C185  C     C_R   0.488639 0.186508 0.498403 -0.085845
C186  C     C_R   0.186817 0.498885 0.498029 -0.092707
C187  C     C_R   0.506202 0.813480 0.499561 -0.095323
C188  C     C_R   0.813040 0.501950 0.498286 -0.089830
C189  C     C_R   0.993618 0.686546 0.999327 -0.093263
C190  C     C_R   0.686996 0.997788 0.998947 -0.089464
C191  C     C_R   0.005312 0.313419 0.000293 -0.094429
C192  C     C_R   0.313049 0.001665 0.998349 -0.089975
H17   H     H_    0.672967 0.266300 0.584770 0.180677
H18   H     H_    0.299281 0.296716 0.548631 0.174101
H19   H     H_    0.322280 0.730403 0.584058 0.181003
H20   H     H_    0.694724 0.704063 0.546722 0.182283
H21   H     H_    0.698963 0.687094 0.444808 0.186830
H22   H     H_    0.290801 0.704285 0.463575 0.181411
H23   H     H_    0.304570 0.324366 0.432971 0.179984
H24   H     H_    0.709534 0.295333 0.463588 0.181971
H25   H     H_    0.179186 0.770310 0.082884 0.181715
H26   H     H_    0.808519 0.796505 0.045776 0.184018
H27   H     H_    0.819950 0.228438 0.082391 0.182108
H28   H     H_    0.195323 0.203780 0.046994 0.180262
H29   H     H_    0.198827 0.190079 0.944566 0.187084
H30   H     H_    0.790263 0.204151 0.964370 0.181077
H31   H     H_    0.800294 0.813499 0.945632 0.186970
H32   H     H_    0.208627 0.795649 0.962486 0.181865
O33   O     O_R   0.408410 0.499950 0.462690 -0.607317
O34   O     O_R   0.499950 0.591590 0.462690 -0.625036
O35   O     O_R   0.591590 0.500050 0.462690 -0.613534
O36   O     O_R   0.500050 0.408410 0.462690 -0.616137
O37   O     O_R   0.408410 0.500050 0.537310 -0.645605
O38   O     O_R   0.499950 0.408410 0.537310 -0.626758
O39   O     O_R   0.591590 0.499950 0.537310 -0.643597
O40   O     O_R   0.500050 0.591590 0.537310 -0.622370
O41   O     O_R   0.908410 0.999950 0.962690 -0.616464
O42   O     O_R   0.999950 0.091590 0.962690 -0.627028
O43   O     O_R   0.091590 0.000050 0.962690 -0.616702
O44   O     O_R   0.000050 0.908410 0.962690 -0.623427
O45   O     O_R   0.908410 0.000050 0.037310 -0.638655
O46   O     O_R   0.999950 0.908410 0.037310 -0.622306
O47   O     O_R   0.091590 0.999950 0.037310 -0.641814
O48   O     O_R   0.000050 0.091590 0.037310 -0.621757
C193  C     C_R   0.380264 0.498677 0.499953 1.141927
C194  C     C_R   0.499422 0.620068 0.500007 1.157093
C195  C     C_R   0.619722 0.500841 0.500114 1.146566
C196  C     C_R   0.499658 0.379825 0.499651 1.151398
C197  C     C_R   0.880305 0.999119 0.000069 1.151615
C198  C     C_R   0.999392 0.120035 0.000063 1.156015
C199  C     C_R   0.119717 0.000859 0.000103 1.148824
C200  C     C_R   0.000787 0.879933 0.999833 1.157273
Zn9   Zn    Zn3+2 0.500000 0.500000 0.450200 0.932169
Zn10  Zn    Zn3+2 0.500000 0.500000 0.549800 0.919585
Zn11  Zn    Zn3+2 0.000000 0.000000 0.950200 0.926379
Zn12  Zn    Zn3+2 0.000000 0.000000 0.049800 0.922436
N1    N     N_R   0.661756 0.941083 0.798094 0.219803
O49   O     O_R   0.710824 0.973220 0.796283 -0.376797
O50   O     O_R   0.663804 0.888552 0.818643 -0.417082
N2    N     N_R   0.103118 0.631965 0.797690 0.222046
O51   O     O_R   0.090220 0.690666 0.794666 -0.366257
O52   O     O_R   0.152311 0.613031 0.818916 -0.409037
N3    N     N_R   0.337641 0.055390 0.797975 0.220152
O53   O     O_R   0.289387 0.022028 0.796209 -0.376911
O54   O     O_R   0.334626 0.108041 0.818719 -0.413599
N4    N     N_R   0.888130 0.376024 0.796423 0.221182
O55   O     O_R   0.897705 0.316908 0.792176 -0.368557
O56   O     O_R   0.840900 0.397069 0.818921 -0.412422
N5    N     N_R   0.602121 0.133748 0.203803 0.223102
O57   O     O_R   0.661289 0.134772 0.209296 -0.371061
O58   O     O_R   0.574314 0.176288 0.180113 -0.374981
N6    N     N_R   0.165861 0.454650 0.205053 0.216019
O59   O     O_R   0.197128 0.403357 0.211547 -0.366252
O60   O     O_R   0.190165 0.497905 0.181965 -0.378671
N7    N     N_R   0.396937 0.869423 0.203135 0.222545
O61   O     O_R   0.337635 0.867816 0.207288 -0.372249
O62   O     O_R   0.426163 0.826250 0.180737 -0.380934
N8    N     N_R   0.834254 0.546470 0.204403 0.215504
O63   O     O_R   0.803039 0.597832 0.210993 -0.364417
O64   O     O_R   0.810004 0.503233 0.180860 -0.377918
N9    N     N_R   0.160540 0.438880 0.298229 0.220903
O65   O     O_R   0.210096 0.470310 0.296719 -0.375265
O66   O     O_R   0.161574 0.386406 0.318855 -0.413679
N10   N     N_R   0.607162 0.129856 0.297441 0.223405
O67   O     O_R   0.598696 0.188884 0.292159 -0.355837
O68   O     O_R   0.653956 0.109033 0.320549 -0.417013
N11   N     N_R   0.839015 0.561180 0.297822 0.220343
O69   O     O_R   0.789480 0.529759 0.295523 -0.376287
O70   O     O_R   0.837783 0.613522 0.318981 -0.415278
N12   N     N_R   0.388950 0.876374 0.296548 0.220931
O71   O     O_R   0.398561 0.817320 0.291876 -0.366957
O72   O     O_R   0.341804 0.897039 0.319303 -0.406922
N13   N     N_R   0.093145 0.639774 0.704283 0.220169
O73   O     O_R   0.151864 0.645847 0.709581 -0.372591
O74   O     O_R   0.061696 0.680343 0.681088 -0.374445
N14   N     N_R   0.666605 0.957089 0.704917 0.217063
O75   O     O_R   0.698783 0.906275 0.711146 -0.366459
O76   O     O_R   0.690079 0.001037 0.682047 -0.382332
N15   N     N_R   0.897197 0.368343 0.703037 0.224041
O77   O     O_R   0.837814 0.367101 0.706740 -0.369960
O78   O     O_R   0.926557 0.324647 0.681259 -0.373008
N16   N     N_R   0.332842 0.039139 0.704606 0.216671
O79   O     O_R   0.298745 0.088457 0.711978 -0.364809
O80   O     O_R   0.311027 0.995046 0.680570 -0.379224
O81   O     O_3   0.295434 0.204057 0.408554 -0.647684
C201  C     C_3   0.240167 0.239452 0.402231 0.115753
H33   H     H_    0.211534 0.213583 0.378520 0.174414
H34   H     H_    0.248040 0.283442 0.384908 0.165663
C202  C     C_3   0.203072 0.247429 0.445567 -0.435252
H35   H     H_    0.185904 0.202131 0.455704 0.231219
H36   H     H_    0.232039 0.264341 0.473074 0.229630
C203  C     C_3   0.148768 0.292920 0.439474 -0.835747
H37   H     H_    0.165247 0.339058 0.430786 0.267173
H38   H     H_    0.122433 0.296996 0.471008 0.273232
H39   H     H_    0.117861 0.276872 0.412719 0.261921
O82   O     O_3   0.171300 0.703077 0.438038 -0.612942
C204  C     C_3   0.200478 0.743989 0.408941 0.075215
H40   H     H_    0.168805 0.753915 0.380650 0.160320
H41   H     H_    0.243435 0.724440 0.393471 0.122068
C205  C     C_3   0.211678 0.804890 0.432915 -0.379810
H42   H     H_    0.166786 0.827944 0.441231 0.236002
H43   H     H_    0.236922 0.796448 0.464565 0.230679
C206  C     C_3   0.248434 0.847574 0.403966 -0.838401
H44   H     H_    0.294323 0.826122 0.396497 0.281603
H45   H     H_    0.254893 0.891619 0.421900 0.257143
H46   H     H_    0.223708 0.857463 0.372269 0.279405
O83   O     O_3   0.703372 0.812413 0.431668 -0.629292
C207  C     C_3   0.751346 0.779701 0.409029 0.074682
H47   H     H_    0.771733 0.811867 0.385106 0.162498
H48   H     H_    0.734913 0.741259 0.388029 0.143006
C208  C     C_3   0.802002 0.758872 0.441860 -0.370790
H49   H     H_    0.826252 0.799771 0.454003 0.229975
H50   H     H_    0.782057 0.736485 0.471284 0.238409
C209  C     C_3   0.848185 0.713802 0.420073 -0.855893
H51   H     H_    0.825107 0.671485 0.409403 0.279031
H52   H     H_    0.884816 0.700711 0.444368 0.266577
H53   H     H_    0.869527 0.735219 0.390719 0.268942
O84   O     O_3   0.828827 0.296971 0.437764 -0.612428
C210  C     C_3   0.799309 0.255855 0.408609 0.075265
H54   H     H_    0.830577 0.245817 0.380167 0.159946
H55   H     H_    0.756120 0.275282 0.393358 0.122866
C211  C     C_3   0.788589 0.195048 0.432368 -0.381975
H56   H     H_    0.833641 0.171926 0.440154 0.236012
H57   H     H_    0.764161 0.203606 0.464291 0.231345
C212  C     C_3   0.751021 0.152398 0.403524 -0.831332
H58   H     H_    0.704959 0.173909 0.396681 0.283237
H59   H     H_    0.745005 0.108364 0.421232 0.261077
H60   H     H_    0.774865 0.142493 0.371511 0.278302
O85   O     O_3   0.358027 0.836807 0.615978 -0.580003
C213  C     C_3   0.347212 0.807358 0.657085 0.082040
H61   H     H_    0.367991 0.835257 0.683884 0.177215
H62   H     H_    0.368510 0.760026 0.660017 0.102894
C214  C     C_3   0.278087 0.805565 0.665271 -0.326347
H63   H     H_    0.258020 0.853290 0.665706 0.265514
H64   H     H_    0.256024 0.779896 0.637889 0.224876
C215  C     C_3   0.264268 0.774622 0.709416 -0.839334
H65   H     H_    0.282911 0.726396 0.709383 0.265089
H66   H     H_    0.213837 0.774198 0.714380 0.307251
H67   H     H_    0.284842 0.800217 0.737447 0.249323
O86   O     O_3   0.181286 0.308694 0.578043 -0.602654
C216  C     C_3   0.214419 0.273279 0.610170 0.094715
H68   H     H_    0.184709 0.269196 0.639910 0.166759
H69   H     H_    0.256533 0.295461 0.622676 0.116137
C217  C     C_3   0.228674 0.208360 0.592032 -0.362714
H70   H     H_    0.187158 0.180528 0.594900 0.237189
H71   H     H_    0.240732 0.210417 0.556270 0.221463
C218  C     C_3   0.281726 0.176804 0.617275 -0.906694
H72   H     H_    0.324749 0.201022 0.610967 0.236880
H73   H     H_    0.288180 0.128409 0.605859 0.283569
H74   H     H_    0.272099 0.177204 0.653531 0.309465
O87   O     O_3   0.633700 0.162004 0.616947 -0.581692
C219  C     C_3   0.647203 0.192256 0.657549 0.073466
H75   H     H_    0.626216 0.166162 0.684950 0.173860
H76   H     H_    0.627845 0.240400 0.660262 0.106354
C220  C     C_3   0.716715 0.191368 0.664791 -0.326827
H77   H     H_    0.734693 0.142913 0.665979 0.265673
H78   H     H_    0.739079 0.214531 0.636615 0.225323
C221  C     C_3   0.733326 0.223868 0.708070 -0.837374
H79   H     H_    0.716931 0.272812 0.707197 0.268570
H80   H     H_    0.783952 0.222173 0.712433 0.302671
H81   H     H_    0.712381 0.200837 0.736884 0.249281
O88   O     O_3   0.816939 0.700742 0.568801 -0.606349
C222  C     C_3   0.784746 0.742882 0.597236 0.087781
H82   H     H_    0.816180 0.754568 0.624928 0.177385
H83   H     H_    0.744174 0.723186 0.613713 0.116038
C223  C     C_3   0.767675 0.802508 0.572269 -0.376383
H84   H     H_    0.810171 0.827134 0.564799 0.238402
H85   H     H_    0.745097 0.792338 0.540060 0.230765
C224  C     C_3   0.724563 0.844374 0.599774 -0.858931
H86   H     H_    0.680961 0.821221 0.606365 0.243191
H87   H     H_    0.713780 0.887452 0.581198 0.271541
H88   H     H_    0.746560 0.856287 0.631899 0.306079
O89   O     O_3   0.793991 0.688430 0.934030 -0.631934
C225  C     C_3   0.747602 0.720307 0.909198 0.068298
H89   H     H_    0.728226 0.687080 0.885273 0.162906
H90   H     H_    0.765351 0.757643 0.888067 0.141807
C226  C     C_3   0.695442 0.743223 0.939979 -0.367809
H91   H     H_    0.670883 0.703114 0.952774 0.231041
H92   H     H_    0.713999 0.767965 0.969109 0.241522
C227  C     C_3   0.650035 0.786308 0.915625 -0.857262
H93   H     H_    0.673343 0.827994 0.904346 0.282672
H94   H     H_    0.612225 0.800851 0.938494 0.266413
H95   H     H_    0.630207 0.762633 0.886387 0.267546
O90   O     O_3   0.670779 0.202466 0.938891 -0.612639
C228  C     C_3   0.699852 0.243006 0.909444 0.073783
H96   H     H_    0.668081 0.252624 0.881166 0.160618
H97   H     H_    0.742726 0.223232 0.893992 0.121493
C229  C     C_3   0.711205 0.304214 0.932946 -0.379454
H98   H     H_    0.666366 0.327461 0.941149 0.236512
H99   H     H_    0.736505 0.296203 0.964625 0.231329
C230  C     C_3   0.747967 0.346394 0.903599 -0.834281
H100  H     H_    0.793805 0.324758 0.896222 0.280076
H101  H     H_    0.754547 0.390686 0.921171 0.261879
H102  H     H_    0.723178 0.355854 0.871863 0.278413
O91   O     O_3   0.198961 0.315601 0.927850 -0.621162
C231  C     C_3   0.248444 0.282796 0.907069 0.079260
H103  H     H_    0.268518 0.313941 0.882288 0.164305
H104  H     H_    0.233574 0.242603 0.887202 0.141059
C232  C     C_3   0.298798 0.265678 0.941168 -0.371733
H105  H     H_    0.321238 0.308131 0.952357 0.230431
H106  H     H_    0.278915 0.244254 0.971012 0.235924
C233  C     C_3   0.347061 0.221062 0.921293 -0.862591
H107  H     H_    0.325779 0.177412 0.911421 0.277181
H108  H     H_    0.383301 0.210493 0.946455 0.268186
H109  H     H_    0.368559 0.241699 0.891697 0.266631
O92   O     O_3   0.328498 0.796536 0.938086 -0.613287
C234  C     C_3   0.299409 0.755393 0.908715 0.073794
H110  H     H_    0.331243 0.745061 0.880648 0.160417
H111  H     H_    0.256629 0.774921 0.892939 0.123062
C235  C     C_3   0.287883 0.694800 0.932523 -0.380269
H112  H     H_    0.332658 0.671450 0.940785 0.236084
H113  H     H_    0.262934 0.703691 0.964196 0.231974
C236  C     C_3   0.250546 0.652235 0.903447 -0.831627
H114  H     H_    0.204714 0.673967 0.896162 0.283268
H115  H     H_    0.243981 0.608334 0.921199 0.262792
H116  H     H_    0.274870 0.642042 0.871665 0.277113
O93   O     O_3   0.853379 0.335800 0.114364 -0.580217
C237  C     C_3   0.842886 0.306502 0.155586 0.080188
H117  H     H_    0.862955 0.335050 0.182316 0.176935
H118  H     H_    0.865012 0.259562 0.158800 0.103057
C238  C     C_3   0.773821 0.303404 0.163594 -0.331640
H119  H     H_    0.752796 0.350744 0.163656 0.261620
H120  H     H_    0.752478 0.276909 0.136320 0.227253
C239  C     C_3   0.760406 0.272724 0.207917 -0.830763
H121  H     H_    0.779988 0.224847 0.208239 0.267640
H122  H     H_    0.710005 0.271342 0.212765 0.308038
H123  H     H_    0.780322 0.299076 0.235842 0.247142
O94   O     O_3   0.685549 0.795957 0.064328 -0.615823
C240  C     C_3   0.717882 0.752296 0.091364 0.076683
H124  H     H_    0.685856 0.737263 0.117499 0.172479
H125  H     H_    0.757032 0.771845 0.109966 0.122951
C241  C     C_3   0.737688 0.695243 0.063948 -0.365154
H126  H     H_    0.696400 0.669540 0.054682 0.235088
H127  H     H_    0.760300 0.708616 0.032609 0.238439
C242  C     C_3   0.781966 0.653054 0.090153 -0.867741
H128  H     H_    0.824391 0.677452 0.098505 0.242214
H129  H     H_    0.794816 0.611888 0.069759 0.271021
H130  H     H_    0.760066 0.637800 0.121344 0.303001
O95   O     O_3   0.143440 0.664988 0.115408 -0.580543
C243  C     C_3   0.153449 0.695150 0.156621 0.078829
H131  H     H_    0.132459 0.667532 0.183203 0.175938
H132  H     H_    0.131857 0.742424 0.159257 0.103979
C244  C     C_3   0.222409 0.697577 0.165615 -0.329359
H133  H     H_    0.242819 0.649999 0.166295 0.261891
H134  H     H_    0.244664 0.723043 0.138485 0.227276
C245  C     C_3   0.235334 0.729267 0.209916 -0.834535
H135  H     H_    0.216443 0.777397 0.209616 0.267558
H136  H     H_    0.285667 0.730064 0.215505 0.306470
H137  H     H_    0.214435 0.703996 0.237718 0.246756
O96   O     O_3   0.317195 0.199884 0.069579 -0.606078
C246  C     C_3   0.285184 0.241184 0.098737 0.090814
H138  H     H_    0.316691 0.251793 0.126631 0.176604
H139  H     H_    0.244444 0.221218 0.114808 0.116342
C247  C     C_3   0.268416 0.301683 0.074805 -0.384643
H140  H     H_    0.311127 0.325780 0.067044 0.240125
H141  H     H_    0.244738 0.292730 0.042823 0.224875
C248  C     C_3   0.226803 0.343515 0.103481 -0.847322
H142  H     H_    0.183053 0.320890 0.110574 0.244070
H143  H     H_    0.216076 0.387150 0.085577 0.270993
H144  H     H_    0.250076 0.354360 0.135329 0.307155
O97   O     O_3   0.519145 0.134916 0.585981 -0.623282
C249  C     C_3   0.466015 0.158224 0.608499 0.042802
H145  H     H_    0.431899 0.121726 0.608417 0.167228
H146  H     H_    0.442772 0.198382 0.591642 0.115927
C250  C     C_3   0.481623 0.174910 0.656765 -0.372750
H147  H     H_    0.504908 0.134760 0.673229 0.251576
H148  H     H_    0.513228 0.213745 0.657156 0.196971
C251  C     C_3   0.424274 0.194093 0.683011 -0.921001
H149  H     H_    0.401997 0.236041 0.668285 0.254675
H150  H     H_    0.437069 0.204272 0.718005 0.273985
H151  H     H_    0.391381 0.156438 0.682903 0.296634
O98   O     O_3   0.141265 0.430073 0.576597 -0.601714
C252  C     C_3   0.162529 0.467841 0.611666 0.058574
H152  H     H_    0.133193 0.510473 0.612572 0.152154
H153  H     H_    0.210571 0.483306 0.607611 0.112433
C253  C     C_3   0.157609 0.434295 0.656088 -0.334163
H154  H     H_    0.108684 0.425884 0.663257 0.249487
H155  H     H_    0.182959 0.389197 0.654053 0.222470
C254  C     C_3   0.184707 0.471412 0.694096 -0.910532
H156  H     H_    0.234814 0.475920 0.689105 0.263882
H157  H     H_    0.177389 0.447731 0.726171 0.262170
H158  H     H_    0.162338 0.517933 0.695772 0.289416
O99   O     O_3   0.472913 0.865607 0.586883 -0.623225
C255  C     C_3   0.527643 0.843155 0.607942 0.041035
H159  H     H_    0.560867 0.880413 0.607858 0.164981
H160  H     H_    0.551280 0.803999 0.590027 0.122857
C256  C     C_3   0.514850 0.824888 0.656127 -0.377891
H161  H     H_    0.492998 0.864613 0.674207 0.250214
H162  H     H_    0.482917 0.786322 0.656468 0.197956
C257  C     C_3   0.573805 0.804336 0.680069 -0.913203
H163  H     H_    0.594849 0.762929 0.663537 0.251072
H164  H     H_    0.563352 0.792866 0.715145 0.274518
H165  H     H_    0.606958 0.841746 0.679840 0.295535
O100  O     O_3   0.859502 0.579710 0.573233 -0.599452
C258  C     C_3   0.839599 0.548107 0.611489 0.060179
H166  H     H_    0.867982 0.505112 0.614754 0.151880
H167  H     H_    0.790924 0.533505 0.610062 0.110575
C259  C     C_3   0.848232 0.588225 0.652757 -0.308572
H168  H     H_    0.897866 0.595807 0.657913 0.250674
H169  H     H_    0.824318 0.633608 0.647815 0.227459
C260  C     C_3   0.822048 0.558725 0.694118 -0.937198
H170  H     H_    0.771913 0.552854 0.690138 0.267846
H171  H     H_    0.829531 0.589165 0.723129 0.272580
H172  H     H_    0.845079 0.513279 0.700371 0.284849
O101  O     O_3   0.585325 0.863774 0.427500 -0.615505
C261  C     C_3   0.586096 0.857068 0.380455 0.096359
H173  H     H_    0.539218 0.868361 0.367864 0.145337
H174  H     H_    0.598086 0.809563 0.368140 0.111503
C262  C     C_3   0.631014 0.901688 0.360375 -0.268378
H175  H     H_    0.618306 0.949439 0.370552 0.245872
H176  H     H_    0.678114 0.891183 0.372833 0.248835
C263  C     C_3   0.631522 0.897615 0.309752 -0.977460
H177  H     H_    0.648914 0.851322 0.298890 0.268815
H178  H     H_    0.661987 0.932687 0.296148 0.286523
H179  H     H_    0.584608 0.906184 0.296238 0.276541
O102  O     O_3   0.134923 0.582301 0.425835 -0.619973
C264  C     C_3   0.149009 0.587566 0.379841 0.102892
H180  H     H_    0.149962 0.540970 0.364865 0.170272
H181  H     H_    0.194902 0.606423 0.372603 0.114116
C265  C     C_3   0.099654 0.628007 0.356710 -0.292704
H182  H     H_    0.054367 0.607168 0.359779 0.241701
H183  H     H_    0.096084 0.673751 0.373100 0.244089
C266  C     C_3   0.114143 0.636592 0.307498 -0.958881
H184  H     H_    0.157717 0.660891 0.303819 0.260264
H185  H     H_    0.076623 0.664492 0.291473 0.263423
H186  H     H_    0.118414 0.591441 0.290245 0.283632
O103  O     O_3   0.392652 0.131283 0.438296 -0.624847
C267  C     C_3   0.338525 0.099323 0.449891 0.254248
H187  H     H_    0.351604 0.049872 0.451885 0.171253
H188  H     H_    0.304522 0.100743 0.422412 0.171261
C268  C     C_3   0.308455 0.116990 0.495048 -0.462624
H189  H     H_    0.342665 0.114752 0.522415 0.245474
H190  H     H_    0.288431 0.164389 0.493994 0.212059
C269  C     C_3   0.256961 0.073941 0.506010 -0.939384
H191  H     H_    0.221516 0.075757 0.479365 0.263892
H192  H     H_    0.234958 0.088182 0.537872 0.279549
H193  H     H_    0.275541 0.025954 0.509445 0.264064
O104  O     O_3   0.864082 0.417890 0.425820 -0.619313
C270  C     C_3   0.848378 0.413465 0.379964 0.099627
H194  H     H_    0.847205 0.460310 0.365690 0.170625
H195  H     H_    0.802137 0.394923 0.373099 0.113579
C271  C     C_3   0.896715 0.373145 0.355586 -0.293608
H196  H     H_    0.942216 0.393709 0.358325 0.240917
H197  H     H_    0.900630 0.327169 0.371286 0.243305
C272  C     C_3   0.880463 0.365333 0.306477 -0.956692
H198  H     H_    0.836614 0.341345 0.303077 0.260665
H199  H     H_    0.917256 0.337453 0.289552 0.262172
H200  H     H_    0.875866 0.410735 0.289909 0.285430
O105  O     O_3   0.028322 0.635511 0.086518 -0.621394
C273  C     C_3   0.973424 0.657994 0.107249 0.042070
H201  H     H_    0.940408 0.620556 0.107003 0.164866
H202  H     H_    0.949634 0.696784 0.089209 0.122301
C274  C     C_3   0.985964 0.677025 0.155482 -0.380055
H203  H     H_    0.007524 0.637516 0.173792 0.249630
H204  H     H_    0.018042 0.715471 0.155991 0.198314
C275  C     C_3   0.926898 0.698211 0.178914 -0.910864
H205  H     H_    0.906264 0.739540 0.162233 0.250617
H206  H     H_    0.937076 0.710028 0.214096 0.274576
H207  H     H_    0.893514 0.661012 0.178318 0.296221
O106  O     O_3   0.639072 0.915758 0.070687 -0.603810
C276  C     C_3   0.654907 0.931763 0.114950 0.062529
H208  H     H_    0.636657 0.979230 0.121494 0.152462
H209  H     H_    0.705380 0.931849 0.121896 0.104309
C277  C     C_3   0.625213 0.887545 0.147075 -0.270404
H210  H     H_    0.574885 0.888509 0.141547 0.253518
H211  H     H_    0.643034 0.839999 0.140626 0.235216
C278  C     C_3   0.638563 0.903812 0.195410 -0.962762
H212  H     H_    0.688504 0.898155 0.202394 0.267273
H213  H     H_    0.613507 0.872521 0.217346 0.280649
H214  H     H_    0.623225 0.951907 0.202860 0.279537
O107  O     O_3   0.969041 0.365519 0.087048 -0.621077
C279  C     C_3   0.023365 0.343281 0.108784 0.040977
H215  H     H_    0.056850 0.380276 0.108441 0.162657
H216  H     H_    0.047102 0.303521 0.091629 0.121744
C280  C     C_3   0.009720 0.326299 0.157079 -0.377548
H217  H     H_    0.988007 0.366634 0.174534 0.250248
H218  H     H_    0.977408 0.288074 0.157633 0.198773
C281  C     C_3   0.068155 0.305708 0.181665 -0.910247
H219  H     H_    0.088865 0.263586 0.165872 0.252117
H220  H     H_    0.057144 0.295411 0.216847 0.274525
H221  H     H_    0.101820 0.342634 0.181056 0.293755
O108  O     O_3   0.359315 0.078650 0.074020 -0.599927
C282  C     C_3   0.338736 0.048575 0.112772 0.056524
H222  H     H_    0.363681 0.003409 0.115137 0.152924
H223  H     H_    0.288764 0.038409 0.112769 0.108637
C283  C     C_3   0.352804 0.087241 0.153961 -0.311850
H224  H     H_    0.403204 0.091176 0.157459 0.251117
H225  H     H_    0.331944 0.134223 0.150033 0.229279
C284  C     C_3   0.327194 0.059009 0.196101 -0.906012
H226  H     H_    0.276230 0.060237 0.194815 0.263865
H227  H     H_    0.341923 0.085585 0.225652 0.273964
H228  H     H_    0.344182 0.010622 0.199688 0.280466
O109  O     O_3   0.078320 0.359855 0.923436 -0.613727
C285  C     C_3   0.063323 0.341458 0.879360 0.076428
H229  H     H_    0.015212 0.356632 0.872576 0.153617
H230  H     H_    0.065309 0.290556 0.873402 0.110449
C286  C     C_3   0.105787 0.371534 0.846037 -0.301636
H231  H     H_    0.099675 0.422273 0.848138 0.244823
H232  H     H_    0.154323 0.359284 0.854244 0.246325
C287  C     C_3   0.093061 0.350366 0.798493 -0.921845
H233  H     H_    0.104338 0.300372 0.794959 0.268791
H234  H     H_    0.121844 0.375752 0.774949 0.261010
H235  H     H_    0.044144 0.359197 0.789679 0.279530
O110  O     O_3   0.635544 0.081180 0.926224 -0.620415
C288  C     C_3   0.650458 0.086837 0.880401 0.102184
H236  H     H_    0.652028 0.040337 0.865277 0.171596
H237  H     H_    0.696358 0.106012 0.873695 0.113850
C289  C     C_3   0.601248 0.127054 0.856907 -0.293544
H238  H     H_    0.556146 0.105681 0.859188 0.240744
H239  H     H_    0.596680 0.172528 0.873592 0.244434
C290  C     C_3   0.616869 0.136482 0.807978 -0.959674
H240  H     H_    0.660292 0.161233 0.805101 0.260526
H241  H     H_    0.579519 0.164289 0.791672 0.262321
H242  H     H_    0.621968 0.091599 0.790435 0.285247
O111  O     O_3   0.911817 0.635428 0.928371 -0.618480
C291  C     C_3   0.906409 0.640321 0.881375 0.101582
H243  H     H_    0.952109 0.629436 0.866743 0.150104
H244  H     H_    0.892508 0.687130 0.868924 0.111787
C292  C     C_3   0.860579 0.594117 0.864138 -0.264184
H245  H     H_    0.875171 0.547001 0.874318 0.248796
H246  H     H_    0.814672 0.604005 0.878774 0.247185
C293  C     C_3   0.854901 0.596313 0.813636 -0.975688
H247  H     H_    0.835172 0.641744 0.803047 0.263675
H248  H     H_    0.824111 0.559860 0.802229 0.286411
H249  H     H_    0.900459 0.588461 0.797826 0.279671
O112  O     O_3   0.364633 0.917298 0.926167 -0.620490
C294  C     C_3   0.350620 0.910856 0.880153 0.104970
H250  H     H_    0.349298 0.957103 0.864962 0.171915
H251  H     H_    0.304890 0.891508 0.872816 0.114776
C295  C     C_3   0.400338 0.870321 0.857423 -0.292877
H252  H     H_    0.445404 0.891688 0.860505 0.241258
H253  H     H_    0.404385 0.825005 0.874095 0.244435
C296  C     C_3   0.385909 0.860384 0.808225 -0.960483
H254  H     H_    0.342583 0.835573 0.804578 0.260242
H255  H     H_    0.423658 0.832424 0.792491 0.263312
H256  H     H_    0.381213 0.905079 0.790686 0.284475
O113  O     O_3   0.607765 0.360687 0.546860 -0.608133
C297  C     C_3   0.630339 0.384077 0.588078 0.154824
H257  H     H_    0.648598 0.429994 0.582144 0.158651
H258  H     H_    0.671514 0.358519 0.600696 0.121512
C298  C     C_3   0.580147 0.390733 0.623900 -0.389138
H259  H     H_    0.545627 0.426840 0.613860 0.236645
H260  H     H_    0.556407 0.346833 0.627995 0.200092
C299  C     C_3   0.607280 0.408687 0.668757 -0.967442
H261  H     H_    0.639325 0.371545 0.680934 0.275324
H262  H     H_    0.569820 0.415882 0.693413 0.269475
H263  H     H_    0.632384 0.451924 0.665756 0.269062
O114  O     O_3   0.376981 0.386701 0.542260 -0.632131
C300  C     C_3   0.391730 0.365961 0.586262 0.118939
H264  H     H_    0.439581 0.346917 0.586476 0.157015
H265  H     H_    0.364844 0.326770 0.597664 0.107950
C301  C     C_3   0.386830 0.418600 0.620390 -0.356997
H266  H     H_    0.421520 0.453107 0.612917 0.240191
H267  H     H_    0.340410 0.441414 0.618820 0.203363
C302  C     C_3   0.398240 0.394897 0.667530 -0.995715
H268  H     H_    0.363017 0.361609 0.676665 0.270025
H269  H     H_    0.395570 0.433956 0.691442 0.273875
H270  H     H_    0.444558 0.372070 0.670026 0.267332
O115  O     O_3   0.391460 0.636844 0.548514 -0.607759
C303  C     C_3   0.371453 0.614298 0.590469 0.149885
H271  H     H_    0.353569 0.567910 0.585399 0.159255
H272  H     H_    0.330832 0.639752 0.604087 0.118735
C304  C     C_3   0.423637 0.609459 0.625001 -0.384569
H273  H     H_    0.458417 0.574007 0.614195 0.237611
H274  H     H_    0.446351 0.654112 0.628379 0.199893
C305  C     C_3   0.399483 0.591408 0.670521 -0.978011
H275  H     H_    0.366804 0.627658 0.683326 0.273696
H276  H     H_    0.438356 0.586021 0.694317 0.271105
H277  H     H_    0.375888 0.547148 0.668229 0.267131
O116  O     O_3   0.621918 0.611308 0.544421 -0.622091
C306  C     C_3   0.608974 0.631787 0.588793 0.114530
H278  H     H_    0.561579 0.652138 0.589579 0.156904
H279  H     H_    0.637740 0.669575 0.600718 0.108174
C307  C     C_3   0.613105 0.578372 0.621886 -0.354075
H280  H     H_    0.577403 0.544961 0.613923 0.239165
H281  H     H_    0.658969 0.554515 0.619580 0.204409
C308  C     C_3   0.603108 0.601228 0.669518 -0.994364
H282  H     H_    0.639470 0.633202 0.679158 0.272510
H283  H     H_    0.604971 0.561590 0.692670 0.274791
H284  H     H_    0.557477 0.625323 0.672631 0.267893
O117  O     O_3   0.605409 0.619188 0.448563 -0.614075
C309  C     C_3   0.621153 0.605358 0.403398 0.126601
H285  H     H_    0.647291 0.560582 0.402795 0.166686
H286  H     H_    0.651959 0.638462 0.387569 0.125660
C310  C     C_3   0.563522 0.599796 0.374553 -0.381508
H287  H     H_    0.536508 0.560883 0.386308 0.234730
H288  H     H_    0.534731 0.642891 0.377101 0.212869
C311  C     C_3   0.579981 0.588083 0.325846 -0.915626
H289  H     H_    0.604904 0.627421 0.312262 0.283635
H290  H     H_    0.537377 0.582591 0.306115 0.269454
H291  H     H_    0.609177 0.545381 0.322542 0.276090
O118  O     O_3   0.371093 0.611608 0.460516 -0.609901
C312  C     C_3   0.382439 0.635098 0.417109 0.116940
H292  H     H_    0.428976 0.653855 0.416754 0.161879
H293  H     H_    0.351987 0.674985 0.407657 0.117747
C313  C     C_3   0.379584 0.584651 0.381375 -0.393917
H294  H     H_    0.417415 0.549958 0.386801 0.234185
H295  H     H_    0.335136 0.561457 0.383436 0.216457
C314  C     C_3   0.386002 0.611329 0.334806 -0.902620
H296  H     H_    0.347431 0.644715 0.327768 0.276840
H297  H     H_    0.385095 0.573785 0.309700 0.274433
H298  H     H_    0.430130 0.634838 0.331785 0.269141
O119  O     O_3   0.399356 0.383434 0.442488 -0.615108
C315  C     C_3   0.387848 0.396954 0.396556 0.128154
H299  H     H_    0.360028 0.440694 0.394947 0.163496
H300  H     H_    0.360878 0.362515 0.378233 0.136397
C316  C     C_3   0.447779 0.405004 0.371190 -0.372649
H301  H     H_    0.472558 0.444125 0.385356 0.231022
H302  H     H_    0.477090 0.362388 0.374159 0.218572
C317  C     C_3   0.435731 0.417996 0.322005 -0.920639
H303  H     H_    0.413833 0.378250 0.305956 0.289263
H304  H     H_    0.479811 0.425896 0.304923 0.269920
H305  H     H_    0.405297 0.459705 0.318180 0.272050
O120  O     O_3   0.629305 0.388141 0.460283 -0.608322
C318  C     C_3   0.618977 0.365703 0.416272 0.121276
H306  H     H_    0.571591 0.349342 0.414356 0.162431
H307  H     H_    0.647907 0.324353 0.407481 0.121056
C319  C     C_3   0.626087 0.416071 0.381191 -0.405466
H308  H     H_    0.588758 0.451722 0.385153 0.232136
H309  H     H_    0.670827 0.438232 0.385494 0.215773
C320  C     C_3   0.623061 0.389616 0.334140 -0.894077
H310  H     H_    0.662018 0.356136 0.328467 0.273887
H311  H     H_    0.625964 0.427295 0.309538 0.275835
H312  H     H_    0.579209 0.366215 0.328924 0.273869
O121  O     O_3   0.109443 0.863640 0.047750 -0.609424
C321  C     C_3   0.130165 0.886421 0.089690 0.149504
H313  H     H_    0.147879 0.932821 0.084762 0.158706
H314  H     H_    0.171110 0.861147 0.102957 0.122386
C322  C     C_3   0.078572 0.891303 0.124490 -0.386902
H315  H     H_    0.044135 0.927385 0.114321 0.235798
H316  H     H_    0.055247 0.846959 0.127242 0.200879
C323  C     C_3   0.103659 0.908133 0.170217 -0.969274
H317  H     H_    0.135584 0.870939 0.182468 0.274034
H318  H     H_    0.065158 0.914176 0.194144 0.270460
H319  H     H_    0.128392 0.951733 0.168499 0.269997
O122  O     O_3   0.879142 0.889989 0.045132 -0.620448
C324  C     C_3   0.892393 0.869443 0.089358 0.112433
H320  H     H_    0.938515 0.846072 0.089394 0.156366
H321  H     H_    0.861417 0.834243 0.102160 0.106735
C325  C     C_3   0.892992 0.923532 0.122182 -0.346521
H322  H     H_    0.929825 0.954926 0.113062 0.238436
H323  H     H_    0.848171 0.949543 0.120930 0.204852
C326  C     C_3   0.904715 0.901160 0.169637 -0.996679
H324  H     H_    0.867228 0.871509 0.180521 0.272582
H325  H     H_    0.906525 0.941195 0.192576 0.273931
H326  H     H_    0.949174 0.874648 0.171604 0.267866
O123  O     O_3   0.891926 0.135679 0.049404 -0.607473
C327  C     C_3   0.873901 0.114089 0.092127 0.148810
H327  H     H_    0.856967 0.067101 0.088239 0.160697
H328  H     H_    0.833333 0.139328 0.106076 0.122304
C328  C     C_3   0.927280 0.111533 0.125766 -0.390121
H329  H     H_    0.961908 0.075702 0.115349 0.235937
H330  H     H_    0.949767 0.156475 0.127399 0.200759
C329  C     C_3   0.904842 0.095926 0.172257 -0.972157
H331  H     H_    0.872639 0.132850 0.184689 0.272740
H332  H     H_    0.944562 0.091752 0.195399 0.270257
H333  H     H_    0.881171 0.051633 0.171699 0.270088
O124  O     O_3   0.122117 0.111191 0.044575 -0.621127
C330  C     C_3   0.109187 0.131681 0.088937 0.113980
H334  H     H_    0.061576 0.151429 0.089830 0.157016
H335  H     H_    0.137479 0.169968 0.100614 0.108749
C331  C     C_3   0.114197 0.078466 0.122176 -0.358383
H336  H     H_    0.078782 0.044631 0.114493 0.237608
H337  H     H_    0.160238 0.055018 0.119720 0.204046
C332  C     C_3   0.104500 0.101552 0.169783 -0.989871
H338  H     H_    0.140784 0.133763 0.179138 0.272471
H339  H     H_    0.106750 0.062079 0.193070 0.274707
H340  H     H_    0.058816 0.125482 0.173036 0.267974
O125  O     O_3   0.106328 0.120125 0.949579 -0.614611
C333  C     C_3   0.121794 0.106339 0.904357 0.129556
H341  H     H_    0.145771 0.060452 0.903398 0.166626
H342  H     H_    0.154645 0.137936 0.889163 0.127462
C334  C     C_3   0.064229 0.104106 0.875046 -0.387589
H343  H     H_    0.035760 0.065654 0.885715 0.235061
H344  H     H_    0.036807 0.147970 0.878379 0.211002
C335  C     C_3   0.080922 0.093993 0.826207 -0.910972
H345  H     H_    0.107403 0.132976 0.813738 0.280926
H346  H     H_    0.038366 0.090902 0.806063 0.269375
H347  H     H_    0.108695 0.050499 0.822099 0.277082
O126  O     O_3   0.870672 0.111719 0.961148 -0.611952
C336  C     C_3   0.881650 0.134681 0.917536 0.114618
H348  H     H_    0.927954 0.153995 0.917003 0.161305
H349  H     H_    0.850652 0.174021 0.907790 0.117483
C337  C     C_3   0.879395 0.083609 0.882211 -0.391284
H350  H     H_    0.917776 0.049566 0.887744 0.234967
H351  H     H_    0.835351 0.059742 0.884594 0.215994
C338  C     C_3   0.885225 0.109611 0.835399 -0.903212
H352  H     H_    0.845973 0.142052 0.828071 0.276859
H353  H     H_    0.885158 0.071533 0.810671 0.275595
H354  H     H_    0.928813 0.134024 0.832149 0.268549
O127  O     O_3   0.894605 0.880581 0.948471 -0.615768
C339  C     C_3   0.878243 0.893614 0.903343 0.125887
H355  H     H_    0.852094 0.938382 0.902729 0.166636
H356  H     H_    0.847272 0.860188 0.887680 0.125358
C340  C     C_3   0.935503 0.898705 0.874337 -0.381804
H357  H     H_    0.962765 0.937681 0.886056 0.234623
H358  H     H_    0.964237 0.855579 0.876769 0.214483
C341  C     C_3   0.918384 0.909881 0.825693 -0.908179
H359  H     H_    0.893131 0.870468 0.812185 0.283715
H360  H     H_    0.960719 0.914984 0.805805 0.269063
H361  H     H_    0.889271 0.952635 0.822515 0.276168
O128  O     O_3   0.128752 0.888430 0.959843 -0.610996
C342  C     C_3   0.117457 0.865968 0.915942 0.117739
H362  H     H_    0.071078 0.846813 0.915140 0.162977
H363  H     H_    0.148341 0.826670 0.905758 0.119402
C343  C     C_3   0.119622 0.917414 0.881259 -0.396894
H364  H     H_    0.081312 0.951464 0.887135 0.234273
H365  H     H_    0.163720 0.941174 0.884032 0.217126
C344  C     C_3   0.113566 0.891952 0.834105 -0.893206
H366  H     H_    0.152744 0.859541 0.826446 0.277692
H367  H     H_    0.113593 0.930316 0.809876 0.274458
H368  H     H_    0.069930 0.867642 0.830434 0.270538

loop_
_geom_bond_atom_site_label_1
_geom_bond_atom_site_label_2
_geom_bond_distance
_ccdc_geom_bond_type
C143  O127  1.382625 S    
O108  C282  1.420247 S    
C267  H188  1.107761 S    
C220  H78   1.110452 S    
C257  H165  1.108688 S    
C137  O121  1.394989 S    
C224  H86   1.111136 S    
O123  C327  1.430024 S    
O43   C199  1.279175 A    
C239  H121  1.111042 S    
C319  C320  1.525777 S    
C344  H366  1.111047 S    
C166  C186  1.423008 A    
O33   C193  1.279064 A    
O45   Zn12  2.030838 S    
C123  C139  1.416306 A    
C260  H170  1.111327 S    
C294  H251  1.117672 S    
C301  C302  1.526041 S    
C121  C137  1.417441 A    
C154  C182  1.431220 A    
C325  H322  1.109384 S    
C46   C70   1.413749 A    
C216  H69   1.116548 S    
C341  H360  1.110329 S    
C260  H172  1.108772 S    
C314  H296  1.111053 S    
C126  H30   1.080464 S    
C115  H19   1.077451 S    
C322  C323  1.525151 S    
O41   C197  1.281304 A    
C263  H177  1.110764 S    
C130  C146  1.441821 A    
O32   C16   1.282041 A    
C254  H158  1.108022 S    
C113  H17   1.076519 S    
C234  H110  1.110448 S    
C334  H344  1.111377 S    
C297  H257  1.104664 S    
O94   C240  1.418896 S    
C122  H26   1.079649 S    
C221  H81   1.110177 S    
C84   C164  1.427897 A    
O95   C243  1.418610 S    
C117  H21   1.080119 S    
O98   C252  1.420370 S    
C244  H134  1.110624 S    
C104  C120  1.392209 A    
C304  C305  1.525258 S    
C331  H337  1.111423 S    
C264  H181  1.117902 S    
C17   C43   1.391883 A    
O3    C3    1.277093 A    
N12   O71   1.301115 A    
C88   C104  1.402417 A    
C76   N12   1.436221 S    
C19   C33   1.386564 A    
C174  C190  1.426590 A    
C91   O107  1.383570 S    
C32   C54   1.392593 A    
C82   C98   1.389392 A    
C129  O113  1.395539 S    
C54   C64   1.416692 A    
O121  C321  1.429910 S    
C23   C45   1.393294 A    
C290  H242  1.109518 S    
O33   Zn9   2.033037 S    
C242  H129  1.110450 S    
O37   C193  1.278295 A    
C180  C195  1.429930 S    
C259  H169  1.109722 S    
C86   C102  1.402672 A    
C337  C338  1.525759 S    
O106  C276  1.417912 S    
C204  H41   1.115773 S    
C19   H3    1.082507 S    
C315  H300  1.112369 S    
C258  C259  1.527996 S    
C41   C65   1.410281 A    
O40   C194  1.282932 A    
C245  H136  1.110490 S    
C18   H2    1.082610 S    
C331  C332  1.526201 S    
C79   N15   1.435776 S    
N11   O69   1.301158 A    
C291  C292  1.531144 S    
C339  H355  1.110320 S    
C222  C223  1.534936 S    
C330  H335  1.109920 S    
C286  C287  1.526425 S    
O17   C9    1.289574 A    
C22   H6    1.081330 S    
C75   N11   1.435600 S    
C201  H33   1.110757 S    
C267  H187  1.104628 S    
C228  C229  1.532284 S    
C273  C274  1.531704 S    
C318  H307  1.110548 S    
C333  H341  1.109853 S    
O113  C297  1.429561 S    
C89   C169  1.420593 A    
C302  H270  1.111140 S    
C201  C202  1.540293 S    
C243  C244  1.529701 S    
C324  C325  1.532127 S    
C259  C260  1.523492 S    
C81   O97   1.382756 S    
C264  C265  1.531677 S    
C213  H62   1.117547 S    
C338  H352  1.111050 S    
C230  H101  1.110395 S    
C317  H303  1.110759 S    
C146  C178  1.431297 A    
C86   O102  1.387114 S    
C278  H214  1.108625 S    
C209  H52   1.110571 S    
O111  C291  1.420575 S    
C251  H151  1.108818 S    
C226  C227  1.525565 S    
O82   C204  1.419264 S    
C311  H290  1.110386 S    
C261  H173  1.108181 S    
C94   O110  1.387593 S    
C326  H326  1.110904 S    
C81   C97   1.383994 A    
O122  C324  1.429124 S    
C202  C203  1.525780 S    
C273  H202  1.115878 S    
C52   C76   1.410680 A    
C299  H263  1.110132 S    
C84   C100  1.393401 A    
O47   Zn12  2.032953 S    
C85   C101  1.401461 A    
N2    O51   1.301070 A    
C219  H76   1.117337 S    
O26   Zn6   2.022767 S    
C13   C36   1.450698 S    
C84   O100  1.382528 S    
C214  H63   1.111699 S    
C224  H88   1.110332 S    
C321  H314  1.105286 S    
C65   C78   1.403713 A    
C213  C214  1.529748 S    
C329  H331  1.111031 S    
C105  C121  1.389456 A    
C282  H222  1.107766 S    
O27   C13   1.290020 A    
C239  H123  1.110372 S    
O8    Zn2   2.045324 S    
C67   C80   1.403717 A    
C280  C281  1.524689 S    
C344  H368  1.110676 S    
C157  C173  1.409374 A    
C227  H93   1.110952 S    
O31   C15   1.286133 A    
C236  H116  1.110896 S    
C25   C51   1.392141 A    
C56   C64   1.416559 A    
C12   C37   1.424995 S    
C140  O124  1.386534 S    
C122  C138  1.399747 A    
C49   C61   1.417330 A    
C269  H191  1.110875 S    
C325  C326  1.526447 S    
C133  O117  1.382999 S    
C15   C34   1.433782 S    
C136  O120  1.386894 S    
C287  H233  1.110883 S    
C29   C55   1.392213 A    
C271  C272  1.526443 S    
C319  H309  1.111157 S    
C210  H54   1.110384 S    
C277  C278  1.522727 S    
C249  H145  1.108197 S    
C31   C53   1.392254 A    
C308  H284  1.111099 S    
C276  H208  1.109699 S    
C94   C174  1.432057 A    
C263  H179  1.109038 S    
C111  O89   1.396511 S    
C265  H182  1.106117 S    
O18   Zn2   2.022767 S    
C283  H224  1.110062 S    
O48   C198  1.281111 A    
C100  O88   1.395577 S    
C144  O128  1.387288 S    
C310  H288  1.111183 S    
C288  H236  1.106487 S    
O36   C196  1.275507 A    
O9    C5    1.276518 A    
C237  H117  1.111572 S    
C89   C105  1.384326 A    
C167  C185  1.443364 A    
C95   C111  1.402765 A    
O11   C7    1.279806 A    
C241  H126  1.111471 S    
O19   Zn3   2.022142 S    
C100  C116  1.394171 A    
C208  C209  1.525713 S    
C271  H197  1.108335 S    
C50   C74   1.410814 A    
C343  H364  1.109528 S    
C225  H90   1.114726 S    
C246  H139  1.115444 S    
C285  H229  1.106540 S    
N15   O77   1.301136 A    
C140  C156  1.440957 A    
C270  C271  1.531621 S    
C203  H37   1.111333 S    
C253  H154  1.110890 S    
C238  H120  1.110628 S    
C235  H112  1.111567 S    
C81   C161  1.421242 A    
C206  H44   1.111137 S    
C30   H14   1.081260 S    
C299  H261  1.110990 S    
O41   Zn11  2.033037 S    
O38   C196  1.288491 A    
C211  H56   1.111571 S    
C181  C200  1.437117 S    
N8    O64   1.301297 A    
C335  H346  1.110302 S    
C119  C135  1.383198 A    
C176  C192  1.425059 A    
C151  C167  1.429399 A    
O105  C273  1.420392 S    
O26   C14   1.284772 A    
C131  C147  1.450027 A    
C218  H72   1.110162 S    
C135  O119  1.383780 S    
C292  H245  1.106261 S    
C110  C126  1.391344 A    
C125  C141  1.402917 A    
C53   C63   1.416701 A    
C249  C250  1.533410 S    
C31   C39   1.391530 A    
C209  H51   1.111100 S    
O125  C333  1.428429 S    
C328  H330  1.110960 S    
O21   Zn1   2.022191 S    
O89   C225  1.417322 S    
C277  H210  1.108788 S    
C149  C165  1.413807 A    
C98   C114  1.395088 A    
C240  H124  1.110722 S    
O23   C11   1.288743 A    
C143  C159  1.442725 A    
C327  H327  1.105460 S    
C158  C182  1.424922 A    
C134  C150  1.440777 A    
C18   C44   1.390948 A    
C306  H279  1.110030 S    
C80   N16   1.438139 S    
O100  C258  1.419437 S    
C269  H192  1.109491 S    
C298  H260  1.110815 S    
C342  H363  1.110753 S    
O107  C279  1.420987 S    
C94   C110  1.403326 A    
C69   N5    1.436089 S    
C87   O103  1.393905 S    
C279  H215  1.106863 S    
O13   C7    1.294337 A    
C28   H12   1.082798 S    
C17   C33   1.385874 A    
C155  C171  1.401607 A    
C336  H349  1.110512 S    
O84   C210  1.419104 S    
C50   C62   1.418706 A    
C247  H141  1.109227 S    
C21   C47   1.391826 A    
C128  H32   1.080553 S    
O39   C195  1.276810 A    
C95   C175  1.432017 A    
C256  H161  1.111418 S    
C300  C301  1.534422 S    
C51   C75   1.410225 A    
O7    C1    1.319916 A    
C212  H60   1.110895 S    
O28   C14   1.285797 A    
C159  C181  1.442966 A    
O29   C15   1.284956 A    
C320  H310  1.111112 S    
O30   C16   1.281496 A    
C227  H95   1.110782 S    
C209  H53   1.110790 S    
O29   Zn5   2.022191 S    
O34   C194  1.278141 A    
C205  C206  1.525976 S    
C10   C39   1.441114 S    
C312  H292  1.107826 S    
C124  H28   1.079574 S    
C293  H248  1.110420 S    
C154  C170  1.409613 A    
C175  C189  1.418436 A    
C53   C77   1.412203 A    
C51   C61   1.417335 A    
C267  C268  1.548899 S    
C236  H114  1.111091 S    
C137  C153  1.449769 A    
C275  H206  1.110266 S    
C14   C35   1.439224 S    
N6    O60   1.301292 A    
C322  H315  1.109244 S    
O16   Zn6   2.045324 S    
C280  H218  1.110114 S    
O24   C12   1.281638 A    
C99   O85   1.387572 S    
C276  C277  1.528171 S    
N4    O56   1.301027 A    
C233  H107  1.111189 S    
C92   C108  1.393453 A    
C265  C266  1.526467 S    
C93   C109  1.396700 A    
N14   O75   1.301124 A    
C217  H71   1.108292 S    
C337  H351  1.111328 S    
C288  C289  1.531847 S    
C6    C190  1.455468 S    
C123  H27   1.078282 S    
C316  C317  1.525929 S    
C26   C52   1.391536 A    
C324  H320  1.109789 S    
O45   C197  1.274497 A    
C132  C148  1.440916 A    
C241  C242  1.526691 S    
C229  H98   1.111563 S    
C248  H143  1.110422 S    
O15   Zn7   2.013639 S    
C160  C176  1.408047 A    
C30   C56   1.392208 A    
N1    O49   1.301189 A    
C45   C59   1.417780 A    
C284  H227  1.110326 S    
C138  C154  1.441346 A    
C320  H311  1.110130 S    
C317  H305  1.110255 S    
C28   C50   1.394244 A    
C270  H194  1.107097 S    
C70   C73   1.403582 A    
C253  C254  1.525738 S    
C83   C99   1.384337 A    
C301  H266  1.109617 S    
C296  H256  1.109527 S    
C313  H295  1.111287 S    
C252  H152  1.107156 S    
C313  C314  1.526037 S    
C256  C257  1.524628 S    
C135  C151  1.445086 A    
C272  H200  1.109403 S    
C338  H353  1.110135 S    
C182  C197  1.429023 S    
C69   C74   1.402476 A    
C77   N13   1.436875 S    
C262  H176  1.108157 S    
C340  H358  1.111231 S    
C303  H272  1.105335 S    
O104  C270  1.422199 S    
O32   Zn6   2.019149 S    
N7    O62   1.301082 A    
C107  C123  1.390037 A    
C223  H84   1.111505 S    
C243  H131  1.111559 S    
C29   C39   1.390486 A    
C134  O118  1.387447 S    
C281  H220  1.110282 S    
C207  H48   1.114450 S    
C290  H240  1.110378 S    
C274  C275  1.524569 S    
C18   C34   1.388725 A    
C302  H269  1.110081 S    
C165  C187  1.416771 A    
C210  C211  1.532246 S    
C152  C180  1.426818 A    
C287  H235  1.108217 S    
C321  H313  1.105123 S    
C327  C328  1.538767 S    
C251  H150  1.110272 S    
C231  H103  1.110824 S    
N13   O74   1.301094 A    
C124  C140  1.403252 A    
C323  H318  1.110384 S    
O47   C199  1.277060 A    
O119  C315  1.431732 S    
C263  H178  1.110427 S    
C172  C192  1.419166 A    
N10   O67   1.301105 A    
C52   C62   1.417949 A    
C152  C168  1.406787 A    
C305  H277  1.110429 S    
O46   Zn12  2.026113 S    
O12   C8    1.281306 A    
C160  C184  1.427165 A    
C305  H276  1.110423 S    
C279  C280  1.531624 S    
C70   N6    1.437932 S    
C150  C178  1.429469 A    
C266  H186  1.109470 S    
C93   C173  1.423934 A    
C146  C162  1.405205 A    
C281  H221  1.108582 S    
C325  H323  1.111463 S    
C272  H198  1.110472 S    
C282  C283  1.529707 S    
C32   C40   1.394140 A    
C91   C107  1.385078 A    
C216  H68   1.110901 S    
C342  C343  1.535054 S    
C54   C78   1.413601 A    
C307  H280  1.109604 S    
C23   C35   1.390517 A    
C150  C166  1.408919 A    
C109  O91   1.398320 S    
C88   O104  1.387085 S    
C60   C61   1.393901 A    
C322  H316  1.110914 S    
C277  H211  1.107788 S    
C206  H46   1.110882 S    
C254  H157  1.109633 S    
C7    C191  1.449620 S    
C334  H343  1.109319 S    
C268  C269  1.526472 S    
C297  H258  1.105288 S    
N5    O58   1.301066 A    
C106  C122  1.391778 A    
C308  H282  1.111038 S    
C320  H312  1.110294 S    
C1    C185  1.457911 S    
O91   C231  1.416074 S    
C173  C191  1.411420 A    
C83   C163  1.419780 A    
C302  H268  1.111051 S    
C110  O90   1.393068 S    
C223  C224  1.526206 S    
C101  C117  1.393207 A    
O101  C261  1.420176 S    
C312  C313  1.534403 S    
C85   C165  1.431147 A    
O99   C255  1.420544 S    
C304  H274  1.110994 S    
N12   O72   1.301030 A    
O36   Zn9   2.029608 S    
C242  H128  1.111090 S    
C96   C176  1.431550 A    
C108  O96   1.395038 S    
C138  O122  1.385602 S    
C290  H241  1.110392 S    
C42   C58   1.417742 A    
C321  C322  1.538319 S    
C294  H250  1.106288 S    
O22   C12   1.281837 A    
O92   C234  1.419075 S    
C295  H253  1.108542 S    
C204  H40   1.110440 S    
C316  H301  1.107750 S    
C258  H167  1.119796 S    
O6    Zn4   2.045325 S    
C309  H285  1.110258 S    
O10   C6    1.283829 A    
C11   C38   1.433922 S    
C90   C106  1.397512 A    
C151  C177  1.453760 A    
O46   C200  1.282310 A    
C148  C164  1.406827 A    
C229  C230  1.526080 S    
C255  H159  1.107202 S    
C222  H83   1.115407 S    
C65   N1    1.435630 S    
C240  C241  1.535548 S    
C45   C69   1.411422 A    
C286  H232  1.108963 S    
O97   C249  1.419160 S    
C112  O92   1.393099 S    
C289  H238  1.105832 S    
C228  H97   1.115769 S    
C47   C71   1.411039 A    
C333  H342  1.111658 S    
C58   C63   1.394662 A    
C141  O125  1.383901 S    
C252  C253  1.530125 S    
C305  H275  1.111036 S    
O90   C228  1.419538 S    
C114  H18   1.080497 S    
C132  O116  1.386477 S    
C257  H163  1.111290 S    
C129  C145  1.451613 A    
N9    O66   1.301121 A    
C317  H304  1.110256 S    
C44   C58   1.416858 A    
C344  H367  1.110193 S    
O124  C330  1.428721 S    
O44   Zn11  2.029608 S    
C118  H22   1.080462 S    
O31   Zn7   2.020039 S    
C222  H82   1.110930 S    
C133  C149  1.442970 A    
O126  C336  1.428454 S    
C226  H92   1.108605 S    
C316  H302  1.110124 S    
C92   C172  1.428131 A    
C284  H226  1.111074 S    
C234  C235  1.532253 S    
C261  H174  1.118130 S    
O83   C207  1.416694 S    
C326  H325  1.109879 S    
C170  C190  1.424375 A    
C71   C76   1.401136 A    
C291  H243  1.107284 S    
C330  C331  1.533238 S    
C46   C60   1.416848 A    
C108  C124  1.393825 A    
C93   O109  1.382602 S    
C2    C186  1.454458 S    
C333  C334  1.533248 S    
N2    O52   1.300912 A    
C232  H105  1.111508 S    
C103  O81   1.402315 S    
O21   C11   1.282316 A    
C220  C221  1.526166 S    
C72   N8    1.438092 S    
C224  H87   1.110435 S    
C68   C79   1.401605 A    
C22   C36   1.394081 A    
C153  C169  1.400187 A    
C217  C218  1.524846 S    
C85   O101  1.385368 S    
C24   C46   1.392632 A    
C96   C112  1.403095 A    
C227  H94   1.110573 S    
C243  H132  1.117659 S    
C274  H203  1.111492 S    
O13   Zn5   2.013639 S    
C236  H115  1.110374 S    
C28   C38   1.388407 A    
C26   C38   1.388568 A    
C294  C295  1.531745 S    
C212  H59   1.110383 S    
C261  C262  1.531587 S    
C89   O105  1.383826 S    
C30   C40   1.394142 A    
C230  H100  1.111165 S    
C218  H74   1.109741 S    
C25   C37   1.386437 A    
O86   C216  1.417315 S    
C301  H267  1.111500 S    
C216  C217  1.532785 S    
O23   Zn3   2.020039 S    
C328  H329  1.109414 S    
O3    Zn3   2.041428 S    
C341  H359  1.110819 S    
C217  H70   1.111514 S    
C102  C118  1.391860 A    
C249  H146  1.116442 S    
C90   C170  1.431697 A    
C343  C344  1.525727 S    
C262  H175  1.107064 S    
C21   C35   1.389619 A    
C266  H184  1.110432 S    
C239  H122  1.110490 S    
O102  C264  1.422375 S    
C329  H333  1.110150 S    
N10   O68   1.300987 A    
C334  C335  1.525585 S    
C283  H225  1.109886 S    
N3    O53   1.301190 A    
C335  H347  1.110838 S    
C147  C179  1.435784 A    
C310  H287  1.108994 S    
O28   Zn8   2.019162 S    
O25   C13   1.289757 A    
C27   C37   1.385886 A    
C164  C188  1.419617 A    
C237  H118  1.117587 S    
C330  H334  1.108911 S    
C49   C73   1.410015 A    
C149  C179  1.443676 A    
C244  C245  1.526276 S    
C292  C293  1.522680 S    
C241  H127  1.109118 S    
C331  H336  1.109644 S    
C278  H213  1.109282 S    
O8    C4    1.291908 A    
C343  H365  1.111299 S    
C225  C226  1.535013 S    
C161  C185  1.403658 A    
C48   C60   1.416711 A    
C285  H230  1.120334 S    
C118  C134  1.400571 A    
C48   C72   1.413630 A    
C339  H356  1.112606 S    
C270  H195  1.118119 S    
C142  O126  1.387592 S    
C314  H297  1.109820 S    
C235  H113  1.109944 S    
C66   C77   1.402405 A    
C221  H79   1.111011 S    
C242  H130  1.110662 S    
C283  C284  1.526131 S    
C74   N10   1.435895 S    
C259  H168  1.111091 S    
C211  H57   1.109893 S    
C158  C174  1.406688 A    
C342  H362  1.108212 S    
C204  C205  1.532378 S    
O11   Zn7   2.041428 S    
C315  H299  1.110479 S    
C262  C263  1.522994 S    
C237  C238  1.529661 S    
N15   O78   1.301022 A    
O85   C213  1.418399 S    
O44   C200  1.278702 A    
C228  H96   1.110331 S    
C4    C188  1.455473 S    
C245  H135  1.110969 S    
C232  H106  1.109259 S    
O96   C246  1.418058 S    
C271  H196  1.106154 S    
O1    C1    1.262861 A    
C16   C33   1.425148 S    
C255  C256  1.532095 S    
C19   C41   1.392452 A    
C153  C181  1.435529 A    
C215  H65   1.111046 S    
C246  C247  1.534606 S    
C341  H361  1.110755 S    
C66   N2    1.435422 S    
C292  H246  1.107702 S    
O38   Zn10  2.026113 S    
C25   H9    1.082527 S    
C280  H217  1.111413 S    
C207  C208  1.535799 S    
C119  H23   1.078580 S    
C128  C144  1.399624 A    
O5    C3    1.298038 A    
C115  C131  1.417479 A    
C238  C239  1.526297 S    
C235  C236  1.525753 S    
C265  H183  1.108513 S    
C55   C79   1.411366 A    
C211  C212  1.525755 S    
C327  H328  1.105947 S    
C213  H61   1.111586 S    
N8    O63   1.301191 A    
C230  H102  1.110890 S    
O7    Zn3   2.013639 S    
O43   Zn11  2.030914 S    
O114  C300  1.430702 S    
C31   H15   1.082059 S    
C269  H193  1.110908 S    
O14   C6    1.290819 A    
C298  H259  1.109723 S    
O22   Zn4   2.022731 S    
C285  C286  1.531220 S    
C95   O111  1.385854 S    
C311  H289  1.110808 S    
C44   C68   1.410448 A    
C279  H216  1.116062 S    
C289  H239  1.108277 S    
C275  H207  1.108638 S    
O18   C10   1.284946 A    
C130  O114  1.387763 S    
C336  H348  1.108158 S    
O17   Zn1   2.020027 S    
O5    Zn1   2.013639 S    
C57   C64   1.393798 A    
C120  C136  1.400281 A    
C145  C161  1.395138 A    
O127  C339  1.427946 S    
C156  C172  1.406629 A    
O103  C267  1.436579 S    
C59   C62   1.396075 A    
C125  H29   1.079855 S    
C219  H75   1.111526 S    
C240  H125  1.115329 S    
C300  H264  1.108124 S    
C43   C57   1.417166 A    
C97   C113  1.389184 A    
C220  H77   1.111697 S    
C214  H64   1.110576 S    
C332  H338  1.111002 S    
C73   N9    1.435823 S    
C268  H190  1.105349 S    
C67   N3    1.435695 S    
C339  C340  1.532248 S    
C24   H8    1.081370 S    
C121  H25   1.077509 S    
C297  C298  1.539502 S    
C78   N14   1.437905 S    
C104  O84   1.393061 S    
C245  H137  1.110350 S    
C291  H244  1.117605 S    
O14   Zn8   2.045325 S    
O115  C303  1.429901 S    
C184  C199  1.429656 S    
O2    C2    1.278464 A    
O25   Zn5   2.020027 S    
N13   O73   1.301221 A    
C278  H212  1.110766 S    
C221  H80   1.110465 S    
C268  H189  1.108516 S    
C318  C319  1.536414 S    
O128  C342  1.428196 S    
C303  C304  1.538550 S    
C246  H138  1.110888 S    
C306  H278  1.109203 S    
O81   C201  1.418433 S    
C207  H47   1.110796 S    
C276  H209  1.119586 S    
C238  H119  1.111676 S    
C254  H156  1.111200 S    
C233  H108  1.110538 S    
O4    Zn4   2.017594 S    
C159  C175  1.414564 A    
C107  O93   1.387350 S    
N16   O80   1.301349 A    
C229  H99   1.109842 S    
N14   O76   1.301292 A    
C310  C311  1.525555 S    
C288  H237  1.117781 S    
C87   C167  1.464495 A    
C32   H16   1.081323 S    
O112  C294  1.422213 S    
C244  H133  1.111684 S    
C131  O115  1.394945 S    
C27   C49   1.392015 A    
O118  C312  1.428512 S    
C299  H262  1.110432 S    
C248  H142  1.111291 S    
C117  C133  1.399019 A    
C20   H4    1.082817 S    
C295  H252  1.106078 S    
C205  H42   1.111567 S    
C338  H354  1.110714 S    
C218  H73   1.109910 S    
C144  C160  1.440827 A    
C177  C196  1.444379 S    
C82   O98   1.383480 S    
C201  H34   1.110876 S    
C145  C177  1.432708 A    
C296  H254  1.110307 S    
C101  O83   1.397403 S    
C340  H357  1.109074 S    
C42   C66   1.410313 A    
C163  C187  1.404763 A    
C112  C128  1.391768 A    
C233  H109  1.110792 S    
C232  C233  1.525722 S    
C106  O94   1.396549 S    
O87   C219  1.418561 S    
C289  C290  1.526304 S    
O35   C195  1.279518 A    
C251  H149  1.110956 S    
C272  H199  1.110412 S    
O2    Zn2   2.017590 S    
C250  H147  1.111366 S    
O39   Zn10  2.032953 S    
C98   O86   1.393030 S    
C329  H332  1.110339 S    
C315  C316  1.530678 S    
C83   O99   1.383449 S    
N1    O50   1.300923 A    
O40   Zn10  2.029687 S    
C178  C193  1.430980 S    
C162  C186  1.413703 A    
O48   Zn12  2.029687 S    
C103  C119  1.381436 A    
C223  H85   1.109446 S    
C136  C152  1.439339 A    
C114  C130  1.407415 A    
N9    O65   1.301163 A    
C20   C42   1.392999 A    
C215  H67   1.110141 S    
C275  H205  1.111298 S    
C203  H38   1.110637 S    
C274  H204  1.110305 S    
C260  H171  1.107482 S    
C47   C59   1.417761 A    
C210  H55   1.115772 S    
C169  C189  1.404686 A    
O6    C2    1.295176 A    
C111  C127  1.391386 A    
C179  C194  1.437353 S    
C55   C63   1.417313 A    
O27   Zn7   2.022142 S    
C214  C215  1.526081 S    
O35   Zn9   2.030914 S    
O110  C288  1.422347 S    
O42   C198  1.279268 A    
C306  C307  1.532998 S    
C258  H166  1.106791 S    
O116  C306  1.428989 S    
C168  C188  1.423161 A    
C298  C299  1.525155 S    
C102  O82   1.393020 S    
C247  C248  1.526083 S    
C296  H255  1.110378 S    
O93   C237  1.418614 S    
C203  H39   1.110757 S    
C171  C191  1.404254 A    
C116  H20   1.079668 S    
C311  H291  1.110678 S    
C127  C143  1.398121 A    
C328  C329  1.525179 S    
N5    O57   1.301123 A    
C3    C187  1.449450 S    
C266  H185  1.110390 S    
C205  H43   1.109893 S    
C336  C337  1.534875 S    
N11   O70   1.300998 A    
C282  H223  1.119873 S    
C148  C180  1.429998 A    
C139  C155  1.449576 A    
C247  H140  1.111498 S    
C139  O123  1.393970 S    
C71   N7    1.436093 S    
C120  H24   1.080410 S    
C208  H49   1.111517 S    
C96   O112  1.387590 S    
O19   C9    1.290230 A    
C332  H339  1.109923 S    
C307  H281  1.111531 S    
C295  C296  1.526267 S    
C219  C220  1.529945 S    
C97   O87   1.388488 S    
C314  H298  1.110586 S    
C340  C341  1.525591 S    
C256  H162  1.110321 S    
O117  C309  1.428370 S    
C24   C36   1.394103 A    
C323  H319  1.110102 S    
O30   Zn8   2.022731 S    
C206  H45   1.110489 S    
C156  C184  1.430184 A    
C273  H201  1.107052 S    
C303  H271  1.105263 S    
C92   O108  1.382824 S    
N3    O54   1.301059 A    
C215  H66   1.110458 S    
O24   Zn2   2.019149 S    
O12   Zn8   2.017594 S    
C105  O95   1.387213 S    
C250  H148  1.110130 S    
C183  C198  1.435782 S    
C226  H91   1.111524 S    
C309  H286  1.112403 S    
C312  H293  1.110350 S    
C293  H247  1.110794 S    
C155  C183  1.437182 A    
C8    C192  1.455392 S    
C22   C48   1.392151 A    
C318  H306  1.106552 S    
N6    O59   1.301108 A    
C307  C308  1.526148 S    
O88   C222  1.418031 S    
O42   Zn11  2.026032 S    
C332  H340  1.110895 S    
C20   C34   1.388716 A    
C284  H228  1.108572 S    
N4    O55   1.301089 A    
C29   H13   1.082259 S    
C56   C80   1.413692 A    
C27   H11   1.082588 S    
C253  H155  1.109577 S    
C337  H350  1.109351 S    
C157  C183  1.441937 A    
C300  H265  1.108802 S    
C21   H5    1.082319 S    
C304  H273  1.109376 S    
C319  H308  1.109425 S    
O4    C4    1.282386 A    
C324  H321  1.110713 S    
C309  C310  1.532521 S    
O109  C285  1.422152 S    
C147  C163  1.400351 A    
C248  H144  1.110208 S    
C109  C125  1.396872 A    
C335  H345  1.110899 S    
C231  H104  1.114063 S    
C255  H160  1.115982 S    
O120  C318  1.427375 S    
C281  H219  1.111315 S    
C113  C129  1.417908 A    
O37   Zn10  2.030838 S    
C308  H283  1.110068 S    
C326  H324  1.110936 S    
C286  H231  1.108572 S    
C231  C232  1.536253 S    
O20   Zn4   2.019162 S    
C202  H36   1.108430 S    
C212  H58   1.111101 S    
C41   C57   1.417172 A    
C116  C132  1.403090 A    
C127  H31   1.080200 S    
O20   C10   1.286530 A    
C313  H294  1.109322 S    
C252  H153  1.119263 S    
C43   C67   1.409914 A    
O34   Zn9   2.026032 S    
C257  H164  1.110277 S    
C87   C103  1.417812 A    
C208  H50   1.109019 S    
C5    C189  1.450150 S    
C264  H180  1.106705 S    
O10   Zn6   2.017590 S    
C250  C251  1.524089 S    
C88   C168  1.430684 A    
C287  H234  1.109700 S    
C17   H1    1.082504 S    
C99   C115  1.390070 A    
O15   C5    1.299386 A    
C141  C157  1.442720 A    
O9    Zn5   2.041423 S    
C323  H317  1.110942 S    
C82   C162  1.425301 A    
C293  H249  1.109372 S    
O16   C8    1.292987 A    
N16   O79   1.300853 A    
C234  H111  1.115786 S    
C225  H89   1.110755 S    
C9    C40   1.450636 S    
C90   O106  1.382502 S    
C126  C142  1.399611 A    
C91   C171  1.419792 A    
C202  H35   1.111499 S    
O1    Zn1   2.041423 S    
C86   C166  1.430225 A    
C72   C75   1.403453 A    
C23   H7    1.082400 S    
N7    O61   1.301138 A    
C68   N4    1.435798 S    
C26   H10   1.083012 S    
C142  C158  1.441344 A    
