data_mof_unit_29333.cif
_audit_creation_date              2012-12-10T16:49:25-0500
_audit_creation_method            fapswitch 2.2
_symmetry_space_group_name_H-M    P1
_symmetry_Int_Tables_number       1
_space_group_crystal_system       triclinic
_cell_length_a                    7.741998
_cell_length_b                    8.568099
_cell_length_c                    12.842367
_cell_angle_alpha                 90.319299
_cell_angle_beta                  87.276203
_cell_angle_gamma                 93.533913
_cell_volume                      849.304736134

loop_
_atom_site_label
_atom_site_type_symbol
_atom_type_description
_atom_site_fract_x
_atom_site_fract_y
_atom_site_fract_z
_atom_type_partial_charge
C1    C     C_R   0.454729 0.205228 0.497073 0.945689
C2    C     C_R   0.677334 0.386520 0.140403 0.446805
C3    C     C_R   0.560039 0.431020 0.867953 -0.326949
C4    C     C_R   0.434207 0.553489 0.131797 -0.272795
C5    C     C_R   0.554942 0.440332 0.975197 -0.087343
C6    C     C_R   0.431203 0.533286 0.025636 -0.062370
C7    C     C_2   0.430916 0.041800 0.495129 -0.375341
C8    C     C_2   0.569464 0.958237 0.503536 -0.397677
C9    C     C_3   0.741455 0.178276 0.239704 -0.233059
C10   C     C_3   0.027413 0.563961 0.811121 -0.177487
C11   C     C_3   0.245123 0.854058 0.014295 -0.314830
C12   C     C_R   0.545396 0.794785 0.502475 0.968515
C13   C     C_3   0.717738 0.120579 0.966245 -0.332115
C14   C     C_R   0.464341 0.502844 0.699906 0.946677
C15   C     C_R   0.535047 0.495258 0.300141 0.924467
C16   C     C_R   0.555163 0.481749 0.188848 -0.269667
C17   C     C_R   0.439286 0.504398 0.811387 -0.241392
C18   C     C_R   0.307497 0.606594 0.969092 0.481818
C19   C     C_R   0.675356 0.363259 0.032729 0.474191
C20   C     C_R   0.305067 0.583918 0.861429 0.396701
H1    H     H_    0.341083 0.625822 0.171165 0.230293
H2    H     H_    0.935544 0.615188 0.759172 0.184200
H3    H     H_    0.259439 0.896435 0.932418 0.195705
H4    H     H_    0.369818 0.874247 0.053442 0.136354
H5    H     H_    0.148368 0.924872 0.056033 0.202215
H6    H     H_    0.639921 0.120121 0.895862 0.165095
H7    H     H_    0.634059 0.074943 0.033563 0.133451
H8    H     H_    0.821163 0.037978 0.951784 0.205527
H9    H     H_    0.998753 0.615360 0.421912 0.200963
H10   H     H_    0.001234 0.384562 0.578037 0.184674
H11   H     H_    0.661119 0.369157 0.827417 0.214723
H12   H     H_    0.300027 0.990775 0.487095 0.184688
H13   H     H_    0.700388 0.009272 0.511429 0.177784
H14   H     H_    0.779828 0.081766 0.187358 0.165406
H15   H     H_    0.598535 0.168183 0.256782 0.106708
H16   H     H_    0.803893 0.162600 0.314611 0.194079
H17   H     H_    0.967723 0.564314 0.891579 0.206474
H18   H     H_    0.044408 0.441663 0.784503 0.145403
N1    N     N_2   0.054030 0.541640 0.471970 -0.159639
N2    N     N_2   0.945970 0.458360 0.528030 -0.176373
O1    O     O_R   0.609680 0.261530 0.506880 -0.621249
O2    O     O_3   0.185278 0.655690 0.804345 -0.606544
O3    O     O_3   0.184923 0.695343 0.019184 -0.603373
O4    O     O_3   0.796534 0.270888 0.984648 -0.598069
O5    O     O_R   0.390320 0.738470 0.493120 -0.608987
O6    O     O_R   0.323330 0.288220 0.488910 -0.632034
O7    O     O_R   0.676670 0.711780 0.511090 -0.637058
O8    O     O_R   0.619510 0.488830 0.661140 -0.645710
O9    O     O_R   0.380490 0.511170 0.338860 -0.620157
O10   O     O_R   0.333160 0.515520 0.643180 -0.585711
O11   O     O_R   0.666840 0.484480 0.356820 -0.582636
O12   O     O_3   0.804391 0.323461 0.196646 -0.558868
Zn1   Zn    Zn3+2 0.691200 0.482180 0.511990 0.942588
Zn2   Zn    Zn3+2 0.308800 0.517820 0.488010 0.966239

loop_
_geom_bond_atom_site_label_1
_geom_bond_atom_site_label_2
_ccdc_geom_bond_type
C4    C16   A    
C9    H16   S    
C20   O2    S    
C13   H8    S    
C11   O3    S    
C5    C19   A    
C15   O11   A    
C10   O2    S    
C2    C16   A    
C8    C12   S    
C10   H18   S    
O1    Zn1   S    
H9    N1    S    
C15   O9    A    
H10   N2    S    
C7    C8    D    
O10   Zn2   S    
C18   O3    S    
C10   H2    S    
C3    H11   S    
C4    H1    S    
C14   C17   S    
O6    Zn2   S    
C1    O6    A    
C14   O10   A    
C9    O12   S    
C2    O12   S    
C12   O7    A    
C5    C6    A    
C1    O1    A    
O7    Zn1   S    
O5    Zn2   S    
C3    C17   A    
C18   C20   A    
C8    H13   S    
C10   H17   S    
O8    Zn1   S    
C6    C18   A    
C13   H6    S    
N1    Zn2   S    
C11   H5    S    
C15   C16   S    
C11   H4    S    
C17   C20   A    
C19   O4    S    
C4    C6    A    
N2    Zn1   S    
C11   H3    S    
N1    N2    D    
C9    H15   S    
C13   H7    S    
C14   O8    A    
C7    H12   S    
C3    C5    A    
C2    C19   A    
C1    C7    S    
C13   O4    S    
O9    Zn2   S    
C9    H14   S    
C12   O5    A    
O11   Zn1   S    
