data_mof_unit_60180.cif
_audit_creation_date              2012-10-26T18:36:04-0400
_audit_creation_method            fapswitch 2.2
_symmetry_space_group_name_H-M    P1
_symmetry_Int_Tables_number       1
_space_group_crystal_system       triclinic
_cell_length_a                    10.778672
_cell_length_b                    12.751685
_cell_length_c                    13.907171
_cell_angle_alpha                 98.008408
_cell_angle_beta                  90.193846
_cell_angle_gamma                 93.241049
_cell_volume                      1889.69654703

loop_
_atom_site_label
_atom_site_type_symbol
_atom_type_description
_atom_site_fract_x
_atom_site_fract_y
_atom_site_fract_z
_atom_type_partial_charge
C1    C     C_R   0.498685 0.483532 0.315858 0.527047
C2    C     C_1   0.498000 0.474243 0.212596 0.011099
C3    C     C_2   0.459037 0.028481 0.473954 -0.048622
C4    C     C_R   0.259651 0.500586 0.502176 0.575342
C5    C     C_2   0.535081 0.971569 0.522680 -0.160326
C6    C     C_1   0.525526 0.854429 0.517920 0.176649
C7    C     C_1   0.472519 0.145448 0.481002 0.151236
C8    C     C_R   0.501293 0.516501 0.684145 0.564402
C9    C     C_R   0.740532 0.500191 0.502741 0.589592
C10   C     C_3   0.067605 0.445300 0.406300 -0.310520
C11   C     C_3   0.924531 0.440506 0.408732 -0.317976
C12   C     C_3   0.878390 0.501375 0.505591 0.023956
C13   C     C_3   0.069462 0.443815 0.590024 0.132886
C14   C     C_3   0.079755 0.618289 0.517344 0.097215
C15   C     C_3   0.122305 0.501510 0.504870 -0.005758
C16   C     C_1   0.359834 0.975009 0.412581 0.232451
C17   C     C_3   0.925698 0.450845 0.594573 0.133631
C18   C     C_3   0.935891 0.618240 0.514599 0.087317
C19   C     C_1   0.501932 0.526283 0.787427 -0.007612
C20   C     C_2   0.503264 0.547280 0.978985 0.252229
C21   C     C_2   0.496992 0.459626 0.021849 -0.045971
C22   C     C_1   0.497462 0.466654 0.125630 0.023334
C23   C     C_1   0.502548 0.535943 0.874489 -0.051757
Cu1   Cu    Cu3+1 0.491980 0.395330 0.493960 1.040109
Cu2   Cu    Cu3+1 0.508020 0.604670 0.506040 1.062491
H1    H     H_    0.100807 0.364124 0.387611 0.151529
H2    H     H_    0.907659 0.652413 0.448550 0.116646
H3    H     H_    0.904565 0.755863 0.586989 0.356164
H4    H     H_    0.514159 0.700526 0.989391 0.336756
H5    H     H_    0.071916 0.296955 0.524123 0.335139
H6    H     H_    0.866189 0.305056 0.543222 0.336558
H7    H     H_    0.096594 0.655859 0.659219 0.344851
H8    H     H_    0.109714 0.485503 0.659537 0.139509
H9    H     H_    0.905032 0.505419 0.661488 0.181558
H10   H     H_    0.491455 0.381423 0.978908 0.090416
H11   H     H_    0.608675 0.014028 0.568425 0.128336
H12   H     H_    0.099976 0.489780 0.346733 0.120121
H13   H     H_    0.888854 0.476384 0.346278 0.123557
H14   H     H_    0.888149 0.356419 0.398101 0.138253
H15   H     H_    0.114115 0.655794 0.453996 0.162287
N1    N     N_1   0.479930 0.238040 0.484880 -0.179892
N2    N     N_1   0.520070 0.761960 0.515120 -0.169615
N3    N     N_1   0.280326 0.932118 0.363439 -0.270134
O1    O     O_R   0.492240 0.399110 0.356330 -0.508820
O2    O     O_3   0.510277 0.646395 0.034265 -0.666098
O3    O     O_3   0.105791 0.338628 0.584798 -0.641467
O4    O     O_3   0.863721 0.352909 0.605555 -0.655852
O5    O     O_3   0.132484 0.681279 0.600622 -0.660330
O6    O     O_R   0.505790 0.575900 0.366540 -0.491383
O7    O     O_R   0.310920 0.411610 0.494880 -0.470948
O8    O     O_R   0.324460 0.588390 0.505090 -0.467512
O9    O     O_R   0.494210 0.424100 0.633460 -0.475368
O10   O     O_R   0.507760 0.600890 0.643670 -0.481849
O11   O     O_R   0.675540 0.411610 0.494910 -0.490256
O12   O     O_R   0.689080 0.588390 0.505120 -0.473577
O13   O     O_3   0.890753 0.680633 0.597372 -0.691024

loop_
_geom_bond_atom_site_label_1
_geom_bond_atom_site_label_2
_ccdc_geom_bond_type
Cu2   N2    S    
Cu1   O9    S    
C11   H13   S    
C19   C23   T    
C11   C12   S    
Cu2   O8    S    
C2    C22   T    
C21   H10   S    
C13   C17   S    
C8    O9    A    
C1    O1    A    
C20   O2    S    
C20   C23   S    
C18   O13   S    
C10   H1    S    
C4    C15   S    
C7    N1    T    
H3    O13   S    
C8    O10   A    
H6    O4    S    
C21   C22   S    
Cu1   Cu2   S    
C12   C17   S    
C13   H8    S    
Cu1   N1    S    
H7    O5    S    
C16   N3    T    
C17   H9    S    
C5    C6    S    
C1    O6    A    
C10   H12   S    
C9    O12   A    
Cu1   O1    S    
Cu2   O10   S    
C3    C7    S    
C10   C15   S    
C13   C15   S    
Cu1   O7    S    
C13   O3    S    
C11   H14   S    
C9    C12   S    
Cu2   O6    S    
C8    C19   S    
C10   C11   S    
C3    C16   S    
C4    O8    A    
C14   H15   S    
C5    H11   S    
C17   O4    S    
C20   C21   D    
C1    C2    S    
C6    N2    T    
C12   C18   S    
C14   C18   S    
C14   C15   S    
C14   O5    S    
C9    O11   A    
Cu1   O11   S    
H5    O3    S    
H4    O2    S    
C18   H2    S    
Cu2   O12   S    
C4    O7    A    
C3    C5    D    
