data_mof_unit_58861.cif
_audit_creation_date              2013-03-05T16:35:52-0500
_audit_creation_method            fapswitch 2.2
_symmetry_space_group_name_H-M    P1
_symmetry_Int_Tables_number       1
_space_group_crystal_system       triclinic
_cell_length_a                    23.494917
_cell_length_b                    9.079399
_cell_length_c                    7.78044
_cell_angle_alpha                 89.903772
_cell_angle_beta                  90.000233
_cell_angle_gamma                 90.000232
_cell_volume                      1659.71898748

loop_
_atom_site_label
_atom_site_type_symbol
_atom_site_description
_atom_site_fract_x
_atom_site_fract_y
_atom_site_fract_z
_atom_type_partial_charge
O1    O     O_R   0.500000 0.288390 0.642760 -0.580868
O2    O     O_R   0.500000 0.711610 0.357240 -0.580867
O3    O     O_R   0.500000 0.711610 0.642760 -0.559180
O4    O     O_R   0.500000 0.288390 0.357240 -0.559177
H1    H     H_    0.948269 0.368020 0.907028 0.193051
H2    H     H_    0.051728 0.631943 0.092998 0.193045
H3    H     H_    0.948257 0.631923 0.093005 0.193054
H4    H     H_    0.051740 0.368023 0.907014 0.193048
C1    C     C_R   0.499999 0.220015 0.500094 0.885142
C2    C     C_R   0.499999 0.779985 0.499906 0.885138
O5    O     O_R   0.417880 0.500000 0.642820 -0.560636
O6    O     O_R   0.582120 0.500000 0.357180 -0.560665
O7    O     O_R   0.582120 0.500000 0.642820 -0.560672
O8    O     O_R   0.417880 0.500000 0.357180 -0.560638
C3    C     C_R   0.209162 0.499998 0.499992 0.277962
C4    C     C_R   0.790836 0.499970 0.500034 0.277958
C5    C     C_R   0.390858 0.500000 0.500000 0.910663
C6    C     C_R   0.609141 0.499999 0.500000 0.910725
Cu1   Cu    Cu3+1 0.500000 0.500000 0.669080 1.099217
Cu2   Cu    Cu3+1 0.500000 0.500000 0.330920 1.099219
C7    C     C_R   0.298875 0.623405 0.562373 0.191666
C8    C     C_R   0.701122 0.376505 0.437840 0.191657
C9    C     C_R   0.298873 0.376592 0.437624 0.191666
C10   C     C_R   0.701124 0.623470 0.562178 0.191660
C11   C     C_R   0.328562 0.500000 0.499999 -0.208578
C12   C     C_R   0.671436 0.499992 0.500004 -0.208589
C13   C     C_R   0.880334 0.546704 0.356228 0.543221
C14   C     C_R   0.119663 0.453240 0.643789 0.543204
C15   C     C_R   0.880339 0.453232 0.643819 0.543195
C16   C     C_R   0.119658 0.546742 0.356211 0.543190
N1    N     N_R   0.851953 0.499968 0.500027 -0.460323
N2    N     N_R   0.148046 0.499993 0.499998 -0.460314
C17   C     C_R   0.940018 0.452334 0.646884 -0.028216
C18   C     C_R   0.059980 0.547629 0.353142 -0.028212
C19   C     C_R   0.940013 0.547609 0.353150 -0.028211
C20   C     C_R   0.059984 0.452340 0.646870 -0.028208
C21   C     C_R   0.969970 0.499974 0.500014 -0.013902
C22   C     C_R   0.030027 0.499981 0.500008 -0.013900
C23   C     C_R   0.970314 0.405086 0.792571 -0.173799
C24   C     C_R   0.029683 0.594873 0.207454 -0.173797
C25   C     C_R   0.970304 0.594862 0.207457 -0.173791
C26   C     C_R   0.029693 0.405087 0.792563 -0.173789
C27   C     C_1   0.499999 0.065394 0.500129 -0.064760
C28   C     C_1   0.499999 0.934606 0.499871 -0.064763
C29   C     C_R   0.239005 0.624286 0.562048 0.110245
C30   C     C_R   0.760993 0.375616 0.438169 0.110302
C31   C     C_R   0.239003 0.375710 0.437942 0.110243
C32   C     C_R   0.760995 0.624337 0.561881 0.110301
N3    N     N_1   0.500000 0.500000 0.076820 -0.017248
N4    N     N_1   0.500000 0.500000 0.923180 -0.017249
O9    O     O_2   0.850796 0.591952 0.217061 -0.501996
O10   O     O_2   0.149202 0.407974 0.782949 -0.502037
O11   O     O_2   0.850804 0.407977 0.782993 -0.501992
O12   O     O_2   0.149193 0.592016 0.217046 -0.502036
C33   C     C_3   0.207680 0.758540 0.627385 -0.671029
H5    H     H_    0.219822 0.856339 0.549744 0.244203
H6    H     H_    0.160766 0.748121 0.620314 0.208252
H7    H     H_    0.219019 0.778179 0.763990 0.263190
C34   C     C_3   0.792313 0.241285 0.373040 -0.671127
H8    H     H_    0.839226 0.251728 0.380030 0.208263
H9    H     H_    0.780184 0.143587 0.450875 0.244223
H10   H     H_    0.780958 0.221455 0.236484 0.263141
C35   C     C_3   0.207681 0.241450 0.372617 -0.671042
H11   H     H_    0.219818 0.143661 0.450287 0.244198
H12   H     H_    0.160769 0.251874 0.379660 0.208257
H13   H     H_    0.219026 0.221786 0.236021 0.263190
C36   C     C_3   0.792321 0.758665 0.627005 -0.671131
H14   H     H_    0.839234 0.748188 0.620092 0.208262
H15   H     H_    0.780213 0.856346 0.549115 0.244206
H16   H     H_    0.780948 0.778540 0.763537 0.263143
Br1   Br    Br    0.340467 0.793828 0.642837 -0.452155
Br2   Br    Br    0.659522 0.206000 0.357639 -0.452120
Br3   Br    Br    0.340470 0.206165 0.357175 -0.452154
Br4   Br    Br    0.659532 0.793994 0.642339 -0.452131

loop_
_geom_bond_atom_site_label_1
_geom_bond_atom_site_label_2
_geom_bond_distance
_ccdc_geom_bond_type
C33   H5    1.110388 S    
C35   H12   1.107612 S    
C30   C34   1.512577 S    
C20   C26   1.404945 A    
Cu1   Cu2   2.631034 S    
C6    C12   1.463616 S    
C3    C31   1.414172 A    
C4    C32   1.414204 A    
C3    N2    1.435915 S    
C4    N1    1.435927 S    
C16   O12   1.349594 S    
O5    Cu1   1.940192 S    
C17   C23   1.404951 A    
O7    C6    1.279770 A    
C7    Br1   1.935016 S    
C18   C24   1.404950 A    
C19   C21   1.409417 A    
C21   C22   1.411032 A    
H4    C26   1.083280 S    
C31   C35   1.512583 S    
C15   C17   1.402370 A    
O2    Cu2   1.932516 S    
O3    Cu1   1.931832 S    
H3    C25   1.083280 S    
C35   H13   1.110432 S    
C34   H8    1.107627 S    
O8    C5    1.279780 A    
C9    Br3   1.935079 S    
C8    Br2   1.935050 S    
C13   O9    1.349577 S    
C23   C26   1.395121 A    
C7    C29   1.406684 A    
C1    C27   1.403863 S    
C34   H9    1.110400 S    
C16   C18   1.402365 A    
C13   N1    1.369261 A    
C36   H14   1.107646 S    
C10   C32   1.406695 A    
O8    Cu2   1.940194 S    
C14   N2    1.369281 A    
O1    C1    1.272725 A    
C4    C30   1.414189 A    
O7    Cu1   1.940191 S    
C13   C19   1.402370 A    
O1    Cu1   1.932517 S    
C2    C28   1.403863 S    
C17   C21   1.409416 A    
C36   H15   1.110383 S    
C27   C28   1.187481 T    
Cu2   N3    1.977009 S    
O6    Cu2   1.940190 S    
C29   C33   1.512615 S    
C24   C25   1.395119 A    
C8    C30   1.406692 A    
C33   H6    1.107657 S    
H2    C24   1.083303 S    
C3    C29   1.414209 A    
O2    C2    1.272725 A    
H1    C23   1.083300 S    
C7    C11   1.406852 A    
O5    C5    1.279779 A    
C34   H10   1.110437 S    
C18   C22   1.409427 A    
C10   C12   1.406849 A    
C36   H16   1.110417 S    
C5    C11   1.463649 S    
C9    C31   1.406684 A    
C20   C22   1.409427 A    
C15   N1    1.369265 A    
O3    C2    1.272177 A    
C16   N2    1.369287 A    
C14   O10   1.349576 S    
Cu1   N4    1.977009 S    
C10   Br4   1.935007 S    
C15   O11   1.349595 S    
C9    C11   1.406890 A    
C32   C36   1.512595 S    
C19   C25   1.404948 A    
C35   H11   1.110405 S    
O4    Cu2   1.931833 S    
C14   C20   1.402370 A    
N3    N4    1.195388 T    
C8    C12   1.406872 A    
C33   H7    1.110428 S    
O6    C6    1.279772 A    
O4    C1    1.272177 A    
