data_mof_unit_5034.cif
_audit_creation_date              2012-12-11T17:36:19-0500
_audit_creation_method            fapswitch 2.2
_symmetry_space_group_name_H-M    P1
_symmetry_Int_Tables_number       1
_space_group_crystal_system       triclinic
_cell_length_a                    26.0474
_cell_length_b                    6.895458
_cell_length_c                    21.665314
_cell_angle_alpha                 89.999269
_cell_angle_beta                  95.556478
_cell_angle_gamma                 89.997723
_cell_volume                      3872.99581854

loop_
_atom_site_label
_atom_site_type_symbol
_atom_type_description
_atom_site_fract_x
_atom_site_fract_y
_atom_site_fract_z
_atom_type_partial_charge
O1    O     O_R   0.208650 0.594520 0.175450 -0.534959
O2    O     O_R   0.791350 0.405480 0.824550 -0.533669
O3    O     O_R   0.291350 0.094520 0.324550 -0.534901
O4    O     O_R   0.708650 0.905480 0.675450 -0.533669
O5    O     O_R   0.192980 0.260780 0.300160 -0.547192
O6    O     O_R   0.807020 0.739220 0.699840 -0.542970
O7    O     O_R   0.307020 0.760780 0.199840 -0.547193
O8    O     O_R   0.692980 0.239220 0.800160 -0.542985
C1    C     C_R   0.179079 0.432893 0.318838 0.681523
C2    C     C_R   0.821418 0.567021 0.681866 0.686311
C3    C     C_R   0.320913 0.932889 0.181151 0.681388
C4    C     C_R   0.678582 0.067024 0.818133 0.686261
O9    O     O_R   0.202550 0.264660 0.174420 -0.544326
O10   O     O_R   0.797450 0.735340 0.825580 -0.543473
O11   O     O_R   0.297450 0.764660 0.325580 -0.544296
O12   O     O_R   0.702550 0.235340 0.674420 -0.543465
O13   O     O_R   0.300990 0.096480 0.197920 -0.535757
O14   O     O_R   0.699010 0.903520 0.802080 -0.538431
O15   O     O_R   0.199010 0.596480 0.302080 -0.535789
O16   O     O_R   0.800990 0.403520 0.697920 -0.538449
C5    C     C_R   0.190445 0.434137 0.151792 0.758039
C6    C     C_R   0.808857 0.565833 0.848577 0.716915
C7    C     C_R   0.309552 0.934126 0.348211 0.758074
C8    C     C_R   0.691140 0.065843 0.651425 0.716891
O17   O     O_3   0.282290 0.427760 0.257860 -0.366849
O18   O     O_3   0.717710 0.572240 0.742140 -0.367275
O19   O     O_3   0.217710 0.927760 0.242140 -0.366919
O20   O     O_3   0.782290 0.072240 0.757860 -0.367255
V1    V     V_3+5 0.244010 0.152080 0.248540 1.407322
V2    V     V_3+5 0.755990 0.847920 0.751460 1.398206
V3    V     V_3+5 0.255990 0.652080 0.251460 1.407351
V4    V     V_3+5 0.744010 0.347920 0.748540 1.398186
C9    C     C_R   0.656623 0.050930 0.593561 -0.097320
C10   C     C_R   0.343842 0.947158 0.406662 -0.068741
C11   C     C_R   0.843368 0.550856 0.906448 -0.097376
C12   C     C_R   0.156159 0.447235 0.093340 -0.068907
C13   C     C_R   0.648531 0.939324 0.487594 -0.168060
C14   C     C_R   0.350999 0.051874 0.513491 -0.161231
C15   C     C_R   0.851480 0.438431 0.012328 -0.168100
C16   C     C_R   0.148979 0.552844 0.986599 -0.161285
C17   C     C_R   0.679021 0.998808 0.540095 -0.215150
C18   C     C_R   0.320968 0.996929 0.460050 -0.239873
C19   C     C_R   0.820979 0.498169 0.959866 -0.215116
C20   C     C_R   0.179022 0.497617 0.039999 -0.239798
C21   C     C_R   0.602031 0.055042 0.593393 0.219542
C22   C     C_R   0.398569 0.939594 0.407913 0.224124
C23   C     C_R   0.897960 0.555306 0.906641 0.219596
C24   C     C_R   0.101433 0.439316 0.092070 0.224111
C25   C     C_R   0.569893 0.013892 0.536970 0.048865
C26   C     C_R   0.430104 0.977812 0.465270 0.012779
C27   C     C_R   0.930101 0.513861 0.963040 0.048882
C28   C     C_R   0.069892 0.477878 0.034739 0.012811
C29   C     C_R   0.594733 0.939808 0.486338 0.099164
C30   C     C_R   0.404861 0.049394 0.515873 0.107267
C31   C     C_R   0.905277 0.439197 0.013600 0.099134
C32   C     C_R   0.095118 0.550071 0.984205 0.107246
C33   C     C_R   0.514373 0.033520 0.528868 0.065311
C34   C     C_R   0.485448 0.955825 0.474484 0.054340
C35   C     C_R   0.985613 0.533717 0.971173 0.065288
C36   C     C_R   0.014557 0.455681 0.025493 0.054310
C37   C     C_R   0.512653 0.850203 0.432870 -0.204968
C38   C     C_R   0.486793 0.132409 0.571948 -0.158487
C39   C     C_R   0.987380 0.349537 0.067007 -0.204923
C40   C     C_R   0.013166 0.633151 0.928187 -0.158435
C41   C     C_R   0.565944 0.854162 0.436122 -0.195435
C42   C     C_R   0.433351 0.128793 0.567581 -0.205625
C43   C     C_R   0.934087 0.353250 0.063748 -0.195456
C44   C     C_R   0.066609 0.629791 0.932563 -0.205633
H1    H     H_    0.584930 0.781166 0.400262 0.125432
H2    H     H_    0.413979 0.197090 0.603996 0.125885
H3    H     H_    0.915120 0.279829 0.099539 0.125448
H4    H     H_    0.085963 0.698536 0.896215 0.125892
H5    H     H_    0.279346 0.005900 0.459044 0.120943
H6    H     H_    0.720617 0.991180 0.540445 0.120738
H7    H     H_    0.220641 0.506874 0.041024 0.120963
H8    H     H_    0.779386 0.490273 0.959493 0.120757
H9    H     H_    0.667238 0.886912 0.448245 0.123364
H10   H     H_    0.331877 0.102045 0.552800 0.123916
H11   H     H_    0.832784 0.385573 0.051626 0.123375
H12   H     H_    0.168089 0.603496 0.947340 0.123920
H13   H     H_    0.493509 0.759030 0.397927 0.165993
H14   H     H_    0.505349 0.217233 0.609335 0.175760
H15   H     H_    0.006551 0.258146 0.101871 0.165959
H16   H     H_    0.994585 0.718212 0.890871 0.175751
C45   C     C_R   0.427413 0.793400 0.079573 -0.130925
C46   C     C_R   0.573741 0.206388 0.922065 -0.133768
C47   C     C_R   0.072584 0.293406 0.420418 -0.130901
C48   C     C_R   0.926274 0.706380 0.577960 -0.133784
H17   H     H_    0.445941 0.662765 0.065015 0.104581
H18   H     H_    0.557031 0.337233 0.939233 0.104309
H19   H     H_    0.054060 0.162770 0.434980 0.104576
H20   H     H_    0.942999 0.837226 0.560815 0.104314
C49   C     C_R   0.388201 0.778608 0.119607 -0.180131
C50   C     C_R   0.613076 0.221492 0.882213 -0.171641
C51   C     C_R   0.111795 0.278615 0.380383 -0.180126
C52   C     C_R   0.886940 0.721483 0.617813 -0.171621
H21   H     H_    0.377412 0.636270 0.135016 0.118211
H22   H     H_    0.625845 0.364282 0.869647 0.117016
H23   H     H_    0.122588 0.136276 0.364978 0.118175
H24   H     H_    0.874187 0.864273 0.630403 0.117029
C53   C     C_R   0.363236 0.945842 0.139259 -0.055876
C54   C     C_R   0.635853 0.053949 0.859423 -0.055010
C55   C     C_R   0.136754 0.445849 0.360727 -0.055873
C56   C     C_R   0.864145 0.553942 0.640574 -0.055036
C57   C     C_R   0.378872 0.127824 0.117864 -0.158352
C58   C     C_R   0.617742 0.871394 0.877262 -0.171628
C59   C     C_R   0.121113 0.627832 0.382118 -0.158418
C60   C     C_R   0.882237 0.371387 0.622704 -0.171642
H25   H     H_    0.360755 0.260105 0.131711 0.120729
H26   H     H_    0.634002 0.738877 0.860735 0.122443
H27   H     H_    0.139226 0.760113 0.368267 0.120720
H28   H     H_    0.865961 0.238871 0.639207 0.122443
C61   C     C_R   0.417963 0.142122 0.077953 -0.140171
C62   C     C_R   0.578504 0.856780 0.916964 -0.139683
C63   C     C_R   0.082023 0.642129 0.422030 -0.140157
C64   C     C_R   0.921473 0.356775 0.583001 -0.139667
H29   H     H_    0.428996 0.283851 0.062167 0.104529
H30   H     H_    0.565573 0.714581 0.930028 0.104883
H31   H     H_    0.070987 0.783858 0.437814 0.104529
H32   H     H_    0.934390 0.214576 0.569912 0.104885
C65   C     C_R   0.442430 0.975295 0.058419 0.131070
C66   C     C_R   0.556359 0.023872 0.939823 0.131281
C67   C     C_R   0.057562 0.475301 0.441570 0.131070
C68   C     C_R   0.943637 0.523867 0.560171 0.131271
C69   C     C_1   0.482641 0.991812 0.016607 -0.061611
C70   C     C_1   0.516156 0.007036 0.981634 -0.061327
C71   C     C_1   0.017353 0.491815 0.483384 -0.061611
C72   C     C_1   0.983839 0.507035 0.518358 -0.061321
N1    N     N_2   0.420124 0.934112 0.349791 -0.556058
H33   H     H_    0.451821 0.019757 0.344392 0.263231
C73   C     C_3   0.415261 0.756177 0.313957 -0.537108
H34   H     H_    0.453743 0.705263 0.302945 0.175306
H35   H     H_    0.392221 0.784680 0.269443 0.206595
H36   H     H_    0.396694 0.638933 0.339135 0.203541
N2    N     N_2   0.580661 0.073086 0.651231 -0.554082
H37   H     H_    0.599851 0.167745 0.682275 0.248044
C74   C     C_3   0.568532 0.890580 0.679385 -0.551690
H38   H     H_    0.549428 0.918768 0.722144 0.199581
H39   H     H_    0.604352 0.806129 0.691999 0.198893
H40   H     H_    0.541809 0.804135 0.647114 0.212965
N3    N     N_2   0.079866 0.433181 0.150181 -0.556181
H41   H     H_    0.048139 0.518591 0.155656 0.263207
C75   C     C_3   0.084831 0.255042 0.185908 -0.536582
H42   H     H_    0.046353 0.203306 0.196686 0.175139
H43   H     H_    0.107695 0.283636 0.230544 0.206519
H44   H     H_    0.103635 0.138306 0.160751 0.203657
N4    N     N_2   0.919337 0.573934 0.848830 -0.554112
H45   H     H_    0.900121 0.668737 0.817855 0.248166
C76   C     C_3   0.931534 0.391741 0.820538 -0.551863
H46   H     H_    0.950649 0.420383 0.777820 0.199645
H47   H     H_    0.895745 0.307236 0.807833 0.198809
H48   H     H_    0.958273 0.305154 0.852750 0.213000

loop_
_geom_bond_atom_site_label_1
_geom_bond_atom_site_label_2
_ccdc_geom_bond_type
O17   V3    S    
C75   H44   S    
C48   C52   A    
O1    C5    A    
C47   H19   S    
O19   V1    S    
C9    C21   A    
O3    C7    A    
N4    H45   S    
C10   C18   A    
C48   C68   A    
C73   H36   S    
C11   C23   A    
C22   N1    S    
C25   C33   A    
N2    H37   S    
C5    C12   S    
O7    C3    A    
C6    C11   S    
C74   H39   S    
O5    C1    A    
C26   C30   A    
C58   C62   A    
C36   C39   A    
C40   C44   A    
C57   C61   A    
N4    C76   S    
C14   C18   A    
C76   H47   S    
C58   H26   S    
O4    C8    A    
C51   H23   S    
C50   H22   S    
C75   H42   S    
C75   H43   S    
O1    V3    S    
O13   V1    S    
C31   C43   A    
O2    V4    S    
O3    V1    S    
C40   H16   S    
C46   C50   A    
C17   H6    S    
C45   C49   A    
C1    O15   A    
C15   C31   A    
C48   H20   S    
C2    O16   A    
C16   C32   A    
C47   C51   A    
O2    C6    A    
C16   H12   S    
C45   C65   A    
C10   C22   A    
C11   C19   A    
C16   C20   A    
C43   H3    S    
C1    C55   S    
C68   C72   S    
C13   C29   A    
C34   C37   A    
O11   C7    A    
C38   H14   S    
O15   V3    S    
C35   C36   A    
O12   C8    A    
C53   C57   A    
O10   V2    S    
C51   C55   A    
O5    V1    S    
O17   V1    S    
C74   H40   S    
C23   N4    S    
C21   N2    S    
C63   C67   A    
C38   C42   A    
O19   V3    S    
C26   C34   A    
O20   V4    S    
O7    V3    S    
C46   H18   S    
C76   H48   S    
C49   C53   A    
C45   H17   S    
O18   V4    S    
C23   C27   A    
C14   H10   S    
C33   C38   A    
C32   C44   A    
C13   H9    S    
C64   H32   S    
C39   H15   S    
C44   H4    S    
O8    V4    S    
C66   C70   S    
C20   H7    S    
C39   C43   A    
C4    C54   S    
C37   C41   A    
C67   C71   S    
C14   C30   A    
C21   C25   A    
O8    C4    A    
C7    C10   S    
C35   C40   A    
O9    C5    A    
C3    C53   S    
C59   C63   A    
C62   H30   S    
C61   H29   S    
O6    V2    S    
C65   C69   S    
O18   V2    S    
C63   H31   S    
C52   C56   A    
C69   C70   T    
C12   C20   A    
C27   C35   A    
C73   H34   S    
C49   H21   S    
C56   C60   A    
C29   C41   A    
N1    H33   S    
O16   V4    S    
O9    V1    S    
C19   H8    S    
N2    C74   S    
C57   H25   S    
C3    O13   A    
C18   H5    S    
C64   C68   A    
C59   H27   S    
C73   H35   S    
O6    C2    A    
C15   C19   A    
O11   V3    S    
C30   C42   A    
O12   V4    S    
C74   H38   S    
C22   C26   A    
C8    C9    S    
C9    C17   A    
C60   C64   A    
N3    C75   S    
O20   V2    S    
C37   H13   S    
N3    H41   S    
C47   C67   A    
O10   C6    A    
C33   C34   A    
C42   H2    S    
C28   C32   A    
C41   H1    S    
C52   H24   S    
C2    C56   S    
C24   N3    S    
C12   C24   A    
C27   C31   A    
C13   C17   A    
C46   C66   A    
C25   C29   A    
O14   V2    S    
C62   C66   A    
C60   H28   S    
C24   C28   A    
C61   C65   A    
C50   C54   A    
C28   C36   A    
C54   C58   A    
C4    O14   A    
C55   C59   A    
C76   H46   S    
O4    V2    S    
C71   C72   T    
C15   H11   S    
N1    C73   S    
