data_mof_unit_16110.cif
_audit_creation_date              2012-12-10T17:51:33-0500
_audit_creation_method            fapswitch 2.2
_symmetry_space_group_name_H-M    P1
_symmetry_Int_Tables_number       1
_space_group_crystal_system       triclinic
_cell_length_a                    9.919035
_cell_length_b                    10.637721
_cell_length_c                    16.81501
_cell_angle_alpha                 91.723064
_cell_angle_beta                  85.005993
_cell_angle_gamma                 90.004078
_cell_volume                      1766.71098759

loop_
_atom_site_label
_atom_site_type_symbol
_atom_type_description
_atom_site_fract_x
_atom_site_fract_y
_atom_site_fract_z
_atom_type_partial_charge
C1    C     C_R   0.500288 0.739258 0.497914 0.855213
C2    C     C_R   0.529748 0.454241 0.263186 -0.024707
C3    C     C_R   0.391662 0.862543 0.365328 -0.174817
C4    C     C_R   0.480921 0.500027 0.652952 0.869881
C5    C     C_R   0.338016 0.925297 0.303573 -0.132558
C6    C     C_R   0.337492 0.056085 0.303798 -0.135422
C7    C     C_R   0.390719 0.124487 0.365747 -0.184461
C8    C     C_R   0.444171 0.062424 0.429338 0.095008
C9    C     C_R   0.444427 0.930629 0.429232 0.098295
C10   C     C_R   0.501455 0.871267 0.492368 -0.089361
C11   C     C_R   0.562111 0.938206 0.551925 -0.216197
C12   C     C_R   0.348619 0.443710 0.777839 -0.196849
C13   C     C_R   0.562151 0.066669 0.551889 -0.198139
C14   C     C_R   0.501392 0.127892 0.492362 -0.101362
C15   C     C_R   0.845031 0.665623 0.604503 -0.160813
C16   C     C_R   0.500351 0.260512 0.497774 0.871252
C17   C     C_R   0.907782 0.746406 0.656307 -0.209505
C18   C     C_R   0.047266 0.745543 0.656684 -0.183660
C19   C     C_R   0.124867 0.664090 0.605120 -0.151050
C20   C     C_R   0.064804 0.581058 0.551715 0.162998
C21   C     C_R   0.920273 0.581385 0.551550 0.176662
C22   C     C_R   0.935830 0.422325 0.450554 -0.115872
C23   C     C_R   0.428015 0.350568 0.153781 -0.173809
C24   C     C_R   0.078915 0.422421 0.450524 -0.111770
C25   C     C_R   0.518897 0.493008 0.347145 0.831727
C26   C     C_R   0.468645 0.489157 0.739032 -0.074502
C27   C     C_R   0.580263 0.515998 0.782041 -0.332061
C28   C     C_R   0.574755 0.492539 0.863517 0.488165
C29   C     C_R   0.456502 0.438444 0.900548 0.146637
C30   C     C_R   0.342738 0.418620 0.858402 -0.266047
C31   C     C_R   0.417944 0.396558 0.231750 -0.216679
C32   C     C_R   0.653651 0.460613 0.216498 -0.205038
C33   C     C_R   0.662699 0.417025 0.137353 -0.136979
C34   C     C_R   0.548317 0.366418 0.105205 0.181663
C35   C     C_2   0.445690 0.409391 0.984766 -0.188456
C36   C     C_2   0.547484 0.355880 0.018781 -0.177566
H1    H     H_    0.671674 0.554557 0.752255 0.152868
H2    H     H_    0.737712 0.672169 0.607850 0.196229
H3    H     H_    0.847586 0.810049 0.696434 0.146778
H4    H     H_    0.322453 0.386251 0.267388 0.147245
H5    H     H_    0.095837 0.808464 0.697135 0.150656
H6    H     H_    0.231284 0.668890 0.608877 0.202821
H7    H     H_    0.138617 0.358964 0.410102 0.139046
H8    H     H_    0.741982 0.501787 0.240503 0.153487
H9    H     H_    0.639348 0.326251 0.983227 0.184212
H10   H     H_    0.250422 0.380735 0.887552 0.154322
H11   H     H_    0.339651 0.308927 0.130045 0.125407
H12   H     H_    0.756055 0.429843 0.100016 0.142936
H13   H     H_    0.261036 0.423313 0.745452 0.172882
H14   H     H_    0.354308 0.440732 0.020187 0.143598
H15   H     H_    0.755001 0.561545 0.872671 0.327556
H16   H     H_    0.606816 0.890731 0.599467 0.138745
H17   H     H_    0.393226 0.760962 0.361626 0.155224
H18   H     H_    0.297979 0.872243 0.255008 0.139250
H19   H     H_    0.297023 0.104715 0.255441 0.133427
H20   H     H_    0.391301 0.225661 0.362627 0.140916
H21   H     H_    0.606930 0.118742 0.599374 0.155221
H22   H     H_    0.888102 0.358835 0.410146 0.147140
N1    N     N_R   0.857140 0.501200 0.500750 -0.120650
N2    N     N_R   0.142740 0.501280 0.500770 -0.120563
O1    O     O_R   0.385310 0.683220 0.500000 -0.636815
O2    O     O_R   0.614640 0.683250 0.500010 -0.626748
O3    O     O_R   0.371780 0.500010 0.615800 -0.637921
O4    O     O_R   0.601110 0.500030 0.615800 -0.633087
O5    O     O_R   0.385360 0.316750 0.499990 -0.616224
O6    O     O_R   0.614690 0.316780 0.500000 -0.608824
O7    O     O_R   0.398890 0.499970 0.384200 -0.630733
O8    O     O_R   0.628220 0.499990 0.384200 -0.611536
O9    O     O_3   0.681233 0.524270 0.907987 -0.795102
Zn1   Zn    Zn3+2 0.346870 0.499980 0.499990 0.928109
Zn2   Zn    Zn3+2 0.653130 0.500020 0.500010 0.940305

loop_
_geom_bond_atom_site_label_1
_geom_bond_atom_site_label_2
_ccdc_geom_bond_type
O1    Zn1   S    
C22   H22   S    
C4    C26   S    
C19   H6    S    
C15   H2    S    
C21   N1    A    
C6    C7    A    
C3    C9    A    
C20   N2    A    
C3    H17   S    
C9    C10   A    
C4    O4    A    
C28   O9    S    
C25   O7    A    
O3    Zn1   S    
N2    Zn1   S    
C6    H19   S    
C24   N2    A    
C23   C34   A    
C32   C33   A    
O7    Zn1   S    
C35   H14   S    
C17   C18   A    
C32   H8    S    
C7    C8    A    
C13   C14   A    
C1    O2    A    
C33   H12   S    
C11   C13   A    
C4    O3    A    
C26   C27   A    
C29   C30   A    
C25   O8    A    
C7    H20   S    
C27   H1    S    
O8    Zn2   S    
C36   H9    S    
C22   C24   A    
C28   C29   A    
C16   O5    A    
C33   C34   A    
O2    Zn2   S    
C12   H13   S    
C2    C25   S    
C34   C36   S    
C5    C6    A    
C14   C16   S    
C18   H5    S    
C16   O6    A    
C10   C11   A    
C23   H11   S    
C19   C20   A    
O5    Zn1   S    
C3    C5    A    
C5    H18   S    
C15   C21   A    
C13   H21   S    
C31   H4    S    
C2    C32   A    
C18   C19   A    
C17   H3    S    
O4    Zn2   S    
N1    Zn2   S    
C22   N1    A    
C15   C17   A    
C24   H7    S    
C29   C35   S    
C23   C31   A    
C8    C9    A    
C8    C14   A    
C11   H16   S    
H15   O9    S    
C12   C30   A    
C20   C21   A    
C30   H10   S    
C1    C10   S    
O6    Zn2   S    
C12   C26   A    
C2    C31   A    
C27   C28   A    
C35   C36   D    
C1    O1    A    
