data_mof_unit_60837.cif
_audit_creation_date              2012-12-10T18:21:46-0500
_audit_creation_method            fapswitch 2.2
_symmetry_space_group_name_H-M    P1
_symmetry_Int_Tables_number       1
_space_group_crystal_system       triclinic
_cell_length_a                    35.800098
_cell_length_b                    35.776758
_cell_length_c                    29.338737
_cell_angle_alpha                 90.036184
_cell_angle_beta                  90.079098
_cell_angle_gamma                 89.903803
_cell_volume                      37577.2938488

loop_
_atom_site_label
_atom_site_type_symbol
_atom_type_description
_atom_site_fract_x
_atom_site_fract_y
_atom_site_fract_z
_atom_type_partial_charge
C1    C     C_R   0.000047 0.428023 0.499914 0.829889
C2    C     C_R   0.428005 0.000026 0.500055 0.826226
C3    C     C_R   0.999959 0.571972 0.499837 0.829725
C4    C     C_R   0.572108 0.999970 0.500038 0.834821
C5    C     C_R   0.500028 0.928026 0.000000 0.827059
C6    C     C_R   0.928020 0.500036 0.000208 0.829538
C7    C     C_R   0.499972 0.071982 0.999996 0.827233
C8    C     C_R   0.071980 0.499980 0.999799 0.829613
C9    C     C_1   0.002514 0.234095 0.495768 -0.037561
C10   C     C_1   0.234177 0.000642 0.500896 -0.031005
C11   C     C_1   0.998829 0.765872 0.495066 -0.037422
C12   C     C_1   0.766162 0.999138 0.500825 -0.033211
C13   C     C_1   0.500108 0.734244 0.000001 -0.030241
C14   C     C_1   0.734133 0.500416 0.005189 -0.036305
C15   C     C_1   0.499874 0.265801 0.999904 -0.031195
C16   C     C_1   0.265866 0.500180 0.994975 -0.036415
C17   C     C_1   0.002024 0.267778 0.495797 -0.026343
C18   C     C_1   0.267817 0.000443 0.500722 -0.022637
C19   C     C_1   0.999147 0.732190 0.495150 -0.026229
C20   C     C_1   0.732547 0.999262 0.500746 -0.024827
C21   C     C_1   0.500127 0.767884 0.999994 -0.023177
C22   C     C_1   0.767812 0.500165 0.005111 -0.026570
C23   C     C_1   0.499868 0.232158 0.999916 -0.022660
C24   C     C_1   0.232189 0.499884 0.995059 -0.026532
C25   C     C_R   0.009115 0.327210 0.537907 -0.015108
C26   C     C_R   0.327938 0.994229 0.541515 -0.015742
C27   C     C_R   0.991852 0.672959 0.537535 -0.014576
C28   C     C_R   0.672647 0.018675 0.535042 -0.018961
C29   C     C_R   0.007765 0.671321 0.456420 -0.019634
C30   C     C_R   0.327638 0.006098 0.459333 -0.016041
C31   C     C_R   0.992394 0.328460 0.456978 -0.019401
C32   C     C_R   0.672662 0.980475 0.465847 -0.018669
C33   C     C_R   0.505394 0.827850 0.041239 -0.015765
C34   C     C_R   0.828789 0.492430 0.043945 -0.019771
C35   C     C_R   0.493875 0.172239 0.041019 -0.015821
C36   C     C_R   0.173000 0.507077 0.037600 -0.014503
C37   C     C_R   0.505871 0.172158 0.958862 -0.015815
C38   C     C_R   0.826960 0.507188 0.962496 -0.014445
C39   C     C_R   0.494868 0.827822 0.958738 -0.015794
C40   C     C_R   0.171259 0.491930 0.956234 -0.019697
C41   C     C_R   0.008686 0.366766 0.539248 0.065597
C42   C     C_R   0.367478 0.994037 0.541631 0.065925
C43   C     C_R   0.991920 0.633406 0.538988 0.065265
C44   C     C_R   0.633107 0.018096 0.535951 0.069968
C45   C     C_R   0.007723 0.631757 0.457289 0.068020
C46   C     C_R   0.367182 0.006151 0.458919 0.065920
C47   C     C_R   0.992083 0.368029 0.457725 0.068012
C48   C     C_R   0.633131 0.981483 0.464536 0.070326
C49   C     C_R   0.505533 0.867403 0.041496 0.065491
C50   C     C_R   0.868338 0.492651 0.043014 0.068188
C51   C     C_R   0.493777 0.132684 0.041303 0.065704
C52   C     C_R   0.133460 0.507341 0.039032 0.065099
C53   C     C_R   0.506007 0.132603 0.958615 0.065800
C54   C     C_R   0.866498 0.507397 0.961023 0.065025
C55   C     C_R   0.494685 0.867375 0.958484 0.065482
C56   C     C_R   0.131708 0.492225 0.957115 0.068210
C57   C     C_R   0.000258 0.386935 0.498977 -0.098023
C58   C     C_R   0.386894 0.000085 0.500205 -0.099234
C59   C     C_R   0.999809 0.613050 0.498700 -0.098071
C60   C     C_R   0.613398 0.999879 0.500156 -0.102074
C61   C     C_R   0.500091 0.886936 0.999992 -0.099541
C62   C     C_R   0.886946 0.500147 0.001434 -0.098277
C63   C     C_R   0.499910 0.113086 0.999970 -0.099419
C64   C     C_R   0.113055 0.499960 0.998629 -0.098226
C65   C     C_R   0.001201 0.308251 0.496827 -0.032006
C66   C     C_R   0.308269 0.000241 0.500512 -0.032652
C67   C     C_R   0.999602 0.691721 0.496319 -0.032137
C68   C     C_R   0.692141 0.999454 0.500559 -0.028153
C69   C     C_R   0.500135 0.808324 0.999989 -0.032800
C70   C     C_R   0.808286 0.499889 0.003894 -0.032410
C71   C     C_R   0.499868 0.191712 0.999933 -0.032636
C72   C     C_R   0.191716 0.499580 0.996258 -0.032381
C73   C     C_R   0.072962 0.000254 0.500019 0.843472
C74   C     C_R   0.000474 0.927066 0.499877 0.844089
C75   C     C_R   0.927089 0.999820 0.499965 0.845713
C76   C     C_R   0.999614 0.072932 0.499954 0.844031
C77   C     C_R   0.572937 0.499544 0.000109 0.844335
C78   C     C_R   0.499993 0.427036 0.999987 0.844948
C79   C     C_R   0.427065 0.499551 0.999891 0.844247
C80   C     C_R   0.499991 0.572978 0.000012 0.843470
C81   C     C_R   0.999981 0.499999 0.415317 0.813122
C82   C     C_R   0.499821 0.999987 0.415308 0.810693
C83   C     C_R   0.000018 0.500004 0.584684 0.812458
C84   C     C_R   0.499820 0.000013 0.584691 0.810429
C85   C     C_R   0.499975 0.999999 0.915316 0.810774
C86   C     C_R   0.999862 0.499986 0.915308 0.812913
C87   C     C_R   0.500018 0.999996 0.084683 0.810785
C88   C     C_R   0.000135 0.500005 0.084692 0.812949
C89   C     C_1   0.999966 0.500001 0.364079 -0.200147
C90   C     C_1   0.499747 0.999963 0.364069 -0.201351
C91   C     C_1   0.000035 0.499998 0.635918 -0.199213
C92   C     C_1   0.499723 0.000034 0.635930 -0.201385
C93   C     C_1   0.499914 0.000006 0.864083 -0.199549
C94   C     C_1   0.999763 0.499955 0.864072 -0.199767
C95   C     C_1   0.500031 0.999978 0.135917 -0.199550
C96   C     C_1   0.000230 0.500009 0.135928 -0.199942
C97   C     C_1   0.000009 0.500003 0.321606 -0.018088
C98   C     C_1   0.499762 0.999949 0.321597 -0.013690
C99   C     C_1   0.999991 0.499987 0.678391 -0.015180
C100  C     C_1   0.499711 0.000043 0.678402 -0.013886
C101  C     C_1   0.499859 0.000018 0.821611 -0.015325
C102  C     C_1   0.999767 0.499949 0.821599 -0.016268
C103  C     C_1   0.499986 0.999963 0.178389 -0.015324
C104  C     C_1   0.000227 0.500007 0.178401 -0.016667
C105  C     C_1   0.000089 0.500005 0.271244 -0.003669
C106  C     C_1   0.499831 0.999944 0.271233 -0.003957
C107  C     C_1   0.999909 0.499970 0.728756 -0.004151
C108  C     C_1   0.499746 0.000043 0.728766 -0.003893
C109  C     C_1   0.499794 0.000034 0.771246 -0.004398
C110  C     C_1   0.999836 0.499958 0.771236 -0.003819
C111  C     C_1   0.499903 0.999949 0.228753 -0.004437
C112  C     C_1   0.000160 0.500006 0.228764 -0.004006
C113  C     C_R   0.019566 0.174369 0.533156 0.098280
C114  C     C_R   0.174174 0.982317 0.536087 0.099352
C115  C     C_R   0.981133 0.825419 0.532323 0.098711
C116  C     C_R   0.826188 0.013739 0.538549 0.099256
C117  C     C_R   0.016750 0.826415 0.460847 0.101328
C118  C     C_R   0.174270 0.019271 0.465494 0.101847
C119  C     C_R   0.984582 0.173719 0.461096 0.100782
C120  C     C_R   0.825939 0.984733 0.462615 0.099402
C121  C     C_R   0.518017 0.674288 0.035734 0.100370
C122  C     C_R   0.673453 0.482602 0.039215 0.101418
C123  C     C_R   0.481414 0.325800 0.035172 0.100106
C124  C     C_R   0.325234 0.517971 0.032511 0.098339
C125  C     C_R   0.518384 0.325700 0.964655 0.100019
C126  C     C_R   0.674705 0.518104 0.967614 0.098489
C127  C     C_R   0.482088 0.674333 0.964299 0.100313
C128  C     C_R   0.326607 0.482500 0.960832 0.101291
C129  C     C_R   0.018387 0.134815 0.534486 -0.072354
C130  C     C_R   0.134616 0.982186 0.535698 -0.070817
C131  C     C_R   0.981904 0.864980 0.533753 -0.073125
C132  C     C_R   0.865643 0.015684 0.537118 -0.069393
C133  C     C_R   0.018047 0.865913 0.462814 -0.068967
C134  C     C_R   0.134723 0.018811 0.465023 -0.073341
C135  C     C_R   0.982646 0.134261 0.463133 -0.069239
C136  C     C_R   0.865417 0.983560 0.463230 -0.069881
C137  C     C_R   0.517856 0.634716 0.035771 -0.073745
C138  C     C_R   0.633962 0.481498 0.037142 -0.068857
C139  C     C_R   0.481632 0.365365 0.035230 -0.070838
C140  C     C_R   0.364774 0.517409 0.034031 -0.073326
C141  C     C_R   0.518242 0.365266 0.964651 -0.070714
C142  C     C_R   0.635170 0.517465 0.966037 -0.073621
C143  C     C_R   0.482171 0.634762 0.964285 -0.073583
C144  C     C_R   0.366104 0.481471 0.962848 -0.069009
C145  C     C_R   0.999915 0.114589 0.499488 -0.198274
C146  C     C_R   0.114681 0.000381 0.500166 -0.196743
C147  C     C_R   0.000450 0.885401 0.499119 -0.199292
C148  C     C_R   0.885472 0.999731 0.500015 -0.196001
C149  C     C_R   0.500001 0.614717 0.000029 -0.198516
C150  C     C_R   0.614604 0.499229 0.000802 -0.197748
C151  C     C_R   0.499958 0.385310 0.999957 -0.193044
C152  C     C_R   0.385400 0.499208 0.999211 -0.197685
C153  C     C_R   0.002434 0.193586 0.496538 0.050471
C154  C     C_R   0.193713 0.000888 0.500955 0.047303
C155  C     C_R   0.998817 0.806375 0.495995 0.049548
C156  C     C_R   0.806571 0.999055 0.500755 0.051844
C157  C     C_R   0.500075 0.693789 0.000009 0.047859
C158  C     C_R   0.693625 0.500497 0.004133 0.049643
C159  C     C_R   0.499885 0.306259 0.999904 0.046944
C160  C     C_R   0.306373 0.500326 0.995991 0.049688
Cu1   Cu    Cu3+1 0.962730 0.500000 0.500000 0.922772
Cu2   Cu    Cu3+1 0.500000 0.037270 0.500000 0.923933
Cu3   Cu    Cu3+1 0.037270 0.500000 0.500000 0.922913
Cu4   Cu    Cu3+1 0.500000 0.962730 0.500000 0.924045
Cu5   Cu    Cu3+1 0.462730 0.000000 0.000000 0.924071
Cu6   Cu    Cu3+1 0.000000 0.537270 0.000000 0.922813
Cu7   Cu    Cu3+1 0.537270 0.000000 0.000000 0.923480
Cu8   Cu    Cu3+1 1.000000 0.462730 0.000000 0.923271
Cu9   Cu    Cu3+1 0.000000 0.000000 0.457530 0.987175
Cu10  Cu    Cu3+1 0.000000 0.000000 0.542470 0.999402
Cu11  Cu    Cu3+1 0.500000 0.500000 0.957530 0.994101
Cu12  Cu    Cu3+1 0.500000 0.500000 0.042470 0.994083
O1    O     O_R   0.968530 0.445640 0.500010 -0.587244
O2    O     O_R   0.445640 0.031470 0.500010 -0.586519
O3    O     O_R   0.031470 0.554360 0.500010 -0.587074
O4    O     O_R   0.554360 0.968530 0.500010 -0.588589
O5    O     O_R   0.968530 0.554360 0.499990 -0.587533
O6    O     O_R   0.445640 0.968530 0.499990 -0.586573
O7    O     O_R   0.031470 0.445640 0.499990 -0.587492
O8    O     O_R   0.554360 0.031470 0.499990 -0.588655
O9    O     O_R   0.468530 0.945640 0.000010 -0.586027
O10   O     O_R   0.945640 0.531470 0.000010 -0.587320
O11   O     O_R   0.531470 0.054360 0.000010 -0.586306
O12   O     O_R   0.054360 0.468530 0.000010 -0.587128
O13   O     O_R   0.468530 0.054360 0.999990 -0.586240
O14   O     O_R   0.945640 0.468530 0.999990 -0.587078
O15   O     O_R   0.531470 0.945640 0.999990 -0.586115
O16   O     O_R   0.054360 0.531470 0.999990 -0.587331
O17   O     O_R   0.968530 0.500000 0.438040 -0.569391
O18   O     O_R   0.500000 0.031470 0.438040 -0.569242
O19   O     O_R   0.031470 0.500000 0.438040 -0.569512
O20   O     O_R   0.500000 0.968530 0.438040 -0.564251
O21   O     O_R   0.968530 0.500000 0.561960 -0.568066
O22   O     O_R   0.500000 0.968530 0.561960 -0.569357
O23   O     O_R   0.031470 0.500000 0.561960 -0.568224
O24   O     O_R   0.500000 0.031470 0.561960 -0.564323
O25   O     O_R   0.468530 0.000000 0.938040 -0.568276
O26   O     O_R   0.000000 0.531470 0.938040 -0.569670
O27   O     O_R   0.531470 0.000000 0.938040 -0.568343
O28   O     O_R   0.000000 0.468530 0.938040 -0.567892
O29   O     O_R   0.468530 0.000000 0.061960 -0.568079
O30   O     O_R   1.000000 0.468530 0.061960 -0.568052
O31   O     O_R   0.531470 0.000000 0.061960 -0.568517
O32   O     O_R   1.000000 0.531470 0.061960 -0.569759
O33   O     O_R   0.054260 0.999990 0.464160 -0.570112
O34   O     O_R   0.999990 0.945740 0.464160 -0.574597
O35   O     O_R   0.945740 0.000010 0.464160 -0.571909
O36   O     O_R   0.000010 0.054260 0.464160 -0.574819
O37   O     O_R   0.054260 0.000010 0.535840 -0.568070
O38   O     O_R   0.999990 0.054260 0.535840 -0.566731
O39   O     O_R   0.945740 0.999990 0.535840 -0.568270
O40   O     O_R   0.000010 0.945740 0.535840 -0.567153
O41   O     O_R   0.554260 0.499990 0.964160 -0.568099
O42   O     O_R   0.499990 0.445740 0.964160 -0.568904
O43   O     O_R   0.445740 0.500010 0.964160 -0.573424
O44   O     O_R   0.500010 0.554260 0.964160 -0.569604
O45   O     O_R   0.554260 0.500010 0.035840 -0.573397
O46   O     O_R   0.499990 0.554260 0.035840 -0.569639
O47   O     O_R   0.445740 0.499990 0.035840 -0.567987
O48   O     O_R   0.500010 0.445740 0.035840 -0.569002
C161  C     C_3   0.040773 0.196222 0.569461 -0.380705
C162  C     C_3   0.080059 0.205851 0.553134 -0.815785
H1    H     H_    0.095623 0.179977 0.544286 0.244986
H2    H     H_    0.078825 0.224336 0.522785 0.251631
H3    H     H_    0.095453 0.220589 0.580620 0.237555
H4    H     H_    0.025455 0.222148 0.578165 0.225773
H5    H     H_    0.042954 0.180779 0.602071 0.201698
C163  C     C_3   0.195841 0.961511 0.573002 -0.381534
C164  C     C_3   0.206987 0.922505 0.556853 -0.822183
H6    H     H_    0.181763 0.906101 0.547686 0.246549
H7    H     H_    0.225665 0.924249 0.526756 0.250567
H8    H     H_    0.222052 0.907684 0.584579 0.237911
H9    H     H_    0.221139 0.977440 0.582749 0.224814
H10   H     H_    0.179779 0.958867 0.605060 0.201131
C165  C     C_3   0.959724 0.803328 0.568146 -0.380202
C166  C     C_3   0.920685 0.793390 0.551079 -0.815951
H11   H     H_    0.904936 0.819157 0.542244 0.245793
H12   H     H_    0.922361 0.775097 0.520566 0.251418
H13   H     H_    0.905214 0.778325 0.578165 0.237440
H14   H     H_    0.975178 0.777530 0.577022 0.225995
H15   H     H_    0.957083 0.818642 0.600797 0.202281
C167  C     C_3   0.804807 0.026827 0.580531 -0.375499
C168  C     C_3   0.794185 0.993515 0.610359 -0.829389
H16   H     H_    0.772485 0.976308 0.593328 0.253555
H17   H     H_    0.818943 0.975703 0.617341 0.234428
H18   H     H_    0.783074 0.003554 0.643440 0.240736
H19   H     H_    0.820927 0.046948 0.601449 0.203331
H20   H     H_    0.779349 0.042371 0.570329 0.223999
C169  C     C_3   0.032158 0.805767 0.419473 -0.383288
C170  C     C_3   0.001381 0.800226 0.384069 -0.800032
H21   H     H_    0.980860 0.779303 0.396332 0.256483
H22   H     H_    0.986477 0.826831 0.377184 0.231440
H23   H     H_    0.013767 0.790467 0.351589 0.245180
H24   H     H_    0.055730 0.820939 0.403517 0.202342
H25   H     H_    0.044149 0.778294 0.429184 0.210079
C171  C     C_3   0.196047 0.039589 0.428362 -0.379500
C172  C     C_3   0.208610 0.078138 0.444553 -0.822777
H26   H     H_    0.184087 0.095238 0.454696 0.244466
H27   H     H_    0.227948 0.075684 0.474006 0.251171
H28   H     H_    0.223384 0.092719 0.416501 0.238476
H29   H     H_    0.220687 0.022806 0.418118 0.224244
H30   H     H_    0.179658 0.043009 0.396564 0.203773
C173  C     C_3   0.969892 0.194496 0.419411 -0.381384
C174  C     C_3   0.001295 0.200094 0.384952 -0.802003
H31   H     H_    0.021482 0.221157 0.397774 0.256138
H32   H     H_    0.016460 0.173542 0.378620 0.230738
H33   H     H_    0.989483 0.209687 0.352055 0.245288
H34   H     H_    0.946588 0.179436 0.402625 0.203372
H35   H     H_    0.957758 0.221927 0.428988 0.210978
C175  C     C_3   0.804361 0.972005 0.420573 -0.373836
C176  C     C_3   0.794572 0.005474 0.390521 -0.827535
H36   H     H_    0.773721 0.023635 0.407715 0.251922
H37   H     H_    0.819896 0.022203 0.382960 0.236308
H38   H     H_    0.782696 0.995644 0.357727 0.240620
H39   H     H_    0.820151 0.951411 0.399914 0.204968
H40   H     H_    0.778544 0.957132 0.430598 0.223945
C177  C     C_3   0.537881 0.696027 0.073362 -0.379973
C178  C     C_3   0.576751 0.708260 0.058175 -0.821355
H41   H     H_    0.593841 0.683559 0.048615 0.245224
H42   H     H_    0.574909 0.727482 0.028572 0.250792
H43   H     H_    0.590948 0.723085 0.086552 0.238294
H44   H     H_    0.521153 0.720846 0.083139 0.224188
H45   H     H_    0.540627 0.679679 0.105255 0.203023
C179  C     C_3   0.693987 0.466781 0.080454 -0.385070
C180  C     C_3   0.700177 0.497410 0.115881 -0.799900
H46   H     H_    0.721375 0.517617 0.103559 0.257886
H47   H     H_    0.673879 0.512763 0.122922 0.230705
H48   H     H_    0.709844 0.484776 0.148281 0.245470
H49   H     H_    0.678482 0.443427 0.096453 0.202012
H50   H     H_    0.721210 0.454357 0.070550 0.208939
C181  C     C_3   0.460749 0.304140 0.072097 -0.380412
C182  C     C_3   0.421968 0.292510 0.055786 -0.823357
H51   H     H_    0.405315 0.317521 0.046226 0.245515
H52   H     H_    0.424032 0.273564 0.025912 0.250824
H53   H     H_    0.407212 0.277567 0.083569 0.238187
H54   H     H_    0.476991 0.279057 0.082086 0.224705
H55   H     H_    0.457738 0.320372 0.104050 0.202196
C183  C     C_3   0.302955 0.538841 0.068725 -0.379477
C184  C     C_3   0.292134 0.577835 0.052171 -0.816032
H56   H     H_    0.317480 0.594023 0.043068 0.244797
H57   H     H_    0.273540 0.576044 0.021938 0.251666
H58   H     H_    0.277120 0.592980 0.079634 0.237492
H59   H     H_    0.277550 0.522877 0.077623 0.225734
H60   H     H_    0.318427 0.541557 0.101283 0.202431
C185  C     C_3   0.539025 0.303927 0.927717 -0.380488
C186  C     C_3   0.577808 0.292169 0.944004 -0.823291
H61   H     H_    0.594476 0.317130 0.953548 0.245583
H62   H     H_    0.575748 0.273266 0.973883 0.250792
H63   H     H_    0.592546 0.277139 0.916214 0.238153
H64   H     H_    0.522772 0.278892 0.917734 0.224684
H65   H     H_    0.542025 0.320118 0.895765 0.202108
C187  C     C_3   0.696914 0.538955 0.931413 -0.379406
C188  C     C_3   0.707646 0.577945 0.948001 -0.816253
H66   H     H_    0.682266 0.594159 0.957132 0.244731
H67   H     H_    0.726257 0.576153 0.978220 0.251713
H68   H     H_    0.722614 0.593063 0.920542 0.237532
H69   H     H_    0.722354 0.522964 0.922485 0.225748
H70   H     H_    0.681423 0.541679 0.898865 0.202574
C189  C     C_3   0.462263 0.696125 0.926662 -0.379953
C190  C     C_3   0.423418 0.708587 0.941847 -0.821358
H71   H     H_    0.406282 0.683992 0.951430 0.245249
H72   H     H_    0.425301 0.727845 0.971435 0.250788
H73   H     H_    0.409247 0.723442 0.913462 0.238255
H74   H     H_    0.479041 0.720840 0.916867 0.224183
H75   H     H_    0.459483 0.679746 0.894780 0.202969
C191  C     C_3   0.306120 0.466699 0.919562 -0.384720
C192  C     C_3   0.299725 0.497372 0.884262 -0.799928
H76   H     H_    0.278413 0.517502 0.896681 0.257636
H77   H     H_    0.325927 0.512807 0.877260 0.230787
H78   H     H_    0.290117 0.484769 0.851817 0.245441
H79   H     H_    0.321737 0.443404 0.903450 0.201970
H80   H     H_    0.278979 0.454200 0.929464 0.209184
C193  C     C_R   0.038140 0.114513 0.571439 0.151957
C194  C     C_R   0.074057 0.100103 0.564031 -0.131195
C195  C     C_R   0.092389 0.080270 0.598450 -0.129757
C196  C     C_R   0.074906 0.074699 0.640482 -0.113582
C197  C     C_R   0.039171 0.089182 0.648182 -0.139353
C198  C     C_R   0.020858 0.109166 0.613828 -0.135516
H81   H     H_    0.087799 0.104441 0.531778 0.099533
H82   H     H_    0.120143 0.069280 0.592499 0.117955
H83   H     H_    0.089088 0.059312 0.667144 0.108573
H84   H     H_    0.025707 0.085014 0.680787 0.114614
H85   H     H_    0.993419 0.120668 0.620203 0.108003
C199  C     C_R   0.114071 0.961057 0.571175 0.154941
C200  C     C_R   0.100130 0.925319 0.561517 -0.136663
C201  C     C_R   0.080223 0.905594 0.594596 -0.131097
C202  C     C_R   0.074096 0.921511 0.637491 -0.109936
C203  C     C_R   0.087871 0.957156 0.647309 -0.140353
C204  C     C_R   0.107864 0.976893 0.614297 -0.135695
H86   H     H_    0.104863 0.912830 0.528516 0.101386
H87   H     H_    0.069599 0.877983 0.586952 0.116475
H88   H     H_    0.058778 0.906217 0.663183 0.107697
H89   H     H_    0.083159 0.969442 0.680530 0.114672
H90   H     H_    0.118761 0.004284 0.622330 0.107254
C205  C     C_R   0.961300 0.885032 0.570156 0.154288
C206  C     C_R   0.925456 0.899256 0.561604 -0.129946
C207  C     C_R   0.905919 0.918000 0.595917 -0.133706
C208  C     C_R   0.922149 0.922714 0.638921 -0.116985
C209  C     C_R   0.957924 0.908699 0.647604 -0.139061
C210  C     C_R   0.977443 0.889805 0.613374 -0.137862
H91   H     H_    0.912649 0.895485 0.528586 0.100084
H92   H     H_    0.878180 0.928756 0.589171 0.119385
H93   H     H_    0.906981 0.937093 0.665581 0.108552
H94   H     H_    0.970432 0.912269 0.680925 0.115226
H95   H     H_    0.004822 0.878457 0.620579 0.107295
C211  C     C_R   0.886061 0.036690 0.572958 0.138591
C212  C     C_R   0.898752 0.073006 0.563926 -0.156289
C213  C     C_R   0.918282 0.092956 0.597231 -0.130436
C214  C     C_R   0.925278 0.076724 0.639742 -0.114473
C215  C     C_R   0.912729 0.040541 0.648952 -0.148038
C216  C     C_R   0.893093 0.020581 0.615723 -0.099186
H96   H     H_    0.893350 0.085785 0.531203 0.106059
H97   H     H_    0.927924 0.120997 0.590063 0.116633
H98   H     H_    0.940345 0.092182 0.665586 0.108965
H99   H     H_    0.918143 0.027989 0.681864 0.115522
H100  H     H_    0.883355 0.992744 0.623268 0.112530
C217  C     C_R   0.038773 0.886612 0.427051 0.145436
C218  C     C_R   0.077281 0.892707 0.431743 -0.183732
C219  C     C_R   0.097053 0.911210 0.397480 -0.138693
C220  C     C_R   0.078525 0.923442 0.358224 -0.123688
C221  C     C_R   0.040193 0.917353 0.353293 -0.143998
C222  C     C_R   0.020396 0.898822 0.387475 -0.077451
H101  H     H_    0.092009 0.882410 0.461378 0.110207
H102  H     H_    0.126772 0.915835 0.401206 0.122632
H103  H     H_    0.093874 0.937583 0.331587 0.109851
H104  H     H_    0.025854 0.926840 0.322920 0.112109
H105  H     H_    0.990826 0.894027 0.383283 0.114622
C223  C     C_R   0.114441 0.038385 0.427950 0.144962
C224  C     C_R   0.104792 0.076203 0.432410 -0.136540
C225  C     C_R   0.086243 0.094645 0.396995 -0.140961
C226  C     C_R   0.077457 0.075449 0.356861 -0.127778
C227  C     C_R   0.087293 0.037829 0.352080 -0.140631
C228  C     C_R   0.105953 0.019394 0.387407 -0.122493
H106  H     H_    0.112230 0.091465 0.462834 0.103335
H107  H     H_    0.078812 0.123840 0.400586 0.122466
H108  H     H_    0.063153 0.089759 0.329411 0.110977
H109  H     H_    0.080666 0.023023 0.320928 0.114334
H110  H     H_    0.114106 0.990507 0.383245 0.118842
C229  C     C_R   0.961156 0.113892 0.427700 0.144384
C230  C     C_R   0.922728 0.107948 0.433412 -0.180111
C231  C     C_R   0.901940 0.090788 0.398910 -0.141804
C232  C     C_R   0.919394 0.079674 0.358485 -0.129276
C233  C     C_R   0.957709 0.085271 0.352750 -0.146323
C234  C     C_R   0.978520 0.102477 0.387156 -0.078381
H111  H     H_    0.908832 0.117410 0.464029 0.110437
H112  H     H_    0.872262 0.086372 0.403343 0.123536
H113  H     H_    0.903240 0.066659 0.331626 0.111610
H114  H     H_    0.971228 0.076545 0.321524 0.113298
H115  H     H_    0.008017 0.107111 0.382225 0.114679
C235  C     C_R   0.885532 0.964257 0.425828 0.139928
C236  C     C_R   0.894274 0.926160 0.429641 -0.167962
C237  C     C_R   0.912735 0.907763 0.394155 -0.139758
C238  C     C_R   0.922378 0.927285 0.354615 -0.129859
C239  C     C_R   0.913456 0.965180 0.350489 -0.145349
C240  C     C_R   0.894875 0.983564 0.385884 -0.084283
H116  H     H_    0.886263 0.910693 0.459688 0.109031
H117  H     H_    0.919475 0.878365 0.397250 0.123171
H118  H     H_    0.936677 0.913027 0.327147 0.111822
H119  H     H_    0.920792 0.980265 0.319825 0.114064
H120  H     H_    0.887659 0.012698 0.382330 0.117981
C241  C     C_R   0.537828 0.614386 0.072515 0.150298
C242  C     C_R   0.575316 0.604016 0.066895 -0.134523
C243  C     C_R   0.594301 0.585475 0.101879 -0.140905
C244  C     C_R   0.575951 0.577326 0.142720 -0.126683
C245  C     C_R   0.538626 0.587741 0.148604 -0.139616
C246  C     C_R   0.519647 0.606407 0.113709 -0.126499
H121  H     H_    0.589896 0.610893 0.035849 0.101904
H122  H     H_    0.623261 0.577549 0.097396 0.122455
H123  H     H_    0.590684 0.563048 0.169856 0.110561
H124  H     H_    0.524479 0.581582 0.180293 0.114742
H125  H     H_    0.491029 0.615033 0.118836 0.112383
C247  C     C_R   0.613062 0.460606 0.072595 0.143780
C248  C     C_R   0.605546 0.422451 0.066655 -0.180971
C249  C     C_R   0.586362 0.402580 0.100276 -0.135507
C250  C     C_R   0.574923 0.420643 0.140178 -0.119428
C251  C     C_R   0.582460 0.458612 0.146373 -0.143965
C252  C     C_R   0.601602 0.478514 0.112784 -0.079433
H126  H     H_    0.615152 0.408073 0.036467 0.109327
H127  H     H_    0.580595 0.373141 0.095545 0.122388
H128  H     H_    0.560325 0.405214 0.166373 0.108874
H129  H     H_    0.573583 0.472595 0.177246 0.112621
H130  H     H_    0.607406 0.507802 0.117904 0.112975
C253  C     C_R   0.461256 0.385852 0.071413 0.150937
C254  C     C_R   0.424555 0.398092 0.063931 -0.136875
C255  C     C_R   0.405330 0.417270 0.098148 -0.135131
C256  C     C_R   0.422732 0.424395 0.139965 -0.113532
C257  C     C_R   0.459330 0.412227 0.147617 -0.141851
C258  C     C_R   0.478517 0.392850 0.113509 -0.130193
H131  H     H_    0.410836 0.392379 0.031897 0.101862
H132  H     H_    0.376922 0.426488 0.092258 0.116032
H133  H     H_    0.407829 0.439200 0.166505 0.108264
H134  H     H_    0.472750 0.417625 0.180031 0.114390
H135  H     H_    0.506599 0.382979 0.119829 0.114352
C259  C     C_R   0.384543 0.537675 0.070952 0.151638
C260  C     C_R   0.396715 0.574446 0.064055 -0.132583
C261  C     C_R   0.415286 0.593603 0.098832 -0.136745
C262  C     C_R   0.421823 0.576091 0.140695 -0.117995
C263  C     C_R   0.409585 0.539485 0.147861 -0.139429
C264  C     C_R   0.390813 0.520367 0.113178 -0.132328
H136  H     H_    0.391362 0.588295 0.032045 0.100750
H137  H     H_    0.424495 0.622045 0.093341 0.118235
H138  H     H_    0.436195 0.590932 0.167648 0.109034
H139  H     H_    0.414447 0.526007 0.180352 0.114404
H140  H     H_    0.380805 0.492342 0.119244 0.110058
C265  C     C_R   0.538688 0.385650 0.928526 0.151150
C266  C     C_R   0.575348 0.397836 0.936155 -0.137065
C267  C     C_R   0.594628 0.416966 0.902026 -0.135260
C268  C     C_R   0.577323 0.424090 0.860146 -0.113516
C269  C     C_R   0.540769 0.411969 0.852343 -0.141769
C270  C     C_R   0.521526 0.392646 0.886367 -0.130394
H141  H     H_    0.588986 0.392124 0.968242 0.101894
H142  H     H_    0.623001 0.426151 0.908036 0.115991
H143  H     H_    0.592268 0.438856 0.833674 0.108221
H144  H     H_    0.527425 0.417365 0.819879 0.114367
H145  H     H_    0.493481 0.382813 0.879928 0.114168
C271  C     C_R   0.615341 0.537631 0.929062 0.151303
C272  C     C_R   0.603207 0.574487 0.935774 -0.132343
C273  C     C_R   0.584643 0.593563 0.900904 -0.136964
C274  C     C_R   0.578072 0.575885 0.859139 -0.118297
C275  C     C_R   0.590271 0.539194 0.852160 -0.139377
C276  C     C_R   0.609043 0.520157 0.886931 -0.131979
H146  H     H_    0.608594 0.588470 0.967699 0.100873
H147  H     H_    0.575468 0.622071 0.906245 0.118314
H148  H     H_    0.563703 0.590665 0.832115 0.109117
H149  H     H_    0.585383 0.525588 0.819743 0.114390
H150  H     H_    0.619026 0.492063 0.881008 0.110169
C277  C     C_R   0.462125 0.614487 0.927578 0.150298
C278  C     C_R   0.424623 0.604321 0.933261 -0.135155
C279  C     C_R   0.405578 0.585797 0.898334 -0.140950
C280  C     C_R   0.423875 0.577476 0.857479 -0.126488
C281  C     C_R   0.461210 0.587700 0.851525 -0.139660
C282  C     C_R   0.480251 0.606340 0.886367 -0.126282
H151  H     H_    0.410083 0.611350 0.964313 0.101966
H152  H     H_    0.376610 0.578022 0.902870 0.122417
H153  H     H_    0.409095 0.563216 0.830385 0.110510
H154  H     H_    0.475316 0.581410 0.819824 0.114714
H155  H     H_    0.508876 0.614815 0.881188 0.112600
C283  C     C_R   0.387081 0.460702 0.927265 0.143854
C284  C     C_R   0.394818 0.422550 0.933002 -0.180441
C285  C     C_R   0.414060 0.402800 0.899241 -0.135336
C286  C     C_R   0.425357 0.420984 0.859413 -0.119401
C287  C     C_R   0.417612 0.458953 0.853427 -0.143956
C288  C     C_R   0.398401 0.478733 0.887151 -0.079470
H156  H     H_    0.385344 0.408080 0.963143 0.109244
H157  H     H_    0.419988 0.373361 0.903812 0.122258
H158  H     H_    0.440011 0.405648 0.833116 0.108916
H159  H     H_    0.426381 0.473030 0.822614 0.112632
H160  H     H_    0.392434 0.508025 0.882196 0.112900
C289  C     C_R   0.016755 0.305496 0.579926 0.140088
C290  C     C_R   0.053668 0.299301 0.594271 -0.172559
C291  C     C_R   0.060711 0.280260 0.635011 -0.141040
C292  C     C_R   0.031010 0.266954 0.661265 -0.119325
C293  C     C_R   0.994205 0.272696 0.646837 -0.162139
C294  C     C_R   0.987041 0.291916 0.606259 -0.153428
H161  H     H_    0.076834 0.309590 0.574198 0.125509
H162  H     H_    0.089187 0.275699 0.646143 0.124828
H163  H     H_    0.036515 0.252089 0.692684 0.121972
H164  H     H_    0.971240 0.262312 0.667131 0.127231
H165  H     H_    0.958443 0.296484 0.595512 0.122677
C295  C     C_R   0.306848 0.988564 0.584409 0.140776
C296  C     C_R   0.300319 0.952300 0.600762 -0.172317
C297  C     C_R   0.280851 0.947051 0.641541 -0.140667
C298  C     C_R   0.267488 0.977905 0.665864 -0.121621
C299  C     C_R   0.273563 0.014062 0.649432 -0.159089
C300  C     C_R   0.293160 0.019431 0.608770 -0.149975
H166  H     H_    0.310486 0.928244 0.582071 0.124802
H167  H     H_    0.275963 0.919070 0.654167 0.125411
H168  H     H_    0.252291 0.973791 0.697320 0.121878
H169  H     H_    0.263080 0.037917 0.668195 0.127138
H170  H     H_    0.297789 0.047535 0.596323 0.122355
C301  C     C_R   0.984720 0.694859 0.579554 0.140387
C302  C     C_R   0.947981 0.701114 0.594413 -0.173576
C303  C     C_R   0.941425 0.720362 0.635135 -0.141383
C304  C     C_R   0.971440 0.733813 0.660864 -0.120094
C305  C     C_R   0.008067 0.728015 0.645922 -0.161703
C306  C     C_R   0.014745 0.708589 0.605360 -0.153695
H171  H     H_    0.924575 0.690723 0.574742 0.125650
H172  H     H_    0.913085 0.724978 0.646653 0.125465
H173  H     H_    0.966313 0.748839 0.692270 0.122150
H174  H     H_    0.031274 0.738514 0.665808 0.127448
H175  H     H_    0.043212 0.703981 0.594217 0.122880
C307  C     C_R   0.693802 0.039828 0.570024 0.127026
C308  C     C_R   0.705549 0.076455 0.560816 -0.177263
C309  C     C_R   0.723349 0.097449 0.594665 -0.161277
C310  C     C_R   0.729306 0.082057 0.637857 -0.114892
C311  C     C_R   0.717639 0.045588 0.647181 -0.143510
C312  C     C_R   0.700237 0.024340 0.613261 -0.135469
H176  H     H_    0.700563 0.088789 0.527653 0.129023
H177  H     H_    0.732366 0.125693 0.587484 0.128975
H178  H     H_    0.742992 0.098362 0.664071 0.121534
H179  H     H_    0.722290 0.033696 0.680624 0.122387
H180  H     H_    0.691428 0.996080 0.620772 0.122047
C313  C     C_R   0.017003 0.691223 0.413654 0.142727
C314  C     C_R   0.054266 0.700403 0.404072 -0.185845
C315  C     C_R   0.063840 0.714952 0.361453 -0.138547
C316  C     C_R   0.036334 0.720156 0.328186 -0.115706
C317  C     C_R   0.999067 0.711656 0.337863 -0.149854
C318  C     C_R   0.989337 0.697455 0.380606 -0.138149
H181  H     H_    0.075910 0.695461 0.429192 0.124330
H182  H     H_    0.092634 0.721772 0.354027 0.124686
H183  H     H_    0.043818 0.731176 0.295097 0.118594
H184  H     H_    0.977745 0.716037 0.312229 0.125802
H185  H     H_    0.960476 0.690557 0.387615 0.117838
C319  C     C_R   0.306256 0.011601 0.416538 0.141910
C320  C     C_R   0.299839 0.047775 0.399736 -0.172563
C321  C     C_R   0.280248 0.052832 0.358929 -0.140415
C322  C     C_R   0.266633 0.021883 0.335039 -0.120724
C323  C     C_R   0.272587 0.985821 0.351927 -0.159889
C324  C     C_R   0.292319 0.980641 0.392607 -0.150523
H186  H     H_    0.310218 0.071905 0.418077 0.124704
H187  H     H_    0.275463 0.080741 0.345945 0.125442
H188  H     H_    0.251340 0.025852 0.303563 0.122115
H189  H     H_    0.261917 0.961893 0.333495 0.126881
H190  H     H_    0.296886 0.952606 0.405381 0.122234
C325  C     C_R   0.982797 0.308362 0.414410 0.142495
C326  C     C_R   0.945492 0.298863 0.405415 -0.187788
C327  C     C_R   0.935504 0.284112 0.362985 -0.139534
C328  C     C_R   0.962628 0.279060 0.329304 -0.114305
C329  C     C_R   0.999927 0.287977 0.338352 -0.150094
C330  C     C_R   0.010084 0.302335 0.380923 -0.136973
H191  H     H_    0.924128 0.303681 0.430860 0.124748
H192  H     H_    0.906682 0.277013 0.356030 0.124835
H193  H     H_    0.954822 0.267880 0.296364 0.118561
H194  H     H_    0.020953 0.283748 0.312382 0.125774
H195  H     H_    0.038968 0.309507 0.387461 0.117845
C331  C     C_R   0.693814 0.959109 0.431062 0.125795
C332  C     C_R   0.705388 0.922408 0.440438 -0.177298
C333  C     C_R   0.723172 0.901223 0.406758 -0.160992
C334  C     C_R   0.729274 0.916492 0.363561 -0.115407
C335  C     C_R   0.717780 0.953033 0.354069 -0.144268
C336  C     C_R   0.700407 0.974475 0.387827 -0.135526
H196  H     H_    0.700279 0.910167 0.473598 0.129551
H197  H     H_    0.732056 0.872924 0.414068 0.129565
H198  H     H_    0.742940 0.900036 0.337474 0.122286
H199  H     H_    0.722540 0.964826 0.320622 0.122711
H200  H     H_    0.691726 0.002786 0.380185 0.122474
C337  C     C_R   0.510237 0.806621 0.084239 0.142129
C338  C     C_R   0.546134 0.800128 0.101863 -0.172469
C339  C     C_R   0.550571 0.780641 0.142822 -0.140139
C340  C     C_R   0.519279 0.767201 0.166045 -0.120748
C341  C     C_R   0.483494 0.773223 0.148334 -0.159720
C342  C     C_R   0.478933 0.792849 0.107497 -0.150755
H201  H     H_    0.570528 0.810364 0.084037 0.124579
H202  H     H_    0.578267 0.775798 0.156439 0.125587
H203  H     H_    0.522768 0.751988 0.197640 0.122168
H204  H     H_    0.459300 0.762684 0.166248 0.127234
H205  H     H_    0.451108 0.797459 0.094074 0.122460
C343  C     C_R   0.809014 0.483723 0.086949 0.142765
C344  C     C_R   0.799813 0.446570 0.097259 -0.183290
C345  C     C_R   0.785484 0.437506 0.140147 -0.137777
C346  C     C_R   0.780489 0.465421 0.172947 -0.117191
C347  C     C_R   0.788932 0.502589 0.162514 -0.149469
C348  C     C_R   0.802950 0.511803 0.119516 -0.140017
H206  H     H_    0.804611 0.424613 0.072510 0.123569
H207  H     H_    0.778678 0.408792 0.148146 0.124434
H208  H     H_    0.769642 0.458331 0.206245 0.118737
H209  H     H_    0.784688 0.524231 0.187776 0.126221
H210  H     H_    0.809839 0.540589 0.111934 0.118430
C349  C     C_R   0.488208 0.193532 0.083835 0.141336
C350  C     C_R   0.451980 0.200061 0.100283 -0.172494
C351  C     C_R   0.446748 0.219630 0.141059 -0.140626
C352  C     C_R   0.477581 0.233101 0.165277 -0.121247
C353  C     C_R   0.513700 0.227029 0.148747 -0.159772
C354  C     C_R   0.519054 0.207325 0.108094 -0.150420
H211  H     H_    0.427939 0.189800 0.081681 0.124735
H212  H     H_    0.418796 0.224511 0.153762 0.125349
H213  H     H_    0.473479 0.248377 0.196729 0.121857
H214  H     H_    0.537539 0.237592 0.167431 0.126764
H215  H     H_    0.547130 0.202680 0.095586 0.122163
C355  C     C_R   0.194918 0.513530 0.079780 0.141619
C356  C     C_R   0.201114 0.550040 0.095595 -0.173720
C357  C     C_R   0.220331 0.555921 0.136504 -0.141260
C358  C     C_R   0.233832 0.525465 0.161453 -0.119779
C359  C     C_R   0.228113 0.489069 0.145547 -0.161809
C360  C     C_R   0.208710 0.483063 0.104804 -0.154291
H216  H     H_    0.190684 0.573785 0.076532 0.125407
H217  H     H_    0.224886 0.584083 0.148767 0.125269
H218  H     H_    0.248836 0.530072 0.193002 0.122013
H219  H     H_    0.238652 0.465520 0.164830 0.127397
H220  H     H_    0.204150 0.454766 0.092923 0.122827
C361  C     C_R   0.511517 0.193369 0.916028 0.141312
C362  C     C_R   0.547738 0.199765 0.899560 -0.172560
C363  C     C_R   0.552952 0.219264 0.858773 -0.140543
C364  C     C_R   0.522107 0.232800 0.834565 -0.121189
C365  C     C_R   0.485995 0.226863 0.851117 -0.159703
C366  C     C_R   0.480660 0.207228 0.891779 -0.150352
H221  H     H_    0.571788 0.189454 0.918155 0.124707
H222  H     H_    0.580898 0.224041 0.846054 0.125425
H223  H     H_    0.526195 0.248023 0.803106 0.121932
H224  H     H_    0.462147 0.237477 0.832441 0.126823
H225  H     H_    0.452589 0.202688 0.904305 0.122196
C367  C     C_R   0.805000 0.513509 0.920313 0.141626
C368  C     C_R   0.798687 0.549970 0.904383 -0.173706
C369  C     C_R   0.779423 0.555727 0.863476 -0.141234
C370  C     C_R   0.765995 0.525196 0.838640 -0.119916
C371  C     C_R   0.771832 0.488849 0.854660 -0.161757
C372  C     C_R   0.791280 0.482967 0.895404 -0.154273
H226  H     H_    0.809059 0.573772 0.923358 0.125452
H227  H     H_    0.774773 0.583851 0.851127 0.125414
H228  H     H_    0.750956 0.529708 0.807092 0.122052
H229  H     H_    0.761349 0.465242 0.835466 0.127397
H230  H     H_    0.795928 0.454707 0.907376 0.122841
C373  C     C_R   0.490054 0.806561 0.915736 0.142106
C374  C     C_R   0.454169 0.800167 0.898077 -0.172450
C375  C     C_R   0.449760 0.780648 0.857116 -0.140298
C376  C     C_R   0.481069 0.767079 0.833927 -0.120876
C377  C     C_R   0.516842 0.773003 0.851672 -0.159629
C378  C     C_R   0.521375 0.792661 0.892510 -0.150712
H231  H     H_    0.429762 0.810503 0.915877 0.124602
H232  H     H_    0.422074 0.775882 0.843472 0.125452
H233  H     H_    0.477601 0.751841 0.802331 0.122066
H234  H     H_    0.541048 0.762363 0.833785 0.127235
H235  H     H_    0.549190 0.797195 0.905959 0.122448
C379  C     C_R   0.191085 0.482907 0.913328 0.142477
C380  C     C_R   0.200474 0.445685 0.903423 -0.183470
C381  C     C_R   0.214883 0.436293 0.860649 -0.138013
C382  C     C_R   0.219756 0.463944 0.827556 -0.116905
C383  C     C_R   0.211100 0.501180 0.837573 -0.149599
C384  C     C_R   0.197019 0.510725 0.880462 -0.139633
H236  H     H_    0.195775 0.423926 0.928403 0.123736
H237  H     H_    0.221844 0.407527 0.852968 0.124485
H238  H     H_    0.230665 0.456599 0.794348 0.118749
H239  H     H_    0.215246 0.522619 0.812082 0.126302
H240  H     H_    0.189991 0.539562 0.887733 0.118485
C385  C     C_3   0.015608 0.387533 0.583954 -0.405431
C386  C     C_3   0.978876 0.396986 0.607682 -0.821034
H241  H     H_    0.984733 0.411808 0.640170 0.242355
H242  H     H_    0.961392 0.415376 0.585897 0.257056
H243  H     H_    0.963131 0.371052 0.615416 0.252345
H244  H     H_    0.033181 0.371096 0.607753 0.214945
H245  H     H_    0.031685 0.413565 0.578156 0.204296
C387  C     C_3   0.389004 0.988763 0.586107 -0.404226
C388  C     C_3   0.398273 0.026346 0.607943 -0.817964
H246  H     H_    0.413696 0.021691 0.640310 0.242083
H247  H     H_    0.416027 0.043310 0.584925 0.259076
H248  H     H_    0.372266 0.042070 0.615587 0.251549
H249  H     H_    0.373125 0.971734 0.610941 0.213569
H250  H     H_    0.415180 0.972800 0.580470 0.201278
C389  C     C_3   0.985224 0.612822 0.583817 -0.405129
C390  C     C_3   0.022074 0.603395 0.607394 -0.820711
H251  H     H_    0.016379 0.588655 0.639939 0.242086
H252  H     H_    0.039421 0.584934 0.585564 0.257283
H253  H     H_    0.037886 0.629333 0.614997 0.252455
H254  H     H_    0.967802 0.629375 0.607624 0.214833
H255  H     H_    0.969080 0.586787 0.578214 0.203723
C391  C     C_3   0.612115 0.035577 0.576071 -0.399225
C392  C     C_3   0.598849 0.005672 0.609416 -0.825805
H256  H     H_    0.583633 0.019113 0.638031 0.243329
H257  H     H_    0.579845 0.985576 0.592400 0.245723
H258  H     H_    0.623061 0.990091 0.623528 0.245625
H259  H     H_    0.629448 0.055795 0.595321 0.213983
H260  H     H_    0.588143 0.052613 0.564410 0.220628
C393  C     C_3   0.015443 0.609390 0.413899 -0.402789
C394  C     C_3   0.979142 0.597473 0.390743 -0.824583
H261  H     H_    0.985642 0.582320 0.358689 0.243063
H262  H     H_    0.962806 0.578712 0.413196 0.259250
H263  H     H_    0.961815 0.622223 0.382223 0.247994
H264  H     H_    0.032308 0.625436 0.389045 0.217582
H265  H     H_    0.032665 0.584332 0.421334 0.206113
C395  C     C_3   0.388408 0.011284 0.414283 -0.404245
C396  C     C_3   0.397580 0.973639 0.392496 -0.817813
H266  H     H_    0.412844 0.978198 0.360059 0.241861
H267  H     H_    0.415455 0.956652 0.415475 0.259120
H268  H     H_    0.371536 0.957987 0.384996 0.251701
H269  H     H_    0.372360 0.028297 0.389493 0.213530
H270  H     H_    0.414604 0.027199 0.419708 0.201017
C397  C     C_3   0.983739 0.390192 0.414354 -0.403343
C398  C     C_3   0.019697 0.402341 0.390729 -0.824011
H271  H     H_    0.012738 0.417372 0.358733 0.243033
H272  H     H_    0.036126 0.421276 0.412944 0.258819
H273  H     H_    0.037128 0.377711 0.382035 0.248074
H274  H     H_    0.966753 0.373931 0.389751 0.217636
H275  H     H_    0.966384 0.415129 0.421909 0.206638
C399  C     C_3   0.612175 0.964226 0.424212 -0.399109
C400  C     C_3   0.599072 0.994289 0.390876 -0.826682
H276  H     H_    0.583944 0.981001 0.362070 0.243439
H277  H     H_    0.580023 0.014423 0.407802 0.245888
H278  H     H_    0.623358 0.009796 0.377048 0.245638
H279  H     H_    0.629481 0.943943 0.405000 0.214181
H280  H     H_    0.588125 0.947320 0.435657 0.220676
C401  C     C_3   0.510177 0.888829 0.086144 -0.403875
C402  C     C_3   0.472333 0.897985 0.107291 -0.816493
H281  H     H_    0.476550 0.913426 0.139728 0.241658
H282  H     H_    0.455512 0.915709 0.083964 0.259889
H283  H     H_    0.456702 0.871915 0.114664 0.251468
H284  H     H_    0.527007 0.872906 0.111241 0.213275
H285  H     H_    0.526052 0.915072 0.080897 0.199998
C403  C     C_3   0.890807 0.485407 0.086464 -0.402702
C404  C     C_3   0.902750 0.521968 0.109010 -0.824093
H286  H     H_    0.918006 0.515794 0.141101 0.242779
H287  H     H_    0.921410 0.538118 0.086245 0.259989
H288  H     H_    0.878028 0.539364 0.117360 0.247883
H289  H     H_    0.874854 0.468766 0.111633 0.217552
H290  H     H_    0.915848 0.468125 0.079210 0.205221
C405  C     C_3   0.488526 0.111331 0.085853 -0.404084
C406  C     C_3   0.526090 0.102063 0.107772 -0.818285
H291  H     H_    0.521446 0.086724 0.140156 0.241867
H292  H     H_    0.543093 0.084207 0.084821 0.259209
H293  H     H_    0.541747 0.128088 0.115399 0.251567
H294  H     H_    0.471484 0.127346 0.110616 0.213537
H295  H     H_    0.472608 0.085148 0.080287 0.201362
C407  C     C_3   0.112926 0.513818 0.083945 -0.405031
C408  C     C_3   0.103591 0.476829 0.107130 -0.819797
H296  H     H_    0.088853 0.482371 0.139724 0.242030
H297  H     H_    0.085174 0.459615 0.085104 0.257504
H298  H     H_    0.129543 0.460931 0.114585 0.252558
H299  H     H_    0.129457 0.531106 0.107912 0.214570
H300  H     H_    0.086865 0.530036 0.078535 0.202886
C409  C     C_3   0.511256 0.111167 0.914079 -0.404405
C410  C     C_3   0.473688 0.101960 0.892199 -0.817809
H301  H     H_    0.478325 0.086572 0.859814 0.241915
H302  H     H_    0.456719 0.084172 0.915174 0.259231
H303  H     H_    0.458000 0.128013 0.884581 0.251588
H304  H     H_    0.528271 0.127101 0.889289 0.213523
H305  H     H_    0.527200 0.084953 0.919650 0.201346
C411  C     C_3   0.886990 0.513702 0.916070 -0.405045
C412  C     C_3   0.896360 0.476631 0.892972 -0.819363
H306  H     H_    0.911076 0.482053 0.860354 0.242005
H307  H     H_    0.914810 0.459438 0.915026 0.257660
H308  H     H_    0.870426 0.460766 0.885575 0.252537
H309  H     H_    0.870416 0.530959 0.892080 0.214596
H310  H     H_    0.913035 0.529881 0.921412 0.202660
C413  C     C_3   0.490031 0.888770 0.913837 -0.403550
C414  C     C_3   0.527873 0.897848 0.892731 -0.817013
H311  H     H_    0.523652 0.913278 0.860300 0.241631
H312  H     H_    0.544652 0.915555 0.916085 0.259808
H313  H     H_    0.543548 0.871744 0.885356 0.251484
H314  H     H_    0.473248 0.872855 0.888716 0.213287
H315  H     H_    0.474106 0.915043 0.919075 0.200072
C415  C     C_3   0.109286 0.484799 0.913682 -0.402970
C416  C     C_3   0.097247 0.521265 0.890941 -0.823889
H316  H     H_    0.082040 0.514954 0.858861 0.242836
H317  H     H_    0.078517 0.537518 0.913602 0.259859
H318  H     H_    0.121920 0.538621 0.882538 0.247873
H319  H     H_    0.125301 0.468041 0.888608 0.217625
H320  H     H_    0.084293 0.467557 0.921002 0.205524

loop_
_geom_bond_atom_site_label_1
_geom_bond_atom_site_label_2
_ccdc_geom_bond_type
C322  C323  A    
C207  C208  A    
C405  H295  S    
C171  H30   S    
C130  C146  A    
C262  C263  A    
C301  C302  A    
C398  H273  S    
C303  H172  S    
C117  C133  A    
C275  C276  A    
C10   C154  S    
C38   C70   A    
C197  C198  A    
C400  H278  S    
C342  H205  S    
C80   O44   A    
C388  H246  S    
C387  C388  S    
C46   C395  S    
C261  H137  S    
C394  H262  S    
C300  H170  S    
C14   C158  S    
Cu6   O16   S    
C179  C180  S    
C121  C177  S    
C379  C380  A    
C338  H201  S    
C32   C331  S    
C307  C308  A    
C385  H245  S    
C170  H22   S    
C185  H64   S    
C39   C373  S    
C241  C246  A    
C120  C175  S    
C350  C351  A    
C313  C314  A    
C332  C333  A    
C352  C353  A    
C30   C319  S    
C78   O42   A    
C199  C204  A    
C75   O35   A    
C194  H81   S    
C366  H225  S    
C400  H276  S    
C395  C396  S    
C394  H263  S    
C299  H169  S    
C364  C365  A    
C393  H264  S    
C48   C60   A    
C353  H214  S    
C2    C58   S    
C129  C193  S    
C127  C157  A    
C129  C145  A    
C295  C300  A    
C33   C69   A    
C321  H187  S    
C97   C105  S    
C170  H23   S    
C179  H50   S    
C365  H224  S    
C119  C153  A    
C141  C151  A    
C339  H202  S    
C389  H255  S    
C114  C130  A    
C42   C58   A    
C247  C252  A    
C163  C164  S    
Cu1   Cu3   S    
Cu2   Cu4   S    
C244  H123  S    
C134  C146  A    
C116  C167  S    
C340  H203  S    
C56   C415  S    
C293  H164  S    
C190  H73   S    
C74   C147  S    
C219  C220  A    
C405  C406  S    
C93   C101  T    
C338  C339  A    
C196  C197  A    
C172  H26   S    
C54   C411  S    
C143  C277  S    
C364  H223  S    
C269  C270  A    
C28   C44   A    
C322  H188  S    
C235  C236  A    
C350  H211  S    
C401  H285  S    
C279  H152  S    
Cu6   O26   S    
C164  H6    S    
C298  H168  S    
C79   O47   A    
C205  C206  A    
C399  H280  S    
C320  H186  S    
C296  C297  A    
C75   O39   A    
C292  C293  A    
C12   C20   T    
C137  C241  S    
C283  C284  A    
C122  C158  A    
C13   C21   T    
C369  C370  A    
C127  C143  A    
C333  C334  A    
C50   C403  S    
C128  C144  A    
C81   O17   A    
C358  C359  A    
C384  H240  S    
C86   O26   A    
Cu11  O44   S    
C247  C248  A    
C105  C112  T    
C169  H25   S    
C115  C155  A    
C304  H173  S    
C37   C71   A    
C35   C51   A    
C221  C222  A    
C107  C110  T    
C280  C281  A    
Cu1   O5    S    
C363  C364  A    
Cu2   O18   S    
Cu12  O46   S    
C251  C252  A    
C192  H77   S    
C223  C224  A    
C388  H248  S    
C76   O38   A    
C382  H238  S    
C31   C65   A    
C96   C104  T    
C41   C385  S    
C291  H162  S    
C45   C59   A    
C395  H270  S    
C409  H305  S    
C20   C68   S    
Cu7   O27   S    
C310  H178  S    
C371  C372  A    
C77   C150  S    
Cu9   O35   S    
C337  C342  A    
C75   C148  S    
C83   C91   S    
C161  H5    S    
C239  C240  A    
C44   C391  S    
C265  C270  A    
C98   C106  S    
C406  H293  S    
C7    O11   A    
C326  C327  A    
C182  H52   S    
C362  C363  A    
C217  C222  A    
C180  H47   S    
C351  C352  A    
C309  C310  A    
Cu9   O33   S    
C77   O45   A    
C219  H102  S    
C210  H95   S    
C349  C350  A    
C123  C159  A    
C10   C18   T    
C139  C253  S    
C124  C160  A    
C28   C307  S    
C278  C279  A    
Cu8   O30   S    
C271  C276  A    
C312  H180  S    
C355  C360  A    
C416  H317  S    
C83   O23   A    
C255  C256  A    
C259  C260  A    
C386  H242  S    
C116  C156  A    
C353  C354  A    
C319  C324  A    
C195  C196  A    
C143  C149  A    
C203  C204  A    
C340  C341  A    
C94   C102  T    
C266  C267  A    
C302  H171  S    
C259  C264  A    
C38   C367  S    
C304  C305  A    
C254  C255  A    
C196  H83   S    
C88   O30   A    
C218  C219  A    
C275  H149  S    
C101  C109  S    
C211  C216  A    
C114  C154  A    
C176  H36   S    
C220  C221  A    
C362  H221  S    
C380  H236  S    
C177  H44   S    
C382  C383  A    
C177  C178  S    
C16   C160  S    
C233  C234  A    
C136  C235  S    
C165  H14   S    
C380  C381  A    
Cu6   O10   S    
Cu3   O3    S    
C231  C232  A    
C374  H231  S    
C324  H190  S    
C320  C321  A    
C406  H291  S    
C1    O1    A    
C347  H209  S    
C227  H109  S    
C307  C312  A    
C6    O10   A    
C193  C198  A    
C73   O37   A    
C237  C238  A    
C28   C68   A    
C398  H272  S    
C164  H8    S    
C270  H145  S    
C138  C247  S    
C336  H200  S    
Cu4   O22   S    
C188  H67   S    
C248  H126  S    
C131  C205  S    
C341  H204  S    
C285  C286  A    
C409  C410  S    
C403  H290  S    
C200  H86   S    
C355  C356  A    
C81   O19   A    
C33   C337  S    
C202  H88   S    
C306  H175  S    
Cu11  O42   S    
C85   C93   S    
C221  H104  S    
C256  C257  A    
C391  H260  S    
C267  C268  A    
C42   C387  S    
C411  C412  S    
C116  C132  A    
C117  C155  A    
C313  C318  A    
C56   C64   A    
C131  C147  A    
C209  H94   S    
C133  C147  A    
C43   C389  S    
C36   C355  S    
C315  H182  S    
Cu2   O8    S    
C197  H84   S    
C36   C52   A    
C43   C59   A    
C37   C53   A    
C9    C153  S    
C242  H121  S    
Cu5   Cu7   S    
C415  H320  S    
C404  H286  S    
C46   C58   A    
Cu6   Cu8   S    
C82   O20   A    
C12   C156  S    
C255  H132  S    
C407  H299  S    
C13   C157  S    
C95   C103  T    
C78   C151  S    
C310  C311  A    
C125  C141  A    
C106  C111  T    
C407  H300  S    
C80   C149  S    
C127  C189  S    
C100  C108  S    
Cu8   O14   S    
C263  C264  A    
Cu1   O21   S    
C26   C66   A    
C130  C199  S    
C104  C112  S    
C92   C100  T    
C194  C195  A    
C408  H298  S    
Cu6   O32   S    
C162  H3    S    
C135  C145  A    
C330  H195  S    
C258  H135  S    
C167  H20   S    
C361  C366  A    
C21   C69   S    
C390  H251  S    
C190  H72   S    
C83   O21   A    
C410  H302  S    
C40   C379  S    
C161  C162  S    
C1    C57   S    
C47   C57   A    
C184  H57   S    
C308  C309  A    
Cu10  O38   S    
C373  C374  A    
C168  H18   S    
C343  C344  A    
C4    C60   S    
C401  C402  S    
C378  H235  S    
C396  H266  S    
C39   C69   A    
C5    C61   S    
C136  C148  A    
C88   O32   A    
C235  C240  A    
C7    C63   S    
C163  H9    S    
C212  H96   S    
C387  H250  S    
C8    C64   S    
C239  H119  S    
C45   C393  S    
C244  C245  A    
C185  C186  S    
Cu3   O7    S    
C242  C243  A    
C187  H70   S    
C274  H148  S    
C410  H303  S    
Cu2   O24   S    
C291  C292  A    
C216  H100  S    
C377  C378  A    
C124  C183  S    
C24   C72   S    
C232  C233  A    
C348  H210  S    
C73   O33   A    
C321  C322  A    
C162  H2    S    
C411  H310  S    
C40   C72   A    
C236  H116  S    
C323  H189  S    
C369  H227  S    
C7    O13   A    
C231  H112  S    
C230  C231  A    
C266  H141  S    
C237  H117  S    
C298  C299  A    
C400  H277  S    
C18   C66   S    
C283  C288  A    
C166  H13   S    
C172  H28   S    
C14   C22   T    
C233  H114  S    
C341  C342  A    
C81   C89   S    
C358  H218  S    
C144  C152  A    
C191  H80   S    
C53   C63   A    
C360  H220  S    
C383  C384  A    
C385  H244  S    
C84   O24   A    
C174  H33   S    
C352  H213  S    
C139  C151  A    
C406  H292  S    
C118  C154  A    
C280  H153  S    
C125  C185  S    
C399  C400  S    
C184  H58   S    
C35   C349  S    
C251  H129  S    
C35   C71   A    
C325  C326  A    
C76   O36   A    
C224  H106  S    
C199  C200  A    
C284  H156  S    
C404  H288  S    
C277  C278  A    
C132  C211  S    
C178  H41   S    
Cu3   O19   S    
C226  H108  S    
C84   C92   S    
C91   C99   T    
C317  C318  A    
C343  C348  A    
C122  C179  S    
C204  H90   S    
C22   C70   S    
C354  H215  S    
C36   C72   A    
C79   C152  S    
C316  H183  S    
C176  H38   S    
C228  H110  S    
C88   C96   S    
C238  C239  A    
C273  H147  S    
C209  C210  A    
C281  H154  S    
C274  C275  A    
C286  H158  S    
C115  C165  S    
C249  C250  A    
C165  C166  S    
Cu4   O6    S    
C408  H296  S    
C288  H160  S    
C8    O16   A    
C11   C19   T    
C241  C242  A    
C301  C306  A    
C390  H253  S    
C193  C194  A    
C381  C382  A    
C214  C215  A    
C289  C290  A    
C374  C375  A    
C6    O14   A    
C33   C49   A    
C413  C414  S    
C141  C265  S    
C120  C156  A    
C396  H268  S    
C103  C111  S    
C311  C312  A    
Cu9   Cu10  S    
C87   O31   A    
C401  H284  S    
Cu5   O29   S    
C211  C212  A    
C213  C214  A    
C140  C259  S    
C78   O48   A    
C29   C67   A    
C335  H199  S    
C39   C55   A    
C189  H75   S    
C414  H311  S    
C40   C56   A    
C178  H43   S    
C389  H254  S    
C186  H62   S    
C416  H316  S    
C19   C67   S    
C277  C282  A    
Cu7   O31   S    
C123  C181  S    
C34   C70   A    
C344  H206  S    
C391  H259  S    
C77   O41   A    
C392  H258  S    
Cu11  O43   S    
C329  C330  A    
C391  C392  S    
C289  C294  A    
C169  H24   S    
C359  C360  A    
C245  C246  A    
C31   C47   A    
C303  C304  A    
C267  H142  S    
C32   C48   A    
C327  H192  S    
C229  C234  A    
C4    O8    A    
C397  H275  S    
C5    O9    A    
C271  C272  A    
C30   C46   A    
C215  C216  A    
C287  H159  S    
C388  H247  S    
C240  H120  S    
C173  H34   S    
C334  H198  S    
C186  H63   S    
C49   C61   A    
C285  H157  S    
C257  C258  A    
C133  C217  S    
C195  H82   S    
C201  H87   S    
C51   C63   A    
C367  C368  A    
C122  C138  A    
C166  H11   S    
C394  H261  S    
Cu9   O34   S    
Cu7   O15   S    
C117  C169  S    
C357  H217  S    
C54   C62   A    
C407  C408  S    
C185  H65   S    
C161  H4    S    
C126  C142  A    
C138  C150  A    
C409  H304  S    
C74   O40   A    
C120  C136  A    
Cu10  O40   S    
C282  H155  S    
C315  C316  A    
C308  H176  S    
C15   C159  S    
C180  H46   S    
C23   C71   S    
Cu1   O1    S    
C38   C54   A    
Cu3   O23   S    
C269  H144  S    
C167  C168  S    
C169  C170  S    
C373  C378  A    
C413  H314  S    
C386  H243  S    
C253  C258  A    
C118  C171  S    
C368  H226  S    
C290  H161  S    
C85   O25   A    
C76   C145  S    
C263  H139  S    
C52   C64   A    
C260  H136  S    
C27   C301  S    
C128  C191  S    
C392  H256  S    
C102  C110  S    
C26   C295  S    
C234  H115  S    
C5    O15   A    
C25   C41   A    
C202  C203  A    
C140  C152  A    
C316  C317  A    
C31   C325  S    
C250  H128  S    
C260  C261  A    
C356  H216  S    
C189  H74   S    
Cu8   O28   S    
C290  C291  A    
C29   C313  S    
C124  C140  A    
C51   C405  S    
C227  C228  A    
C144  C283  S    
C367  C372  A    
C215  H99   S    
C356  C357  A    
C125  C159  A    
C183  C184  S    
C225  C226  A    
C99   C107  S    
C264  H140  S    
C262  H138  S    
C276  H150  S    
C82   C90   S    
C6    C62   S    
C181  H54   S    
C223  C228  A    
C41   C57   A    
C192  H76   S    
C164  H7    S    
C397  H274  S    
C188  H66   S    
C317  H184  S    
C44   C60   A    
C414  H313  S    
C135  C229  S    
C166  H12   S    
Cu4   O4    S    
C326  H191  S    
C26   C42   A    
C402  H281  S    
C119  C135  A    
C189  C190  S    
Cu11  O41   S    
C27   C43   A    
C413  H315  S    
C174  H32   S    
C345  C346  A    
C4    O4    A    
C29   C45   A    
C236  C237  A    
C25   C65   A    
C25   C289  S    
C175  C176  S    
C218  H101  S    
C238  H118  S    
C87   O29   A    
Cu12  O45   S    
C229  C230  A    
C363  H222  S    
C323  C324  A    
C370  C371  A    
Cu11  Cu12  S    
C395  H269  S    
C123  C139  A    
C393  C394  S    
C294  H165  S    
C142  C150  A    
C296  H166  S    
C224  C225  A    
Cu9   O36   S    
C261  C262  A    
C226  C227  A    
C397  C398  S    
C115  C131  A    
C385  C386  S    
C187  C188  S    
C346  H208  S    
C142  C271  S    
C272  C273  A    
C305  C306  A    
C113  C129  A    
Cu12  O48   S    
C411  H309  S    
C222  H105  S    
C332  H196  S    
C134  C223  S    
C182  H51   S    
C339  C340  A    
C34   C343  S    
C329  H194  S    
C180  H48   S    
Cu5   O25   S    
C297  H167  S    
C80   O46   A    
C213  H97   S    
C408  H297  S    
C268  H143  S    
C325  C330  A    
C121  C137  A    
C284  C285  A    
C55   C61   A    
C375  H232  S    
C403  C404  S    
C402  H283  S    
C390  H252  S    
C293  C294  A    
C416  H318  S    
C386  H241  S    
C347  C348  A    
C86   C94   S    
C85   O27   A    
C168  H16   S    
C165  H15   S    
Cu10  O39   S    
C328  H193  S    
C37   C361  S    
C295  C296  A    
Cu8   O12   S    
C47   C397  S    
C281  C282  A    
C108  C109  T    
C279  C280  A    
C163  H10   S    
C372  H230  S    
C287  C288  A    
C183  H59   S    
C171  H29   S    
C302  C303  A    
C8    O12   A    
C181  C182  S    
C79   O43   A    
C205  C210  A    
C177  H45   S    
C383  H239  S    
C16   C24   T    
C121  C157  A    
C292  H163  S    
C82   O18   A    
C389  C390  S    
C137  C149  A    
C381  H237  S    
C273  C274  A    
C405  H294  S    
C181  H55   S    
C175  H39   S    
C412  H306  S    
C412  H308  S    
C203  H89   S    
C186  H61   S    
C246  H125  S    
C126  C158  A    
C393  H265  S    
C370  H228  S    
C399  H279  S    
C232  H113  S    
C34   C50   A    
C53   C409  S    
C331  C332  A    
C359  H219  S    
C245  H124  S    
C311  H179  S    
C132  C148  A    
C175  H40   S    
C27   C67   A    
C398  H271  S    
Cu1   O17   S    
C345  H207  S    
C297  C298  A    
C84   O22   A    
C243  C244  A    
C119  C173  S    
C184  H56   S    
C335  C336  A    
C174  H31   S    
C188  H68   S    
C344  C345  A    
C168  H17   S    
C198  H85   S    
C114  C163  S    
C318  H185  S    
C334  C335  A    
C379  C384  A    
C191  C192  S    
C89   C97   T    
C172  H27   S    
C403  H289  S    
C402  H282  S    
C337  C338  A    
C371  H229  S    
C212  C213  A    
C346  C347  A    
C173  H35   S    
C257  H134  S    
C113  C161  S    
C171  C172  S    
C265  C266  A    
C376  C377  A    
C208  H93   S    
C183  H60   S    
C309  H177  S    
C268  C269  A    
C412  H307  S    
C217  C218  A    
C30   C66   A    
Cu12  O47   S    
C351  H212  S    
C9    C17   T    
C230  H111  S    
C254  H131  S    
C248  C249  A    
C415  H319  S    
C404  H287  S    
C278  H151  S    
C50   C62   A    
C178  H42   S    
C55   C413  S    
C319  C320  A    
C128  C160  A    
C361  C362  A    
C74   O34   A    
C3    O3    A    
C207  H92   S    
C176  H37   S    
C87   C95   S    
Cu7   O11   S    
Cu5   O13   S    
C377  H234  S    
C187  H69   S    
C126  C187  S    
C182  H53   S    
C249  H127  S    
C113  C153  A    
C118  C134  A    
C333  H197  S    
C179  H49   S    
C192  H78   S    
C252  H130  S    
C349  C354  A    
C243  H122  S    
Cu2   O2    S    
C11   C155  S    
C2    O6    A    
C17   C65   S    
C167  H19   S    
C32   C68   A    
C73   C146  S    
C331  C336  A    
Cu5   O9    S    
C190  H71   S    
C173  C174  S    
C410  H301  S    
C3    O5    A    
C253  C254  A    
Cu4   O20   S    
C368  C369  A    
C2    O2    A    
C200  C201  A    
C1    O7    A    
C305  H174  S    
C201  C202  A    
C365  C366  A    
Cu10  O37   S    
C48   C399  S    
C206  H91   S    
C15   C23   T    
C206  C207  A    
C396  H267  S    
C272  H146  S    
C220  H103  S    
C328  C329  A    
C314  H181  S    
C49   C401  S    
C208  C209  A    
C162  H1    S    
C170  H21   S    
C387  H249  S    
C250  C251  A    
C256  H133  S    
C376  H233  S    
C299  C300  A    
C414  H312  S    
C327  C328  A    
C314  C315  A    
C191  H79   S    
C225  H107  S    
C415  C416  S    
C214  H98   S    
C375  C376  A    
C286  C287  A    
C52   C407  S    
C90   C98   T    
C357  C358  A    
C86   O28   A    
C392  H257  S    
C3    C59   S    
