data_mof_unit_55531.cif
_audit_creation_date              2012-12-11T21:01:54-0500
_audit_creation_method            fapswitch 2.2
_symmetry_space_group_name_H-M    P1
_symmetry_Int_Tables_number       1
_space_group_crystal_system       triclinic
_cell_length_a                    8.334716
_cell_length_b                    18.852368
_cell_length_c                    22.810746
_cell_angle_alpha                 100.155209
_cell_angle_beta                  90.140789
_cell_angle_gamma                 92.135925
_cell_volume                      3525.48148587

loop_
_atom_site_label
_atom_site_type_symbol
_atom_type_description
_atom_site_fract_x
_atom_site_fract_y
_atom_site_fract_z
_atom_type_partial_charge
Ba1   Ba    Ba6+2 0.157800 0.534120 0.474430 1.636383
Ba2   Ba    Ba6+2 0.652390 0.465870 0.525520 1.635569
C1    C     C_3   0.363604 0.709962 0.262986 -0.340127
C2    C     C_R   0.096267 0.905657 0.548123 0.023338
C3    C     C_R   0.250143 0.929922 0.570785 -0.078199
C4    C     C_3   0.928726 0.725821 0.357381 0.360521
C5    C     C_R   0.311740 0.998142 0.565863 -0.097966
C6    C     C_R   0.220047 0.044895 0.539770 0.028179
C7    C     C_R   0.068719 0.021165 0.514903 0.024921
C8    C     C_R   0.275879 0.115774 0.540472 -0.101210
C9    C     C_R   0.178924 0.166264 0.520423 -0.026629
C10   C     C_R   0.029174 0.142240 0.492796 0.020754
C11   C     C_R   0.975964 0.069003 0.489334 0.015752
C12   C     C_3   0.401412 0.690389 0.323175 0.316860
C13   C     C_R   0.225849 0.240238 0.528262 0.019023
C14   C     C_R   0.123322 0.288934 0.509408 -0.299615
C15   C     C_R   0.981129 0.265827 0.477914 0.047937
C16   C     C_3   0.931217 0.799251 0.338888 -0.359834
C17   C     C_R   0.932234 0.191196 0.469193 -0.051224
C18   C     C_R   0.856924 0.926326 0.492942 -0.015309
C19   C     C_R   0.796859 0.855159 0.495239 -0.040370
C20   C     C_R   0.886268 0.808862 0.525339 -0.052711
C21   C     C_R   0.026748 0.839025 0.557737 0.217995
C22   C     C_R   0.788952 0.163747 0.438718 -0.058416
C23   C     C_3   0.496228 0.688442 0.617097 0.309031
C24   C     C_R   0.732828 0.092144 0.437782 0.020188
C25   C     C_R   0.825973 0.044620 0.463545 0.000081
C26   C     C_R   0.766474 0.973381 0.465274 0.018338
C27   C     C_R   0.581716 0.067940 0.413261 -0.080973
C28   C     C_3   0.821350 0.373249 0.342760 0.294863
C29   C     C_R   0.522679 0.997889 0.415081 -0.090300
C30   C     C_R   0.614003 0.950250 0.441036 0.031850
C31   C     C_R   0.645313 0.831322 0.468567 -0.031119
C32   C     C_R   0.554476 0.880106 0.443072 -0.105694
C33   C     C_R   0.589830 0.759214 0.467732 -0.001986
C34   C     C_3   0.541202 0.767715 0.639054 -0.407600
C35   C     C_R   0.686659 0.711845 0.491183 -0.305144
C36   C     C_R   0.831112 0.734783 0.521141 0.065795
C37   C     C_R   0.641467 0.522619 0.333243 -0.329346
C38   C     C_R   0.392596 0.560249 0.946102 -0.025810
C39   C     C_R   0.334159 0.559555 0.887984 0.586947
C40   C     C_3   0.820798 0.352497 0.275203 -0.367607
C41   C     C_R   0.266201 0.432439 0.876596 0.579399
C42   C     C_R   0.326243 0.431028 0.934418 -0.020498
C43   C     C_R   0.388546 0.495548 0.969390 -0.052275
C44   C     C_R   0.455913 0.624115 0.981304 -0.078110
C45   C     C_3   0.870140 0.274732 0.645400 0.304398
C46   C     C_R   0.509564 0.624326 0.039265 -0.075905
C47   C     C_R   0.503263 0.560492 0.063556 -0.017888
C48   C     C_R   0.446537 0.495507 0.028024 -0.054525
C49   C     C_R   0.327143 0.366560 0.957925 -0.075343
C50   C     C_R   0.389130 0.366183 0.014938 -0.080957
C51   C     C_R   0.448426 0.430561 0.050816 -0.043164
C52   C     C_3   0.001173 0.635570 0.659349 0.306384
C53   C     C_R   0.505730 0.432031 0.109506 0.607906
C54   C     C_R   0.549734 0.560668 0.122982 0.560063
C55   C     C_2   0.069145 0.477040 0.773774 -0.090172
C56   C     C_3   0.884494 0.204292 0.670091 -0.050184
C57   C     C_3   0.016477 0.485472 0.711542 -0.034402
C58   C     C_1   0.296405 0.520825 0.694433 0.022232
C59   C     C_2   0.339004 0.521557 0.750316 -0.092616
C60   C     C_2   0.221725 0.496644 0.792817 0.212311
C61   C     C_R   0.721371 0.534912 0.233833 -0.124364
C62   C     C_R   0.753801 0.545437 0.294723 -0.024213
C63   C     C_R   0.501323 0.483588 0.311450 0.010828
C64   C     C_3   0.997224 0.659633 0.726771 -0.375457
C65   C     C_R   0.465286 0.472827 0.249002 0.140977
C66   C     C_R   0.576226 0.500954 0.209983 0.209516
C67   C     C_3   0.482291 0.288319 0.681366 0.481310
C68   C     C_2   0.159053 0.491129 0.671391 -0.279296
C69   C     C_3   0.314180 0.313933 0.391988 0.312546
C70   C     C_3   0.304760 0.232638 0.370993 -0.387746
C71   C     C_3   0.717396 0.117416 0.601249 -0.235579
C72   C     C_3   0.210743 0.326725 0.681762 -0.185797
C73   C     C_3   0.042230 0.845237 0.664025 -0.224504
C74   C     C_3   0.208728 0.459679 0.191405 -0.133983
C75   C     C_3   0.457977 0.246286 0.732893 -0.367092
C76   C     C_R   0.008372 0.950425 0.517611 -0.024869
H1    H     H_    0.342373 0.636860 0.324517 0.088399
H2    H     H_    0.192696 0.332952 0.403598 0.008597
H3    H     H_    0.395128 0.326562 0.431463 0.072280
H4    H     H_    0.391638 0.664244 0.227231 0.128080
H5    H     H_    0.217425 0.218579 0.333547 0.127202
H6    H     H_    0.266010 0.204521 0.407447 0.056713
H7    H     H_    0.424588 0.213593 0.355723 0.120550
H8    H     H_    0.533984 0.687122 0.327643 -0.034620
H9    H     H_    0.436004 0.758898 0.257026 0.117942
H10   H     H_    0.605454 0.661063 0.598812 0.028145
H11   H     H_    0.403667 0.684169 0.581444 0.052276
H12   H     H_    0.735460 0.305869 0.260861 0.143236
H13   H     H_    0.645066 0.772599 0.670260 0.137496
H14   H     H_    0.573862 0.794593 0.601025 0.054259
H15   H     H_    0.438721 0.795536 0.662712 0.116850
H16   H     H_    0.233704 0.720581 0.259395 0.152633
H17   H     H_    0.913067 0.841833 0.378582 0.075989
H18   H     H_    0.760150 0.273549 0.618223 0.076930
H19   H     H_    0.967314 0.279672 0.613615 -0.012924
H20   H     H_    0.999961 0.205881 0.694716 0.077215
H21   H     H_    0.791435 0.200460 0.704064 0.091858
H22   H     H_    0.601758 0.311807 0.686778 0.096690
H23   H     H_    0.783773 0.398074 0.254334 0.064726
H24   H     H_    0.332982 0.225461 0.734933 0.122427
H25   H     H_    0.489019 0.281398 0.775883 0.110647
H26   H     H_    0.012330 0.728237 0.396036 0.092006
H27   H     H_    0.534523 0.199252 0.727348 0.089803
H28   H     H_    0.324824 0.896895 0.592823 0.064470
H29   H     H_    0.429193 0.015237 0.584604 0.062614
H30   H     H_    0.159578 0.345480 0.516329 0.068043
H31   H     H_    0.393672 0.131055 0.558704 0.111927
H32   H     H_    0.716387 0.197913 0.417067 0.111093
H33   H     H_    0.507556 0.103631 0.393620 0.067615
H34   H     H_    0.943258 0.337644 0.259528 0.117861
H35   H     H_    0.404714 0.981106 0.396465 0.073734
H36   H     H_    0.436639 0.864293 0.424392 0.112858
H37   H     H_    0.803903 0.712982 0.370965 -0.061517
H38   H     H_    0.644581 0.656364 0.488551 0.067256
H39   H     H_    0.386995 0.315503 0.031400 0.121452
H40   H     H_    0.279719 0.316111 0.932290 0.119032
H41   H     H_    0.555717 0.674832 0.065098 0.122889
H42   H     H_    0.809943 0.553226 0.204597 0.112692
H43   H     H_    0.462861 0.674426 0.964332 0.123664
H44   H     H_    0.461857 0.536335 0.764818 0.097982
H45   H     H_    0.127313 0.631055 0.645007 0.025526
H46   H     H_    0.980884 0.461195 0.804377 0.100261
H47   H     H_    0.668936 0.531045 0.380411 0.086639
H48   H     H_    0.049061 0.810312 0.318495 0.138945
H49   H     H_    0.142411 0.476631 0.623482 0.075787
H50   H     H_    0.833110 0.800932 0.305828 0.116802
H51   H     H_    0.698528 0.386682 0.357877 0.016401
H52   H     H_    0.905108 0.420668 0.355901 0.064507
H53   H     H_    0.937674 0.098304 0.636820 0.203287
H54   H     H_    0.717981 0.060394 0.578607 0.096989
H55   H     H_    0.681336 0.150945 0.568373 0.166482
H56   H     H_    0.933367 0.583276 0.646933 0.033213
H57   H     H_    0.628232 0.120581 0.637710 0.119408
H58   H     H_    0.403853 0.387213 0.722679 0.186590
H59   H     H_    0.155282 0.336540 0.726332 0.164266
H60   H     H_    0.192822 0.269198 0.661913 0.089676
H61   H     H_    0.157082 0.357063 0.650521 0.074896
H62   H     H_    0.204923 0.795633 0.602439 0.201527
H63   H     H_    0.091624 0.817215 0.698360 0.117779
H64   H     H_    0.909528 0.845580 0.668192 0.116112
H65   H     H_    0.092344 0.901486 0.672359 0.085646
H66   H     H_    0.283577 0.390934 0.248473 0.215391
H67   H     H_    0.047150 0.715606 0.739474 0.130237
H68   H     H_    0.087929 0.453387 0.210503 0.106576
H69   H     H_    0.202398 0.429122 0.145228 0.095336
H70   H     H_    0.236016 0.517695 0.190573 0.102717
H71   H     H_    0.071102 0.625065 0.749585 0.086969
H72   H     H_    0.871528 0.657218 0.742672 0.117595
N1    N     N_R   0.271960 0.496185 0.853841 -0.427557
N2    N     N_R   0.543111 0.497367 0.146565 -0.424432
N3    N     N_2   0.876792 0.140458 0.624101 -0.443646
N4    N     N_2   0.376784 0.347311 0.686882 -0.417496
N5    N     N_2   0.085850 0.808110 0.605576 -0.392826
N6    N     N_2   0.327751 0.429295 0.225242 -0.391225
O1    O     O_2   0.110690 0.676100 0.539200 -0.460321
O2    O     O_2   0.691044 0.440877 0.698255 -0.493038
O3    O     O_3   0.875270 0.331786 0.695286 -0.646926
O4    O     O_3   0.863220 0.586720 0.534720 -0.488194
O5    O     O_3   0.450900 0.461390 0.429220 -0.486367
O6    O     O_2   0.599830 0.538970 0.641850 -0.453508
O7    O     O_3   0.435355 0.658681 0.665018 -0.635505
O8    O     O_2   0.549523 0.244264 0.517303 -0.510094
O9    O     O_3   0.466684 0.240112 0.626343 -0.643150
O10   O     O_2   0.337605 0.615576 0.867781 -0.594165
O11   O     O_2   0.210562 0.376813 0.846291 -0.610551
O12   O     O_3   0.373568 0.345634 0.345264 -0.639229
O13   O     O_2   0.519980 0.375381 0.127849 -0.577605
O14   O     O_2   0.595035 0.617608 0.153950 -0.614521
O15   O     O_3   0.368310 0.629070 0.432760 -0.480558
O16   O     O_2   0.256918 0.756567 0.478400 -0.496815
O17   O     O_3   0.929083 0.687615 0.633335 -0.622842
O18   O     O_3   0.341244 0.743406 0.368014 -0.606365
O19   O     O_2   0.210480 0.460990 0.358130 -0.462348
O20   O     O_3   0.959520 0.592090 0.401630 -0.485420
O21   O     O_2   0.090656 0.546769 0.298016 -0.495477
O22   O     O_3   0.978861 0.674913 0.308778 -0.595743
O23   O     O_2   0.699610 0.323860 0.460780 -0.462609
O24   O     O_3   0.947090 0.413280 0.465240 -0.490613
O25   O     O_3   0.442000 0.370930 0.567190 -0.447170
O26   O     O_3   0.870699 0.314079 0.366419 -0.638730
O27   O     O_3   0.359410 0.538600 0.570730 -0.479104
O28   O     O_3   0.850780 0.407910 0.598320 -0.480099
P1    P     P_3+3 0.935930 0.665430 0.555670 1.003564
P2    P     P_3+3 0.382700 0.439650 0.365620 0.985883
P3    P     P_3+3 0.945095 0.588323 0.325180 0.946983
P4    P     P_3+3 0.874370 0.334570 0.444280 0.976458
P5    P     P_3+3 0.859103 0.417399 0.675624 0.941268
P6    P     P_3+3 0.390753 0.722450 0.437386 0.926953
P7    P     P_3+3 0.421674 0.564649 0.644860 0.962443
P8    P     P_3+3 0.421604 0.276600 0.561714 0.940004

loop_
_geom_bond_atom_site_label_1
_geom_bond_atom_site_label_2
_ccdc_geom_bond_type
C68   H49   S    
C52   H45   S    
C59   H44   S    
Ba1   O20   S    
C37   H47   S    
C21   N5    S    
C28   O26   S    
O3    P5    S    
C67   C75   S    
C56   H20   S    
C13   P8    S    
Ba2   O6    S    
C70   H7    S    
Ba1   O27   S    
C53   N2    Am   
C35   H38   S    
C45   O3    S    
Ba1   P2    S    
C42   C43   A    
C38   C44   A    
C37   C62   A    
C72   H60   S    
O17   P1    S    
C24   C25   A    
C35   C36   A    
O20   P3    S    
C52   O17   S    
C73   H64   S    
O1    P1    D    
C64   H72   S    
O25   P8    S    
C55   C57   S    
C19   C31   A    
H62   N5    S    
C15   P4    S    
C13   C14   A    
C52   H56   S    
C49   H40   S    
C72   N4    S    
C8    H31   S    
Ba1   Ba2   S    
C7    C11   A    
O6    P7    D    
C64   H67   S    
C40   H34   S    
O24   P4    S    
C16   H50   S    
C63   P2    S    
C9    C13   A    
C34   H15   S    
C26   C30   A    
Ba1   O19   S    
C71   H57   S    
C74   H69   S    
C14   C15   A    
C63   C65   A    
C45   H18   S    
C44   H43   S    
C4    H26   S    
C54   N2    Am   
C73   H63   S    
Ba2   O27   S    
C54   O14   D    
C50   H39   S    
C34   H14   S    
C71   H54   S    
C74   H68   S    
C19   C20   A    
C4    O22   S    
H53   N3    S    
C16   H17   S    
C37   C63   A    
C75   H24   S    
Ba2   O24   S    
O4    P1    S    
Ba2   O5    S    
C69   H2    S    
C46   H41   S    
Ba2   P4    S    
C3    H28   S    
C51   C53   A    
C38   C43   A    
C4    C16   S    
C72   H59   S    
C44   C46   A    
C48   C51   A    
O12   P2    S    
C60   N1    S    
C1    H9    S    
C49   C50   A    
C62   P3    S    
O19   P2    D    
C5    C6    A    
C22   H32   S    
C12   H8    S    
C64   H71   S    
O2    P5    D    
O9    P8    S    
C3    C5    A    
C2    C21   A    
C6    C7    A    
O26   P4    S    
O23   P4    D    
C23   C34   S    
O16   P6    D    
C28   H52   S    
Ba1   O15   S    
C23   H10   S    
C65   C66   A    
O15   P6    S    
C58   C59   D    
C40   H12   S    
Ba2   O25   S    
C30   C32   A    
H66   N6    S    
C41   C42   A    
C2    C76   A    
O5    P2    S    
C66   N2    S    
C56   N3    S    
H58   N4    S    
C29   C30   A    
C58   C68   D    
C27   C29   A    
C39   O10   D    
C1    H4    S    
C31   C32   A    
Ba2   O28   S    
C12   H1    S    
C10   C11   A    
C70   H6    S    
C1    C12   S    
C73   H65   S    
O18   P6    S    
C52   C64   S    
O22   P3    S    
C42   C49   A    
Ba2   O4    S    
C38   C39   A    
C71   H55   S    
C33   P6    S    
C41   O11   D    
C69   O12   S    
C5    H29   S    
C57   P5    S    
Ba2   O23   S    
C55   C60   D    
C15   C17   A    
C28   H51   S    
C40   H23   S    
C41   N1    Am   
C50   C51   A    
C34   H13   S    
C65   N6    S    
C53   O13   D    
C61   C66   A    
C46   C47   A    
C33   C35   A    
O28   P5    S    
C27   H33   S    
Ba1   O4    S    
C28   C40   S    
C56   H21   S    
C67   N4    S    
C22   C24   A    
C2    C3    A    
O27   P7    S    
C9    C10   A    
C39   N1    Am   
Ba1   P1    S    
C32   H36   S    
C36   P1    S    
C18   C26   A    
C72   H61   S    
C23   H11   S    
Ba1   O24   S    
O21   P3    D    
C18   C76   A    
C45   H19   S    
C75   H27   S    
C17   C22   A    
C69   C70   S    
C12   O18   S    
C47   C54   A    
C16   H48   S    
C45   C56   S    
C61   H42   S    
C43   C48   A    
C23   O7    S    
C58   P7    S    
C10   C17   A    
Ba1   O1    S    
C31   C33   A    
C74   N6    S    
C1    H16   S    
C7    C76   A    
C59   C60   S    
C67   O9    S    
C4    H37   S    
C70   H5    S    
C75   H25   S    
C8    C9    A    
C14   H30   S    
C57   C68   S    
Ba1   O5    S    
C61   C62   A    
C67   H22   S    
C73   N5    S    
C18   C19   A    
C74   H70   S    
C24   C27   A    
C6    C8    A    
C47   C48   A    
C71   N3    S    
C25   C26   A    
C20   C21   A    
C11   C25   A    
O7    P7    S    
C69   H3    S    
O8    P8    D    
C29   H35   S    
C55   H46   S    
C20   C36   A    
