data_mof_unit_28495.cif
_audit_creation_date              2012-12-10T18:38:30-0500
_audit_creation_method            fapswitch 2.2
_symmetry_space_group_name_H-M    P1
_symmetry_Int_Tables_number       1
_space_group_crystal_system       triclinic
_cell_length_a                    15.854891
_cell_length_b                    15.231567
_cell_length_c                    13.947585
_cell_angle_alpha                 90.500289
_cell_angle_beta                  90.82128
_cell_angle_gamma                 93.508964
_cell_volume                      3361.45383413

loop_
_atom_site_label
_atom_site_type_symbol
_atom_type_description
_atom_site_fract_x
_atom_site_fract_y
_atom_site_fract_z
_atom_type_partial_charge
C1    C     C_R   0.504650 0.330045 0.500034 0.891478
C2    C     C_R   0.495611 0.669749 0.500185 0.909752
C3    C     C_R   0.494344 0.183772 0.584920 -0.219805
C4    C     C_R   0.461087 0.810783 0.417751 -0.207921
C5    C     C_R   0.512213 0.233211 0.500745 -0.319495
C6    C     C_R   0.489695 0.766369 0.500066 -0.365909
C7    C     C_R   0.535155 0.188389 0.416409 0.309526
C8    C     C_R   0.517598 0.816036 0.581390 0.351538
C9    C     C_R   0.543284 0.096929 0.418989 0.352216
C10   C     C_R   0.535901 0.905969 0.574280 0.371210
C11   C     C_R   0.508586 0.048357 0.496155 -0.143053
C12   C     C_R   0.505567 0.951353 0.494075 -0.151236
C13   C     C_R   0.571094 0.527153 0.108208 -0.322146
C14   C     C_R   0.452163 0.440503 0.891300 -0.364682
C15   C     C_R   0.569588 0.531904 0.209276 0.595256
C16   C     C_R   0.446274 0.443743 0.790121 0.650112
C17   C     C_R   0.427487 0.473541 0.206143 -0.009707
C18   C     C_R   0.556194 0.556517 0.791803 -0.015017
C19   C     C_R   0.422798 0.484531 0.104893 -0.144175
C20   C     C_R   0.547561 0.569745 0.892079 -0.142742
C21   C     C_R   0.497064 0.506652 0.053758 0.060681
C22   C     C_R   0.498186 0.506912 0.944555 0.058423
C23   C     C_R   0.339883 0.499101 0.499479 0.831219
C24   C     C_R   0.659877 0.500171 0.500372 0.800619
C25   C     C_3   0.964508 0.425219 0.532064 0.315857
C26   C     C_3   0.034135 0.567356 0.448508 0.384326
C27   C     C_3   0.022207 0.424047 0.443404 -0.198256
C28   C     C_3   0.976954 0.569810 0.537303 -0.223154
C29   C     C_1   0.250186 0.497055 0.498462 -0.116699
C30   C     C_1   0.749041 0.499975 0.499607 -0.109315
C31   C     C_3   0.024749 0.494809 0.582378 0.315067
C32   C     C_3   0.973012 0.498091 0.398316 0.336852
C33   C     C_3   0.082853 0.493692 0.494165 -0.101842
C34   C     C_3   0.915257 0.499966 0.487341 -0.180529
C35   C     C_1   0.174592 0.495197 0.497270 0.152610
C36   C     C_1   0.824131 0.499899 0.494602 0.095787
C37   C     C_R   0.477952 0.092761 0.576926 0.374166
C38   C     C_R   0.465092 0.903433 0.416780 0.399632
Cu1   Cu    Cu3+1 0.500000 0.499990 0.596430 1.025793
Cu2   Cu    Cu3+1 0.500000 0.500010 0.403570 1.017194
H1    H     H_    0.630293 0.543089 0.072834 0.160076
H2    H     H_    0.419660 0.386458 0.927976 0.152638
N1    N     N_R   0.500000 0.500020 0.258690 -0.245356
N2    N     N_R   0.500000 0.499980 0.741310 -0.249444
O1    O     O_R   0.500010 0.371450 0.581430 -0.537645
O2    O     O_R   0.499990 0.628550 0.418570 -0.585261
O3    O     O_R   0.500010 0.371460 0.418560 -0.531135
O4    O     O_R   0.499990 0.628540 0.581440 -0.546208
O5    O     O_R   0.379080 0.499990 0.581420 -0.592660
O6    O     O_R   0.620920 0.500010 0.418580 -0.553105
O7    O     O_R   0.379080 0.500000 0.418550 -0.554461
O8    O     O_R   0.620920 0.500000 0.581450 -0.565038
C39   C     C_2   0.048126 0.343107 0.392105 0.892435
O9    O     O_2   0.994426 0.292442 0.354813 -0.625208
O10   O     O_R   0.133378 0.325171 0.388655 -0.783499
H3    H     H_    0.142782 0.268520 0.352765 0.338132
C40   C     C_2   0.954137 0.652429 0.587422 0.826708
O11   O     O_2   0.009975 0.702025 0.622539 -0.581476
O12   O     O_R   0.869567 0.672268 0.593916 -0.786025
H4    H     H_    0.862353 0.728963 0.630609 0.327307
C41   C     C_2   0.351665 0.433466 0.252429 0.959437
O13   O     O_2   0.354770 0.363376 0.293660 -0.613931
O14   O     O_R   0.275937 0.476002 0.248427 -0.739702
H5    H     H_    0.228131 0.442047 0.281913 0.362530
C42   C     C_2   0.636817 0.587664 0.748427 1.012668
O15   O     O_2   0.700642 0.549889 0.768047 -0.580582
O16   O     O_R   0.641797 0.659999 0.688017 -0.707235
H6    H     H_    0.701040 0.674023 0.663853 0.329524
C43   C     C_2   0.339731 0.475681 0.053385 0.862152
O17   O     O_2   0.317409 0.535902 0.003428 -0.578374
O18   O     O_R   0.288132 0.398255 0.060468 -0.779525
H7    H     H_    0.233875 0.400232 0.021394 0.331969
C44   C     C_2   0.584952 0.651832 0.939134 0.798347
O19   O     O_2   0.544477 0.689454 0.999315 -0.577777
O20   O     O_R   0.665104 0.687102 0.914426 -0.755858
H8    H     H_    0.682374 0.743089 0.951408 0.331454
O21   O     O_3   0.919972 0.352063 0.573122 -0.596874
C45   C     C_3   0.975829 0.290943 0.608667 0.090497
H9    H     H_    0.980479 0.298467 0.687865 0.160165
H10   H     H_    0.040937 0.299301 0.579706 0.143837
C46   C     C_3   0.939419 0.198092 0.583846 -0.318688
H11   H     H_    0.877049 0.186377 0.618437 0.226315
H12   H     H_    0.929771 0.191857 0.504971 0.250971
C47   C     C_3   0.998153 0.128339 0.616902 -0.946198
H13   H     H_    0.060375 0.138022 0.581637 0.266519
H14   H     H_    0.970089 0.062001 0.597088 0.270766
H15   H     H_    0.007255 0.131804 0.695978 0.258382
O22   O     O_3   0.076029 0.639203 0.402057 -0.567273
C48   C     C_3   0.017860 0.701456 0.374666 0.109862
H16   H     H_    0.016508 0.752601 0.431829 0.164248
H17   H     H_    0.952188 0.672360 0.362512 0.128170
C49   C     C_3   0.047318 0.745109 0.281819 -0.305982
H18   H     H_    0.112871 0.774301 0.291772 0.234600
H19   H     H_    0.047391 0.694584 0.223821 0.246670
C50   C     C_3   0.989578 0.817026 0.252021 -0.935902
H20   H     H_    0.923919 0.788860 0.240000 0.261387
H21   H     H_    0.012517 0.847332 0.184367 0.269164
H22   H     H_    0.989672 0.869039 0.308373 0.258822
O23   O     O_3   0.958695 0.502564 0.297965 -0.588700
C51   C     C_3   0.872257 0.490902 0.272672 0.064963
H23   H     H_    0.832609 0.533152 0.315972 0.138552
H24   H     H_    0.865441 0.514166 0.197853 0.173261
C52   C     C_3   0.841194 0.393517 0.274793 -0.328478
H25   H     H_    0.880864 0.355335 0.226642 0.252718
H26   H     H_    0.846837 0.367528 0.348558 0.248208
C53   C     C_3   0.749209 0.380118 0.241814 -0.872038
H27   H     H_    0.707670 0.412350 0.292804 0.301860
H28   H     H_    0.730595 0.308777 0.239682 0.254761
H29   H     H_    0.740371 0.407362 0.168987 0.253561
O24   O     O_3   0.056851 0.490021 0.677023 -0.617428
C54   C     C_3   0.991648 0.499454 0.743641 0.096796
H30   H     H_    0.931278 0.463357 0.720961 0.178543
H31   H     H_    0.980570 0.570260 0.752998 0.187218
C55   C     C_3   0.018938 0.463613 0.840499 -0.371995
H32   H     H_    0.027448 0.392045 0.833418 0.214487
H33   H     H_    0.080307 0.497059 0.863444 0.247991
C56   C     C_3   0.953249 0.477856 0.917160 -0.850157
H34   H     H_    0.944719 0.549190 0.927134 0.265935
H35   H     H_    0.974756 0.450766 0.986376 0.260819
H36   H     H_    0.891677 0.443756 0.896337 0.268265
O25   O     O_3   0.446822 0.047196 0.656147 -0.541645
C57   C     C_3   0.364980 0.007648 0.637499 0.091655
H37   H     H_    0.359800 0.944708 0.677074 0.154955
H38   H     H_    0.352091 0.990404 0.561108 0.102581
C58   C     C_3   0.297617 0.066555 0.674283 -0.338998
H39   H     H_    0.311845 0.084580 0.750411 0.260066
H40   H     H_    0.298454 0.127408 0.630886 0.212174
C59   C     C_3   0.209648 0.020164 0.668224 -0.917220
H41   H     H_    0.192441 0.002888 0.592738 0.263112
H42   H     H_    0.162774 0.064471 0.696758 0.262948
H43   H     H_    0.207312 0.959317 0.711687 0.267659
O26   O     O_3   0.436918 0.944927 0.334824 -0.532959
C60   C     C_3   0.359853 0.985191 0.349771 0.074288
H44   H     H_    0.347245 0.023906 0.284535 0.175372
H45   H     H_    0.364341 0.033768 0.409349 0.106565
C61   C     C_3   0.284592 0.918153 0.363156 -0.377397
H46   H     H_    0.281409 0.869953 0.302779 0.250028
H47   H     H_    0.292473 0.882163 0.431334 0.208998
C62   C     C_3   0.201547 0.963726 0.366163 -0.899693
H48   H     H_    0.204865 0.016518 0.421705 0.251779
H49   H     H_    0.149087 0.915168 0.383662 0.264977
H50   H     H_    0.187889 0.992980 0.295371 0.263999
C63   C     C_2   0.504012 0.221977 0.683339 1.023497
O27   O     O_2   0.567394 0.268247 0.704741 -0.585141
O28   O     O_R   0.444648 0.199885 0.753530 -0.752612
H51   H     H_    0.460127 0.227753 0.818202 0.328736
C64   C     C_2   0.419984 0.762204 0.334949 0.912981
O29   O     O_2   0.440240 0.781125 0.253052 -0.549950
O30   O     O_R   0.356401 0.696392 0.350792 -0.759606
H52   H     H_    0.333183 0.668201 0.288994 0.353811
O31   O     O_3   0.563295 0.235534 0.337254 -0.594562
C65   C     C_3   0.506940 0.218660 0.258796 0.108408
H53   H     H_    0.443471 0.240397 0.276209 0.187950
H54   H     H_    0.499887 0.147814 0.239068 0.186833
C66   C     C_3   0.541203 0.268399 0.171646 -0.340069
H55   H     H_    0.551157 0.339372 0.189602 0.236368
H56   H     H_    0.603165 0.243420 0.152251 0.218676
C67   C     C_3   0.481085 0.256763 0.085524 -0.900194
H57   H     H_    0.419271 0.283453 0.102043 0.282857
H58   H     H_    0.471103 0.186058 0.065740 0.264697
H59   H     H_    0.508879 0.292646 0.023482 0.258679
O32   O     O_3   0.532284 0.777019 0.668536 -0.529717
C68   C     C_3   0.456663 0.769568 0.721731 0.128361
H60   H     H_    0.446402 0.699943 0.744003 0.169807
H61   H     H_    0.398572 0.785946 0.680857 0.088348
C69   C     C_3   0.466371 0.827428 0.811857 -0.343709
H62   H     H_    0.525166 0.812691 0.851210 0.259368
H63   H     H_    0.471512 0.897768 0.791359 0.263107
C70   C     C_3   0.391121 0.812006 0.877894 -0.833180
H64   H     H_    0.331829 0.828177 0.840404 0.241448
H65   H     H_    0.400126 0.854825 0.942518 0.278889
H66   H     H_    0.385549 0.742307 0.901079 0.288662
O33   O     O_3   0.574945 0.054818 0.339781 -0.567196
C71   C     C_3   0.660710 0.037344 0.354309 0.080613
H67   H     H_    0.676072 0.988097 0.299107 0.185076
H68   H     H_    0.672326 0.006190 0.424296 0.114329
C72   C     C_3   0.719584 0.119981 0.340695 -0.350822
H69   H     H_    0.703242 0.151425 0.271883 0.244494
H70   H     H_    0.711413 0.167451 0.400270 0.230579
C73   C     C_3   0.812116 0.097965 0.338643 -0.908445
H71   H     H_    0.830681 0.067648 0.407174 0.248876
H72   H     H_    0.852545 0.159220 0.328477 0.289216
H73   H     H_    0.822888 0.051908 0.278484 0.261207
O34   O     O_3   0.573410 0.948680 0.653868 -0.555244
C74   C     C_3   0.657386 0.979986 0.635606 0.100403
H74   H     H_    0.681132 0.015962 0.701152 0.180424
H75   H     H_    0.660019 0.029413 0.577907 0.113432
C75   C     C_3   0.716160 0.905329 0.615963 -0.371102
H76   H     H_    0.710074 0.856048 0.674146 0.266767
H77   H     H_    0.698200 0.872090 0.546782 0.203745
C76   C     C_3   0.808068 0.940687 0.610693 -0.931596
H78   H     H_    0.815031 0.991832 0.554770 0.250995
H79   H     H_    0.848714 0.886441 0.592119 0.265606
H80   H     H_    0.829665 0.969568 0.680891 0.268321
O35   O     O_3   0.640498 0.566480 0.257981 -0.618772
C77   C     C_3   0.644516 0.659132 0.250757 0.085524
H81   H     H_    0.581855 0.686194 0.263737 0.188908
H82   H     H_    0.666367 0.679082 0.178185 0.154374
C78   C     C_3   0.707444 0.698601 0.325906 -0.324116
H83   H     H_    0.689053 0.674855 0.398219 0.228458
H84   H     H_    0.771601 0.677037 0.310551 0.202737
C79   C     C_3   0.709980 0.798899 0.326418 -0.939789
H85   H     H_    0.647243 0.821957 0.345798 0.264792
H86   H     H_    0.727888 0.824650 0.254795 0.262548
H87   H     H_    0.757513 0.825302 0.380175 0.256755
O36   O     O_3   0.397197 0.380863 0.739183 -0.589095
C80   C     C_3   0.310898 0.385336 0.761557 0.048029
H88   H     H_    0.285588 0.444686 0.728422 0.175317
H89   H     H_    0.299666 0.387564 0.840057 0.144339
C81   C     C_3   0.262942 0.303047 0.721102 -0.306517
H90   H     H_    0.271379 0.299438 0.642177 0.224122
H91   H     H_    0.288872 0.244356 0.754241 0.248154
C82   C     C_3   0.169251 0.302056 0.742961 -0.964058
H92   H     H_    0.159498 0.305727 0.821560 0.261047
H93   H     H_    0.137282 0.240099 0.714961 0.256618
H94   H     H_    0.141164 0.358410 0.707783 0.296853

loop_
_geom_bond_atom_site_label_1
_geom_bond_atom_site_label_2
_ccdc_geom_bond_type
C25   C31   S    
Cu2   O3    S    
C69   H63   S    
O10   H3    S    
C24   O8    A    
C66   H56   S    
C10   O34   S    
C70   H64   S    
Cu1   O4    S    
C50   H20   S    
C47   H15   S    
O20   H8    S    
C59   H41   S    
C17   N1    A    
C46   H11   S    
C74   H74   S    
C50   H22   S    
C54   H31   S    
C41   O14   S    
C28   C40   S    
C27   C33   S    
C18   C42   S    
Cu2   O2    S    
C58   H39   S    
C79   H86   S    
C75   C76   S    
C25   O21   S    
C23   C29   S    
C68   H61   S    
C47   H14   S    
C37   O25   S    
C16   O36   S    
C43   O17   D    
C56   H35   S    
C8    C10   A    
C62   H50   S    
C45   H10   S    
C74   H75   S    
C53   H27   S    
C63   O27   D    
O34   C74   S    
C75   H77   S    
C44   O19   D    
C11   C37   A    
O24   C54   S    
C51   H23   S    
C52   H25   S    
C67   H59   S    
C17   C41   S    
C71   H67   S    
Cu2   N1    S    
C64   O29   D    
O26   C60   S    
C72   H70   S    
C79   H87   S    
C78   C79   S    
O31   C65   S    
C31   C33   S    
C9    O33   S    
C48   H17   S    
C16   N2    A    
C18   C20   A    
C73   H73   S    
O21   C45   S    
C25   C34   S    
Cu1   O1    S    
C15   O35   S    
C82   H93   S    
Cu1   O8    S    
C28   C34   S    
C78   H83   S    
C21   C22   S    
C66   C67   S    
C67   H58   S    
C44   O20   S    
C2    C6    S    
C61   C62   S    
C51   H24   S    
C46   H12   S    
C73   H72   S    
O28   H51   S    
C71   H68   S    
C39   O10   S    
C24   O6    A    
C43   O18   S    
C79   H85   S    
O14   H5    S    
C80   H88   S    
C55   C56   S    
C68   C69   S    
C3    C63   S    
C47   H13   S    
C61   H47   S    
C56   H36   S    
Cu1   Cu2   S    
C5    C7    A    
C45   H9    S    
C1    O3    A    
C74   C75   S    
C6    C8    A    
C42   O16   S    
O33   C71   S    
C4    C64   S    
C49   C50   S    
C2    O2    A    
C76   H78   S    
C75   H76   S    
C38   O26   S    
C52   C53   S    
O16   H6    S    
C76   H79   S    
C18   N2    A    
C80   C81   S    
C60   H44   S    
C26   C33   S    
C23   O7    A    
O23   C51   S    
C65   C66   S    
C82   H92   S    
C62   H48   S    
C72   C73   S    
C49   H19   S    
C13   C21   A    
C52   H26   S    
C65   H53   S    
C48   C49   S    
C58   H40   S    
C9    C11   A    
C71   C72   S    
C78   H84   S    
O25   C57   S    
C10   C12   A    
C72   H69   S    
C60   C61   S    
C7    O31   S    
C4    C6    A    
Cu1   O5    S    
C65   H54   S    
C42   O15   D    
C81   H91   S    
C13   C15   A    
C69   H62   S    
C70   H66   S    
C14   C16   A    
C19   C43   S    
C20   C22   A    
C57   H38   S    
Cu2   O7    S    
C59   H43   S    
C1    C5    S    
C46   C47   S    
C73   H71   S    
C80   H89   S    
O32   C68   S    
C70   H65   S    
C82   H94   S    
C63   O28   S    
C54   H30   S    
C64   O30   S    
C27   C32   S    
O36   C80   S    
C77   H82   S    
C28   C31   S    
C4    C38   A    
C77   H81   S    
C3    C5    A    
C59   H42   S    
C55   H33   S    
C11   C12   S    
C50   H21   S    
C39   O9    D    
Cu1   N2    S    
C26   C32   S    
C30   C36   T    
C25   C27   S    
C81   C82   S    
C29   C35   T    
C26   C28   S    
C32   O23   S    
C14   H2    S    
C2    O4    A    
C14   C22   A    
C57   C58   S    
C48   H16   S    
C76   H80   S    
C15   N1    A    
O18   H7    S    
C8    O32   S    
O30   H52   S    
C62   H49   S    
C45   C46   S    
C1    O1    A    
C40   O11   D    
C67   H57   S    
C53   H28   S    
C58   C59   S    
Cu2   O6    S    
C49   H18   S    
C33   C35   S    
C31   O24   S    
C20   C44   S    
C54   C55   S    
C34   C36   S    
C55   H32   S    
C51   C52   S    
C12   C38   A    
C41   O13   D    
C24   C30   S    
C68   H60   S    
C40   O12   S    
O35   C77   S    
C17   C19   A    
C7    C9    A    
O12   H4    S    
C23   O5    A    
O22   C48   S    
C3    C37   A    
C69   C70   S    
C26   O22   S    
C81   H90   S    
C66   H55   S    
C60   H45   S    
C13   H1    S    
C61   H46   S    
C27   C39   S    
C57   H37   S    
C56   H34   S    
C32   C34   S    
C77   C78   S    
C19   C21   A    
C53   H29   S    
