data_mof_unit_44363.cif
_audit_creation_date              2012-12-11T15:52:27-0500
_audit_creation_method            fapswitch 2.2
_symmetry_space_group_name_H-M    P1
_symmetry_Int_Tables_number       1
_space_group_crystal_system       triclinic
_cell_length_a                    6.925941
_cell_length_b                    14.604945
_cell_length_c                    15.986959
_cell_angle_alpha                 90.26623
_cell_angle_beta                  89.885893
_cell_angle_gamma                 90.105238
_cell_volume                      1617.10529707

loop_
_atom_site_label
_atom_site_type_symbol
_atom_type_description
_atom_site_fract_x
_atom_site_fract_y
_atom_site_fract_z
_atom_type_partial_charge
O1    O     O_R   0.494400 0.415640 0.412830 -0.541417
O2    O     O_R   0.823920 0.405510 0.586560 -0.536294
O3    O     O_R   0.994250 0.584360 0.587170 -0.520865
C1    C     C_R   0.654617 0.383823 0.615640 0.725520
O4    O     O_R   0.824110 0.404610 0.413450 -0.545669
O5    O     O_R   0.994440 0.583460 0.412820 -0.543369
C2    C     C_R   0.655043 0.382180 0.384327 0.681832
O6    O     O_R   0.494210 0.416540 0.587180 -0.541727
O7    O     O_3   0.660810 0.558680 0.500000 -0.371788
V1    V     V_3+5 0.935650 0.489110 0.500000 1.431414
O8    O     O_R   0.324150 0.594490 0.413440 -0.545323
C3    C     C_R   0.155222 0.616665 0.384333 0.676282
O9    O     O_R   0.323970 0.595390 0.586550 -0.551432
C4    C     C_R   0.155083 0.617216 0.615911 0.698168
V2    V     V_3+5 0.435660 0.510890 0.500000 1.403608
O10   O     O_3   0.160630 0.441320 0.500000 -0.368996
C5    C     C_3   0.071304 0.641370 0.769812 0.239138
H1    H     H_    0.180752 0.589869 0.788961 0.101071
C6    C     C_3   0.054873 0.713940 0.841620 -0.375450
H2    H     H_    0.145054 0.692130 0.895492 0.110163
H3    H     H_    0.903714 0.718533 0.864984 0.148610
H4    H     H_    0.861061 0.741691 0.647413 0.145866
H5    H     H_    0.840140 0.843293 0.756797 0.146909
C7    C     C_3   0.007742 0.767153 0.663512 -0.347043
C8    C     C_3   0.345655 0.729166 0.705588 -0.395618
C9    C     C_3   0.143845 0.686776 0.686914 0.057466
H6    H     H_    0.403611 0.763261 0.648660 0.159039
H7    H     H_    0.449331 0.674344 0.722822 0.137448
C10   C     C_3   0.122876 0.809373 0.811020 0.063605
C11   C     C_3   0.993277 0.837509 0.736222 -0.320815
C12   C     C_3   0.333696 0.799660 0.777851 -0.319818
H8    H     H_    0.430877 0.777586 0.829325 0.142542
H9    H     H_    0.387215 0.867150 0.755379 0.160217
H10   H     H_    0.063977 0.801928 0.606620 0.139379
H11   H     H_    0.038742 0.905560 0.712749 0.176258
C13   C     C_R   0.953138 0.773665 0.216117 -0.156595
H12   H     H_    0.812242 0.791874 0.192225 0.115458
C14   C     C_R   0.964335 0.710541 0.281682 -0.151366
H13   H     H_    0.831442 0.681939 0.306068 0.118009
C15   C     C_R   0.144124 0.684630 0.315130 -0.045630
C16   C     C_R   0.312389 0.723673 0.281050 -0.156890
H14   H     H_    0.453286 0.705463 0.304941 0.115946
C17   C     C_R   0.301192 0.786800 0.215486 -0.151377
H15   H     H_    0.434084 0.815403 0.191102 0.117727
C18   C     C_R   0.121403 0.812711 0.182040 -0.044756
C19   C     C_R   0.798670 0.255578 0.697076 -0.159332
H16   H     H_    0.925854 0.259547 0.657695 0.146653
C20   C     C_R   0.790892 0.188906 0.759503 0.145891
C21   C     C_R   0.625542 0.181611 0.811991 -0.083821
C22   C     C_R   0.471309 0.242394 0.798383 -0.151248
H17   H     H_    0.344149 0.240226 0.837818 0.154679
C23   C     C_R   0.479264 0.307521 0.734448 -0.132801
H18   H     H_    0.357516 0.352931 0.725792 0.129518
C24   C     C_R   0.643742 0.315001 0.683392 -0.078449
C25   C     C_R   0.812169 0.274162 0.281270 -0.154574
H19   H     H_    0.953022 0.292693 0.305316 0.116723
C26   C     C_R   0.801104 0.210314 0.215740 -0.148697
H20   H     H_    0.933987 0.181507 0.191532 0.118397
C27   C     C_R   0.621420 0.183959 0.182102 -0.044915
C28   C     C_R   0.453117 0.223292 0.215960 -0.155318
H21   H     H_    0.312269 0.204756 0.191912 0.116450
C29   C     C_R   0.464183 0.287144 0.281493 -0.148510
H22   H     H_    0.331307 0.315954 0.305704 0.118705
C30   C     C_R   0.643871 0.313495 0.315131 -0.045048
O11   O     O_R   0.771300 0.080930 0.910090 -0.519661
O12   O     O_R   0.441270 0.092800 0.083770 -0.545854
O13   O     O_R   0.271080 0.913920 0.084380 -0.543916
C31   C     C_R   0.610303 0.115269 0.112910 0.678530
O14   O     O_R   0.441580 0.091910 0.910670 -0.531318
O15   O     O_R   0.271390 0.913020 0.910040 -0.538099
C32   C     C_R   0.611495 0.113112 0.880789 0.732552
O16   O     O_R   0.770990 0.081830 0.084440 -0.541922
O17   O     O_3   0.604750 0.938760 0.997250 -0.376516
V3    V     V_3+5 0.329850 0.008280 0.997210 1.433953
O18   O     O_R   0.941680 0.901940 0.910610 -0.539983
C33   C     C_R   0.110947 0.879715 0.881503 0.714140
O19   O     O_R   0.941370 0.902830 0.083720 -0.546607
C34   C     C_R   0.110301 0.880684 0.112843 0.672754
V4    V     V_3+5 0.829860 0.986420 0.997150 1.427706
O20   O     O_3   0.104830 0.056030 0.997180 -0.354409
O21   O     O_3   0.896481 0.593488 0.758731 -0.647883
H23   H     H_    0.792495 0.638897 0.749797 0.286475
I1    I     I_    0.035422 0.101503 0.762961 -0.483681

loop_
_geom_bond_atom_site_label_1
_geom_bond_atom_site_label_2
_ccdc_geom_bond_type
C8    C12   S    
O12   C31   A    
C25   H19   S    
O11   V4    S    
C16   H14   S    
C6    H2    S    
C1    O6    A    
O21   H23   S    
C10   C33   S    
O19   C34   A    
C8    H7    S    
C29   H22   S    
C11   H11   S    
C5    C9    S    
C13   H12   S    
C6    H3    S    
C7    C9    S    
O16   V4    S    
O5    C3    A    
C14   H13   S    
C26   C27   A    
V2    O10   S    
O12   V3    S    
C28   C29   A    
O17   V3    S    
O14   C32   A    
C29   C30   A    
O8    V2    S    
O15   V3    S    
C22   C23   A    
C12   H9    S    
C18   C34   S    
O1    V2    S    
O7    V1    S    
C27   C28   A    
V3    O20   S    
O9    C4    A    
C16   C17   A    
O13   C34   A    
C23   C24   A    
C22   H17   S    
O19   V4    S    
C19   C20   A    
H5    C11   S    
O14   V3    S    
O4    C2    A    
C8    C9    S    
O11   C32   A    
C7    H10   S    
C28   H21   S    
C3    C15   S    
O2    C1    A    
O18   C33   A    
C10   C11   S    
C27   C31   S    
C12   H8    S    
C31   O16   A    
C25   C30   A    
C19   C24   A    
C5    H1    S    
O17   V4    S    
C13   C18   A    
O13   V3    S    
C4    C9    S    
C17   C18   A    
O3    C4    A    
C20   C21   A    
O6    V2    S    
O9    V2    S    
C17   H15   S    
O15   C33   A    
H4    C7    S    
C6    C10   S    
C23   H18   S    
C19   H16   S    
C15   C16   A    
C1    C24   S    
O1    C2    A    
O5    V1    S    
O8    C3    A    
C8    H6    S    
C20   I1    S    
C25   C26   A    
O7    V2    S    
O4    V1    S    
C10   C12   S    
O3    V1    S    
V1    O10   S    
C14   C15   A    
C26   H20   S    
C13   C14   A    
C5    C6    S    
C5    O21   S    
C7    C11   S    
C2    C30   S    
V4    O20   S    
C21   C22   A    
C21   C32   S    
O18   V4    S    
O2    V1    S    
