data_mof_unit_45916.cif
_audit_creation_date              2012-12-10T17:51:59-0500
_audit_creation_method            fapswitch 2.2
_symmetry_space_group_name_H-M    P1
_symmetry_Int_Tables_number       1
_space_group_crystal_system       triclinic
_cell_length_a                    14.702809
_cell_length_b                    14.78042
_cell_length_c                    19.359745
_cell_angle_alpha                 76.594552
_cell_angle_beta                  103.168947
_cell_angle_gamma                 114.965392
_cell_volume                      3669.60162573

loop_
_atom_site_label
_atom_site_type_symbol
_atom_type_description
_atom_site_fract_x
_atom_site_fract_y
_atom_site_fract_z
_atom_type_partial_charge
C1    C     C_R   0.879826 0.312287 0.511560 0.825750
C2    C     C_R   0.120023 0.687677 0.488080 0.828641
C3    C     C_R   0.810875 0.205065 0.523749 -0.048601
C4    C     C_R   0.188313 0.794575 0.488638 -0.045572
C5    C     C_R   0.784448 0.031570 0.575222 -0.202477
C6    C     C_R   0.215709 0.964128 0.500559 -0.200657
C7    C     C_R   0.849575 0.131863 0.559358 -0.241313
C8    C     C_R   0.150184 0.865106 0.493083 -0.247404
C9    C     C_R   0.705050 0.176684 0.503719 0.084066
C10   C     C_R   0.293483 0.824268 0.491165 0.099242
C11   C     C_R   0.638522 0.078437 0.529973 0.039919
C12   C     C_R   0.361047 0.919807 0.510361 0.042030
C13   C     C_R   0.679352 0.004142 0.560506 0.140876
C14   C     C_R   0.320751 0.992145 0.509128 0.137070
C15   C     C_R   0.532396 0.050384 0.524519 0.063648
C16   C     C_R   0.467418 0.947017 0.528808 0.064344
C17   C     C_R   0.510123 0.874641 0.558782 -0.227440
C18   C     C_R   0.490263 0.120892 0.522694 -0.228532
C19   C     C_R   0.614556 0.903217 0.576085 -0.209915
C20   C     C_R   0.386018 0.091528 0.516960 -0.210908
C21   C     C_R   0.711483 0.664033 0.378236 -0.364484
C22   C     C_R   0.288899 0.336363 0.621999 -0.370452
C23   C     C_R   0.999834 0.499893 0.632499 0.781786
C24   C     C_R   0.000219 0.500199 0.367494 0.795983
C25   C     C_R   0.794871 0.636722 0.397835 0.378539
C26   C     C_R   0.206145 0.364675 0.603114 0.381097
C27   C     C_R   0.715275 0.509753 0.490399 -0.051471
C28   C     C_R   0.283268 0.487895 0.508068 -0.059769
C29   C     C_R   0.627802 0.533741 0.472559 -0.023946
C30   C     C_R   0.370580 0.463629 0.525675 -0.023536
C31   C     C_R   0.628254 0.613268 0.415339 0.142196
C32   C     C_R   0.370763 0.385051 0.583517 0.142481
C33   C     C_R   0.541008 0.482862 0.509336 0.088537
C34   C     C_R   0.456869 0.513732 0.488355 0.084891
C35   C     C_R   0.462279 0.594128 0.431278 -0.241956
C36   C     C_R   0.535510 0.402337 0.566328 -0.245491
C37   C     C_R   0.546076 0.642341 0.395521 -0.181392
C38   C     C_R   0.452300 0.355008 0.602691 -0.194245
C39   C     C_R   0.075835 0.482368 0.761373 -0.182470
C40   C     C_R   0.924857 0.518880 0.238541 -0.177973
C41   C     C_R   0.075868 0.482419 0.833315 -0.160758
C42   C     C_R   0.924945 0.519065 0.166576 -0.159994
C43   C     C_R   0.999658 0.499915 0.853746 0.057644
C44   C     C_R   0.000816 0.500988 0.146180 0.056378
C45   C     C_R   0.923316 0.517234 0.800747 -0.158515
C46   C     C_R   0.076722 0.482894 0.199231 -0.156691
C47   C     C_R   0.923293 0.517181 0.728765 -0.191084
C48   C     C_R   0.076609 0.482680 0.271236 -0.185442
C49   C     C_R   0.999601 0.499800 0.708448 -0.029044
C50   C     C_R   0.000601 0.500571 0.291523 -0.031293
C51   C     C_R   0.000602 0.500833 0.070029 0.412018
C52   C     C_R   0.999939 0.500202 0.929886 0.411054
Cu1   Cu    Cu3+1 0.081740 0.475680 0.518680 0.962318
Cu2   Cu    Cu3+1 0.918260 0.524320 0.481320 0.963859
H1    H     H_    0.135785 0.468950 0.747300 0.151619
H2    H     H_    0.865226 0.532854 0.252585 0.154013
H3    H     H_    0.546710 0.703658 0.351913 0.144012
H4    H     H_    0.451822 0.293933 0.646471 0.144852
H5    H     H_    0.275134 0.544196 0.463519 0.144349
H6    H     H_    0.722247 0.451551 0.533770 0.129261
H7    H     H_    0.712145 0.724910 0.334242 0.141567
H8    H     H_    0.288857 0.276399 0.666609 0.140897
H9    H     H_    0.402920 0.622310 0.412843 0.141201
H10   H     H_    0.594618 0.373784 0.584527 0.128329
H11   H     H_    0.135787 0.468851 0.872823 0.152541
H12   H     H_    0.865401 0.533293 0.127022 0.152857
H13   H     H_    0.863462 0.530884 0.814739 0.152196
H14   H     H_    0.136310 0.468789 0.185267 0.153225
H15   H     H_    0.863416 0.530664 0.689115 0.151120
H16   H     H_    0.136131 0.468565 0.310929 0.152256
H17   H     H_    0.644682 0.845874 0.600706 0.145471
H18   H     H_    0.356400 0.147148 0.517656 0.150900
H19   H     H_    0.069532 0.843802 0.490557 0.166392
H20   H     H_    0.930423 0.151771 0.574040 0.165173
H21   H     H_    0.816292 0.975665 0.600313 0.141265
H22   H     H_    0.184343 0.018232 0.501536 0.142237
H23   H     H_    0.463610 0.796607 0.574819 0.152118
H24   H     H_    0.537370 0.197274 0.531637 0.146699
N1    N     N_R   0.926784 0.517464 0.949977 -0.243304
N2    N     N_R   0.073761 0.483581 0.049936 -0.242453
N3    N     N_R   0.927111 0.517766 0.018671 -0.242641
N4    N     N_R   0.073438 0.483284 0.981243 -0.242455
N5    N     N_R   0.795420 0.560800 0.453240 -0.168574
N6    N     N_R   0.204580 0.439200 0.546760 -0.170549
O1    O     O_R   0.977910 0.338110 0.524620 -0.566065
O2    O     O_R   0.022090 0.661890 0.475380 -0.567276
O3    O     O_R   0.839850 0.379180 0.493080 -0.571659
O4    O     O_R   0.160150 0.620820 0.506920 -0.574603
O5    O     O_R   0.069040 0.479450 0.615630 -0.559845
O6    O     O_R   0.930960 0.520550 0.384370 -0.555346
O7    O     O_R   0.930990 0.520520 0.584090 -0.595273
O8    O     O_R   0.069010 0.479480 0.415910 -0.591087
N7    N     N_3   0.122748 0.314741 0.642821 -0.530052
H25   H     H_    0.150212 0.325503 0.696328 0.188272
H26   H     H_    0.095387 0.237345 0.641395 0.181638
N8    N     N_3   0.879883 0.688852 0.359773 -0.526833
H27   H     H_    0.907914 0.765537 0.363881 0.192161
H28   H     H_    0.854263 0.681516 0.305564 0.188302
N9    N     N_3   0.327153 0.765744 0.460570 -0.604170
H29   H     H_    0.389418 0.812541 0.434144 0.226350
H30   H     H_    0.345900 0.712936 0.500467 0.222791
N10   N     N_3   0.668824 0.240187 0.445984 -0.577831
H31   H     H_    0.605255 0.196742 0.413552 0.229806
H32   H     H_    0.651546 0.289572 0.466335 0.224606

loop_
_geom_bond_atom_site_label_1
_geom_bond_atom_site_label_2
_ccdc_geom_bond_type
C1    O3    A    
C15   C18   A    
N7    H25   S    
C28   N6    A    
Cu2   O2    S    
C19   H17   S    
C4    C8    A    
C39   C41   A    
Cu1   Cu2   S    
C21   C31   A    
C22   C32   A    
Cu1   N6    S    
C35   C37   A    
Cu2   O6    S    
C3    C7    A    
C27   H6    S    
Cu2   O3    S    
N10   H32   S    
C43   C52   S    
C23   C49   S    
C27   C29   A    
C15   C16   A    
C29   C33   A    
C33   C36   A    
C34   C35   A    
C51   N2    A    
C47   H15   S    
C38   H4    S    
C11   C15   A    
C39   H1    S    
C12   C16   A    
C9    N10   S    
C40   H2    S    
N8    H28   S    
C45   H13   S    
C23   O5    A    
C2    O4    A    
C32   C38   A    
C52   N1    A    
C51   N3    A    
C21   H7    S    
C26   N7    S    
C40   C42   A    
N7    H26   S    
C1    O1    A    
Cu1   O1    S    
C41   C43   A    
C10   N9    S    
C42   C44   A    
C24   O8    A    
Cu2   N5    S    
C44   C46   A    
C7    H20   S    
C45   C47   A    
C24   C50   S    
C46   C48   A    
C30   C34   A    
C14   C20   A    
C42   H12   S    
N2    N4    A    
N1    N3    A    
C13   C19   A    
C16   C17   A    
C6    C8    A    
C31   C37   A    
C1    C3    S    
C5    H21   S    
C2    C4    S    
C46   H14   S    
C3    C9    A    
C22   H8    S    
C43   C45   A    
N9    H29   S    
C18   H24   S    
N8    H27   S    
Cu1   O8    S    
C17   H23   S    
C33   C34   A    
C52   N4    A    
C9    C11   A    
C10   C12   A    
C44   C51   S    
C39   C49   A    
C12   C14   A    
Cu1   O5    S    
C23   O7    A    
C4    C10   A    
C5    C7    A    
C28   H5    S    
C21   C25   A    
C26   N6    A    
N9    H30   S    
C5    C13   A    
C48   H16   S    
C24   O6    A    
C41   H11   S    
C6    H22   S    
C47   C49   A    
C36   C38   A    
C6    C14   A    
C29   C31   A    
C30   C32   A    
C11   C13   A    
C40   C50   A    
C48   C50   A    
C8    H19   S    
C17   C19   A    
C28   C30   A    
C2    O2    A    
Cu1   O4    S    
C18   C20   A    
N10   H31   S    
C27   N5    A    
Cu2   O7    S    
C25   N8    S    
C22   C26   A    
C25   N5    A    
C20   H18   S    
C35   H9    S    
C36   H10   S    
C37   H3    S    
