data_mof_unit_52577.cif
_audit_creation_date              2012-12-11T14:36:03-0500
_audit_creation_method            fapswitch 2.2
_symmetry_space_group_name_H-M    P1
_symmetry_Int_Tables_number       1
_space_group_crystal_system       triclinic
_cell_length_a                    13.488256
_cell_length_b                    13.500804
_cell_length_c                    27.473232
_cell_angle_alpha                 90.606077
_cell_angle_beta                  89.895335
_cell_angle_gamma                 60.119649
_cell_volume                      4337.49835054

loop_
_atom_site_label
_atom_site_type_symbol
_atom_type_description
_atom_site_fract_x
_atom_site_fract_y
_atom_site_fract_z
_atom_type_partial_charge
C1    C     C_R   0.620070 0.101426 0.570178 0.555564
C2    C     C_1   0.655003 0.690813 0.655758 -0.004308
C3    C     C_2   0.387437 0.005998 0.731133 0.564470
C4    C     C_3   0.089550 0.140837 0.739262 -0.107541
C5    C     C_R   0.600239 0.778134 0.568263 0.552472
C6    C     C_3   0.184914 0.064925 0.775374 0.094553
C7    C     C_1   0.100405 0.200276 0.902502 0.011681
C8    C     C_1   0.225786 0.142013 0.617131 0.051982
C9    C     C_3   0.056624 0.247070 0.772447 -0.106411
C10   C     C_3   0.152243 0.170434 0.807880 0.001159
C11   C     C_3   0.143034 0.270234 0.744752 0.106063
C12   C     C_3   0.175008 0.165245 0.712121 0.025246
C13   C     C_1   0.634730 0.724024 0.614524 0.020862
C14   C     C_3   0.237962 0.194959 0.781010 -0.120056
C15   C     C_3   0.269385 0.090149 0.747919 0.072981
C16   C     C_1   0.129971 0.181482 0.860426 -0.010464
C17   C     C_R   0.276873 0.122476 0.569536 0.548238
C18   C     C_1   0.196050 0.155562 0.659275 0.045809
C19   C     C_3   0.664713 0.263593 0.738093 -0.110422
C20   C     C_3   0.570673 0.282553 0.775218 0.068077
C21   C     C_1   0.691443 0.208741 0.902932 0.025397
C22   C     C_1   0.634657 0.134243 0.618250 0.020398
C23   C     C_3   0.755401 0.170803 0.771509 -0.122969
C24   C     C_3   0.648234 0.568925 0.765831 -0.092044
C25   C     C_3   0.660219 0.190713 0.808124 0.019082
C26   C     C_3   0.738195 0.078095 0.745575 -0.099525
C27   C     C_3   0.647710 0.171006 0.712984 0.035249
C28   C     C_3   0.643022 0.098415 0.782707 -0.102825
C29   C     C_R   0.624583 0.102200 0.432476 0.572900
C30   C     C_3   0.552055 0.191245 0.749291 -0.075228
C31   C     C_1   0.673620 0.199325 0.860661 0.003903
C32   C     C_1   0.641883 0.154454 0.660504 -0.009805
C33   C     C_R   0.731517 0.713641 0.358185 -0.123450
C34   C     C_R   0.741758 0.699954 0.307598 -0.011723
C35   C     C_3   0.691619 0.626986 0.801790 0.006209
C36   C     C_R   0.757358 0.679189 0.205490 -0.006791
C37   C     C_R   0.843875 0.686450 0.232261 0.053471
C38   C     C_R   0.834745 0.695985 0.283197 -0.130640
C39   C     C_R   0.769793 0.649803 0.155788 -0.108538
C40   C     C_R   0.682666 0.643008 0.131010 -0.021790
C41   C     C_R   0.601849 0.776215 0.430211 0.548101
C42   C     C_R   0.554241 0.708383 0.355713 -0.116185
C43   C     C_R   0.559967 0.701354 0.305408 -0.004712
C44   C     C_R   0.653773 0.697571 0.280996 0.051626
C45   C     C_R   0.469674 0.704517 0.279364 -0.105913
C46   C     C_3   0.571208 0.686320 0.742284 -0.086960
C47   C     C_R   0.471562 0.702863 0.228864 0.076434
C48   C     C_R   0.567500 0.693612 0.204009 0.029946
C49   C     C_R   0.659137 0.691397 0.230129 0.022283
C50   C     C_R   0.577823 0.677705 0.153977 -0.106289
C51   C     C_R   0.635037 0.723066 0.381979 0.004790
C52   C     C_R   0.200839 0.064410 0.359808 -0.122134
C53   C     C_R   0.277447 0.121129 0.431186 0.546398
C54   C     C_R   0.172315 0.078848 0.310387 0.014760
C55   C     C_R   0.131191 0.102428 0.209744 0.015370
C56   C     C_R   0.133092 0.011245 0.234620 -0.106758
C57   C     C_3   0.670145 0.664016 0.707657 0.051202
C58   C     C_R   0.155796 0.998196 0.284489 -0.110242
C59   C     C_R   0.108087 0.116895 0.159975 -0.121229
C60   C     C_R   0.102052 0.211421 0.136113 -0.004200
C61   C     C_R   0.196304 0.246800 0.361082 -0.112578
C62   C     C_R   0.175913 0.258486 0.311599 0.006637
C63   C     C_R   0.164883 0.173814 0.285879 0.060707
C64   C     C_R   0.172497 0.350652 0.287144 -0.107972
C65   C     C_3   0.746687 0.547369 0.730400 0.113045
C66   C     C_R   0.159796 0.358139 0.236938 -0.118778
C67   C     C_R   0.146737 0.275636 0.211043 0.004094
C68   C     C_3   0.614750 0.743631 0.778912 -0.083811
C69   C     C_R   0.148013 0.183626 0.235505 0.062813
C70   C     C_R   0.127165 0.286868 0.161349 -0.127141
C71   C     C_R   0.217580 0.146284 0.384635 -0.003321
C72   C     C_R   0.567902 0.248512 0.366080 0.023624
C73   C     C_R   0.573605 0.264074 0.315519 -0.011829
C74   C     C_R   0.582705 0.287247 0.213694 0.016200
C75   C     C_R   0.498668 0.376485 0.241809 -0.129789
C76   C     C_R   0.493914 0.365360 0.292016 -0.103813
C77   C     C_3   0.791129 0.603868 0.767209 -0.087422
C78   C     C_R   0.593169 0.300943 0.163766 -0.129624
C79   C     C_3   0.713616 0.721504 0.743688 -0.103360
C80   C     C_R   0.681851 0.212427 0.136640 -0.008758
C81   C     C_R   0.750916 0.069528 0.360694 0.062610
C82   C     C_R   0.749699 0.077463 0.309964 0.016018
C83   C     C_R   0.660903 0.174886 0.287348 0.021744
C84   C     C_R   0.834351 0.988803 0.281143 -0.108877
C85   C     C_R   0.832324 0.996841 0.230873 -0.129100
C86   C     C_R   0.748118 0.094999 0.208445 0.010954
C87   C     C_R   0.662898 0.185259 0.236453 0.069971
C88   C     C_R   0.753095 0.107000 0.158618 -0.117639
C89   C     C_1   0.703270 0.594724 0.897748 0.009466
C90   C     C_1   0.698363 0.611623 0.854618 -0.034885
C91   C     C_R   0.651468 0.144754 0.387537 -0.010182
C92   C     C_R   0.050082 0.235924 0.950009 0.545332
C93   C     C_R   0.712781 0.560452 0.947485 0.547306
C94   C     C_R   0.722283 0.225584 0.950919 0.544325
C95   C     C_R   0.047410 0.245452 0.088624 0.547050
C96   C     C_R   0.707253 0.576285 0.085931 0.544968
C97   C     C_R   0.718672 0.234021 0.089597 0.545239
C98   C     C_2   0.475845 0.397932 0.790752 0.564014
C99   C     C_2   0.942154 0.689615 0.209048 0.535107
C100  C     C_2   0.476504 0.340120 0.396604 0.585363
Cr1   Cr    Cr6+3 0.417550 0.169090 0.500530 1.094603
Cr2   Cr    Cr6+3 0.669180 0.913420 0.499920 1.074134
Cr3   Cr    Cr6+3 0.413260 0.917540 0.499520 1.064345
Cr4   Cr    Cr6+3 0.909170 0.177380 0.020380 1.048370
Cr5   Cr    Cr6+3 0.912710 0.429210 0.018220 1.048570
Cr6   Cr    Cr6+3 0.657170 0.432570 0.019030 1.059690
H1    H     H_    0.881120 0.569646 0.778573 0.157386
H2    H     H_    0.794350 0.724621 0.378476 0.144058
H3    H     H_    0.899532 0.702389 0.304081 0.159156
H4    H     H_    0.509631 0.677420 0.133543 0.180840
H5    H     H_    0.396609 0.709713 0.298307 0.133631
H6    H     H_    0.479997 0.714178 0.373865 0.143787
H7    H     H_    0.088733 0.058307 0.140557 0.141698
H8    H     H_    0.215552 0.987502 0.378073 0.138100
H9    H     H_    0.117469 0.949911 0.215453 0.150944
H10   H     H_    0.739775 0.784856 0.733937 0.138797
H11   H     H_    0.160038 0.925473 0.302777 0.138782
H12   H     H_    0.299424 0.216052 0.798500 0.148066
H13   H     H_    0.122777 0.359876 0.143181 0.144136
H14   H     H_    0.158889 0.428956 0.218393 0.158481
H15   H     H_    0.182232 0.415431 0.306683 0.158743
H16   H     H_    0.205735 0.312187 0.380221 0.173816
H17   H     H_    0.537688 0.382482 0.146978 0.146582
H18   H     H_    0.436996 0.455482 0.225018 0.154666
H19   H     H_    0.428131 0.437783 0.311991 0.166882
H20   H     H_    0.820743 0.037147 0.137848 0.154219
H21   H     H_    0.560986 0.823002 0.800295 0.174986
H22   H     H_    0.899246 0.927801 0.209611 0.161240
H23   H     H_    0.968704 0.312351 0.783842 0.145366
H24   H     H_    0.901215 0.911070 0.296767 0.161676
H25   H     H_    0.480883 0.719486 0.731594 0.192641
H26   H     H_    0.622045 0.505835 0.775873 0.145335
H27   H     H_    0.028138 0.119526 0.721905 0.153737
H28   H     H_    0.397276 0.511841 0.845377 0.356700
H29   H     H_    0.102575 0.662901 0.216227 0.358362
H30   H     H_    0.307677 0.444173 0.408624 0.338568
H31   H     H_    0.483118 0.890516 0.680300 0.330065
H32   H     H_    0.670934 0.332393 0.719249 0.155898
H33   H     H_    0.467383 0.202311 0.739448 0.165303
H34   H     H_    0.634575 0.030529 0.801461 0.154745
H35   H     H_    0.807744 0.993444 0.732739 0.137134
H36   H     H_    0.839277 0.162284 0.781018 0.134408
H37   H     H_    0.850418 0.621378 0.137263 0.179054
I1    I     I_    0.116721 0.431292 0.720546 -0.303605
I2    I     I_    0.841624 0.399726 0.685029 -0.422299
I3    I     I_    0.328490 0.707909 0.193779 -0.513354
I4    I     I_    0.908615 0.953913 0.396367 -0.373263
I5    I     I_    0.221340 0.900501 0.799716 -0.336228
O1    O     O_R   0.301710 0.195650 0.554160 -0.495971
O2    O     O_R   0.635520 0.542770 0.964420 -0.492110
O3    O     O_R   0.665950 0.325030 0.970100 -0.483179
O4    O     O_R   0.522390 0.158990 0.550460 -0.483198
O5    O     O_R   0.816620 0.158530 0.074540 -0.517776
O6    O     O_R   0.004460 0.188870 0.069750 -0.500544
O7    O     O_R   0.025800 0.341780 0.072300 -0.514987
O8    O     O_R   0.807650 0.528950 0.067500 -0.499755
O9    O     O_R   0.633420 0.550490 0.071810 -0.512094
O10   O     O_R   0.664000 0.332180 0.069640 -0.496365
O11   O     O_3   0.826350 0.346390 0.019210 -0.259165
O12   O     O_R   0.658900 0.818120 0.449760 -0.497368
O13   O     O_R   0.694390 0.003530 0.554040 -0.496467
O14   O     O_R   0.657700 0.819660 0.549320 -0.494851
O15   O     O_R   0.501930 0.803280 0.552920 -0.486821
O16   O     O_R   0.318170 0.023580 0.549580 -0.486355
O17   O     O_R   0.303010 0.193990 0.446760 -0.504176
O18   O     O_R   0.523600 0.157450 0.450900 -0.470539
O19   O     O_R   0.695690 0.001860 0.446640 -0.477166
O20   O     O_2   0.409508 0.462138 0.760385 -0.478530
O21   O     O_R   0.463982 0.431899 0.839614 -0.692862
O22   O     O_2   0.934026 0.727551 0.168130 -0.539432
O23   O     O_R   0.503220 0.801620 0.445520 -0.514957
O24   O     O_R   0.042646 0.654908 0.235352 -0.728923
O25   O     O_2   0.502157 0.375686 0.432795 -0.497127
O26   O     O_R   0.361604 0.383154 0.384755 -0.728897
O27   O     O_2   0.469714 0.007058 0.748977 -0.585845
O28   O     O_R   0.401932 0.931001 0.693003 -0.693056
O29   O     O_R   0.319370 0.022040 0.450020 -0.501336
O30   O     O_3   0.499990 0.000010 0.499990 -0.273194
O31   O     O_R   0.818720 0.150820 0.967160 -0.504093
O32   O     O_R   0.006410 0.181720 0.970200 -0.488835
O33   O     O_R   0.027890 0.334070 0.964920 -0.502322
O34   O     O_R   0.809600 0.521790 0.967960 -0.495886

loop_
_geom_bond_atom_site_label_1
_geom_bond_atom_site_label_2
_ccdc_geom_bond_type
C44   C49   A    
C25   C31   S    
C83   C87   A    
C55   C56   A    
Cr2   O19   S    
Cr6   O2    S    
C55   C59   A    
C80   C97   S    
C57   C79   S    
C19   C20   S    
C28   H34   S    
C29   C91   S    
C75   C76   A    
C78   C80   A    
C72   C100  S    
C81   C82   A    
C2    C57   S    
C99   O22   D    
C20   C30   S    
C85   C86   A    
C25   C28   S    
C21   C31   T    
C26   C27   S    
C62   C63   A    
C22   C32   T    
C5    O15   A    
C36   C37   A    
C92   O33   A    
C19   H32   S    
C54   C58   A    
C11   C14   S    
C86   C88   A    
C53   O17   A    
Cr4   O31   S    
C20   C25   S    
C64   H15   S    
C50   H4    S    
C1    O4    A    
C23   C26   S    
Cr1   O1    S    
C2    C13   T    
C42   H6    S    
C54   C63   A    
C82   C84   A    
C62   C64   A    
Cr1   O30   S    
C92   O32   A    
C6    C15   S    
C98   O21   S    
C63   C69   A    
C81   I4    S    
H28   O21   S    
C88   H20   S    
C23   H36   S    
Cr6   O3    S    
C97   O5    A    
Cr4   O5    S    
C4    C12   S    
C26   H35   S    
C19   C27   S    
C11   I1    S    
C5    C13   S    
Cr2   O14   S    
C42   C51   A    
C61   C71   A    
C68   C79   S    
C48   C50   A    
C96   O9    A    
C47   I3    S    
C1    O13   A    
C1    C22   S    
C66   H14   S    
C79   H10   S    
C27   C30   S    
Cr3   O23   S    
C76   H19   S    
C93   O2    A    
C61   C62   A    
C33   H2    S    
C40   C96   S    
C52   C54   A    
C45   C47   A    
H30   O26   S    
C24   C35   S    
C65   C77   S    
C74   C75   A    
C75   H18   S    
C77   H1    S    
C34   C44   A    
C84   C85   A    
H31   O28   S    
C4    C6    S    
C10   C14   S    
Cr2   O12   S    
C39   C40   A    
C72   C91   A    
C86   C87   A    
C99   O24   S    
C14   H12   S    
C94   O3    A    
Cr6   O10   S    
C35   C77   S    
C58   H11   S    
C8    C18   T    
C61   H16   S    
C67   C69   A    
C64   C66   A    
C29   O18   A    
Cr4   O32   S    
C74   C87   A    
C19   C23   S    
C43   C44   A    
C35   C90   S    
C46   C68   S    
C37   C38   A    
C17   O16   A    
C41   O12   A    
C6    I5    S    
C93   O34   A    
C24   H26   S    
C47   C48   A    
C12   C15   S    
C60   C70   A    
C70   H13   S    
C59   H7    S    
C41   O23   A    
C33   C34   A    
Cr3   O16   S    
C77   C79   S    
C40   C50   A    
H29   O24   S    
C38   H3    S    
Cr1   O17   S    
C78   H17   S    
C9    C11   S    
C68   H21   S    
C55   C69   A    
C24   C65   S    
C3    O27   D    
C7    C16   T    
Cr5   O7    S    
C39   H37   S    
C52   H8    S    
C46   C57   S    
C100  O26   S    
Cr5   O34   S    
C73   C76   A    
C42   C43   A    
C96   O8    A    
Cr4   O11   S    
C65   I2    S    
C53   C71   S    
C37   C99   S    
C3    C15   S    
C9    C10   S    
Cr3   O29   S    
Cr5   O33   S    
C48   C49   A    
C30   H33   S    
C27   C32   S    
C34   C38   A    
C26   C28   S    
C36   C39   A    
C17   O1    A    
C57   C65   S    
C72   C73   A    
C53   O29   A    
C6    C10   S    
C11   C12   S    
C45   H5    S    
C73   C83   A    
C9    H23   S    
C33   C51   A    
Cr6   O9    S    
C74   C78   A    
Cr1   O4    S    
Cr3   O15   S    
C8    C17   S    
C67   C70   A    
C24   C46   S    
C97   O10   A    
C95   O6    A    
C28   C30   S    
C89   C90   T    
C80   C88   A    
C52   C71   A    
C10   C16   S    
C5    O14   A    
C29   O19   A    
Cr5   O11   S    
C35   C68   S    
C46   H25   S    
Cr2   O13   S    
Cr2   O30   S    
C7    C92   S    
C84   H24   S    
C56   H9    S    
C56   C58   A    
C66   C67   A    
C95   O7    A    
C94   O31   A    
C23   C25   S    
C89   C93   S    
Cr1   O18   S    
C81   C91   A    
C60   C95   S    
C3    O28   S    
C59   C60   A    
Cr5   O8    S    
C20   C98   S    
C82   C83   A    
C21   C94   S    
C12   C18   S    
C100  O25   D    
C14   C15   S    
C85   H22   S    
Cr3   O30   S    
Cr4   O6    S    
C4    C9    S    
C43   C45   A    
C41   C51   S    
C98   O20   D    
C36   C49   A    
Cr6   O11   S    
C4    H27   S    
