data_mof_unit_36094.cif
_audit_creation_date              2012-12-10T18:44:23-0500
_audit_creation_method            fapswitch 2.2
_symmetry_space_group_name_H-M    P1
_symmetry_Int_Tables_number       1
_space_group_crystal_system       triclinic
_cell_length_a                    12.864242
_cell_length_b                    10.788514
_cell_length_c                    9.889434
_cell_angle_alpha                 90.076441
_cell_angle_beta                  99.195331
_cell_angle_gamma                 90.012107
_cell_volume                      1354.87640066

loop_
_atom_site_label
_atom_site_type_symbol
_atom_type_description
_atom_site_fract_x
_atom_site_fract_y
_atom_site_fract_z
_atom_type_partial_charge
C1    C     C_R   0.508309 0.260406 0.501768 0.974724
C2    C     C_R   0.495122 0.740303 0.498930 0.964440
C3    C     C_R   0.492965 0.874010 0.497906 -0.429050
C4    C     C_R   0.518920 0.127574 0.504609 -0.421369
C5    C     C_R   0.584469 0.544014 0.089085 -0.028532
C6    C     C_R   0.415692 0.455453 0.910937 -0.030727
C7    C     C_R   0.584558 0.543217 0.945740 -0.095871
C8    C     C_R   0.415490 0.456116 0.054321 -0.127467
C9    C     C_R   0.297265 0.497433 0.470769 0.905710
C10   C     C_R   0.702691 0.497180 0.529141 0.897722
C11   C     C_R   0.816179 0.481170 0.548372 -0.224545
C12   C     C_R   0.183557 0.482631 0.451157 -0.221448
C13   C     C_R   0.011777 0.450950 0.314466 0.099653
C14   C     C_R   0.988430 0.456888 0.684620 0.096508
C15   C     C_R   0.119988 0.472663 0.321458 0.490290
C16   C     C_R   0.880486 0.478686 0.677907 0.493601
C17   C     C_R   0.138893 0.472434 0.569700 -0.277913
C18   C     C_R   0.860241 0.463147 0.429878 -0.271923
C19   C     C_R   0.032046 0.459869 0.563774 0.009514
C20   C     C_R   0.967641 0.456090 0.435265 0.005170
C21   C     C_R   0.521394 0.064404 0.380798 0.378676
C22   C     C_R   0.494918 0.937350 0.623074 0.384692
C23   C     C_R   0.501058 0.938267 0.375139 0.390635
C24   C     C_R   0.514960 0.063353 0.627996 0.385985
H1    H     H_    0.810223 0.463130 0.331613 0.217579
H2    H     H_    0.187737 0.482348 0.668198 0.211782
H3    H     H_    0.652088 0.580399 0.156444 0.145290
H4    H     H_    0.348342 0.418636 0.843539 0.159635
H5    H     H_    0.651547 0.579069 0.905506 0.154063
H6    H     H_    0.348070 0.420116 0.094288 0.190192
N1    N     N_R   0.499970 0.499970 0.857200 -0.083775
N2    N     N_R   0.500030 0.500030 0.142800 -0.086796
O1    O     O_R   0.499990 0.316750 0.614620 -0.575681
O2    O     O_R   0.500010 0.683250 0.385380 -0.578331
O3    O     O_R   0.499990 0.316780 0.385290 -0.589867
O4    O     O_R   0.500010 0.683220 0.614710 -0.587300
O5    O     O_R   0.346360 0.499970 0.595710 -0.636061
O6    O     O_R   0.653640 0.500030 0.404290 -0.634402
O7    O     O_R   0.346360 0.499990 0.366380 -0.595649
O8    O     O_R   0.653640 0.500010 0.633620 -0.595199
Zn1   Zn    Zn3+2 0.500000 0.499980 0.653120 0.985080
Zn2   Zn    Zn3+2 0.500000 0.500020 0.346880 0.980642
O9    O     O_3   0.838998 0.497713 0.796652 -0.557474
C25   C     C_3   0.852600 0.624180 0.832637 -0.274149
H7    H     H_    0.936512 0.653574 0.843129 0.167215
H8    H     H_    0.828074 0.639056 0.933882 0.184548
H9    H     H_    0.802581 0.684013 0.756941 0.135467
O10   O     O_3   0.163118 0.483025 0.202881 -0.566376
C26   C     C_3   0.158166 0.608828 0.162980 -0.242377
H10   H     H_    0.075503 0.636898 0.124826 0.176572
H11   H     H_    0.204100 0.621003 0.078061 0.190568
H12   H     H_    0.193220 0.671489 0.247683 0.117876
I1    I     I_    0.916494 0.402512 0.125413 -0.306754
I2    I     I_    0.084149 0.409359 0.873028 -0.335756
O11   O     O_3   0.562278 0.122211 0.275121 -0.565902
C27   C     C_3   0.483643 0.141340 0.160079 -0.130356
H13   H     H_    0.506766 0.222540 0.103194 0.178970
H14   H     H_    0.404657 0.161614 0.187610 0.125882
H15   H     H_    0.480054 0.061638 0.088779 0.187241
O12   O     O_3   0.459942 0.879952 0.733290 -0.561085
C28   C     C_3   0.544216 0.859859 0.841318 -0.162366
H16   H     H_    0.619421 0.835407 0.805179 0.106177
H17   H     H_    0.522766 0.781452 0.903401 0.175061
H18   H     H_    0.554828 0.940682 0.911253 0.188558
O13   O     O_3   0.496100 0.878061 0.250434 -0.564522
C29   C     C_3   0.388970 0.859051 0.194188 -0.281680
H19   H     H_    0.348094 0.799088 0.260221 0.160277
H20   H     H_    0.385122 0.811942 0.093718 0.190141
H21   H     H_    0.345207 0.947833 0.176757 0.132952
O14   O     O_3   0.523022 0.123600 0.753087 -0.572170
C30   C     C_3   0.630631 0.148448 0.801605 -0.231314
H22   H     H_    0.678970 0.062499 0.810265 0.120937
H23   H     H_    0.664275 0.215751 0.735386 0.185231
H24   H     H_    0.637452 0.189980 0.905327 0.198931

loop_
_geom_bond_atom_site_label_1
_geom_bond_atom_site_label_2
_ccdc_geom_bond_type
C12   C17   A    
C30   H24   S    
C29   H20   S    
O9    C25   S    
C25   H9    S    
C11   C18   A    
O6    Zn2   S    
O14   C30   S    
C7    H5    S    
C14   C16   A    
C28   H18   S    
C5    C7    A    
C11   C16   A    
C3    C23   A    
C19   C20   A    
O2    Zn2   S    
C12   C15   A    
C10   O6    A    
C26   H12   S    
O1    Zn1   S    
C23   O13   S    
O11   C27   S    
C9    O5    A    
C2    C3    S    
C8    H6    S    
C30   H22   S    
O13   C29   S    
C27   H13   S    
C22   O12   S    
C4    C21   A    
C16   O9    S    
C2    O2    A    
O4    Zn1   S    
C18   H1    S    
C15   O10   S    
C17   H2    S    
O10   C26   S    
C14   I2    S    
C27   H14   S    
C6    N1    A    
O7    Zn2   S    
C13   I1    S    
C2    O4    A    
C13   C15   A    
C21   C23   A    
O5    Zn1   S    
C28   H16   S    
C4    C24   A    
C9    C12   S    
C22   C24   A    
C29   H21   S    
C7    N1    A    
C10   C11   S    
C1    O1    A    
C24   O14   S    
C8    N2    A    
C9    O7    A    
C1    C4    S    
C29   H19   S    
C25   H7    S    
C1    O3    A    
C18   C20   A    
C10   O8    A    
C26   H10   S    
C26   H11   S    
C30   H23   S    
C28   H17   S    
C27   H15   S    
N2    Zn2   S    
O3    Zn2   S    
O8    Zn1   S    
C21   O11   S    
C6    C8    A    
N1    Zn1   S    
C13   C20   A    
C17   C19   A    
C5    H3    S    
C14   C19   A    
C5    N2    A    
C6    H4    S    
C25   H8    S    
O12   C28   S    
C3    C22   A    
