data_mof_unit_50149.cif
_audit_creation_date              2013-03-05T16:10:39-0500
_audit_creation_method            fapswitch 2.2
_symmetry_space_group_name_H-M    P1
_symmetry_Int_Tables_number       1
_space_group_crystal_system       triclinic
_cell_length_a                    8.841161
_cell_length_b                    15.478954
_cell_length_c                    18.84932
_cell_angle_alpha                 103.188543
_cell_angle_beta                  92.935126
_cell_angle_gamma                 99.864639
_cell_volume                      2463.40942327

loop_
_atom_site_label
_atom_site_type_symbol
_atom_site_description
_atom_site_fract_x
_atom_site_fract_y
_atom_site_fract_z
_atom_type_partial_charge
P1    P     P_3+3 0.039430 0.410940 0.333230 0.533304
O1    O     O_2   0.871960 0.437280 0.322960 -0.249524
O2    O     O_3   0.121410 0.444460 0.412450 -0.438061
O3    O     O_3   0.661450 0.607570 0.372550 -0.324807
O4    O     O_2   0.755153 0.532429 0.245960 -0.397123
O5    O     O_3   0.002238 0.290833 0.300632 -0.571755
O6    O     O_3   0.660789 0.684524 0.256917 -0.540767
H1    H     H_    0.459920 0.707400 0.303922 0.056788
C1    C     C_3   0.553822 0.820320 0.260860 -0.161334
P2    P     P_3+3 0.676770 0.715000 0.563590 0.443245
P3    P     P_3+3 0.139038 0.774677 0.414885 0.438953
O7    O     O_2   0.852310 0.726980 0.542430 -0.371348
O8    O     O_3   0.084010 0.657370 0.410280 -0.365264
O9    O     O_2   0.048663 0.813491 0.478913 -0.377743
O10   O     O_3   0.696478 0.759992 0.658257 -0.570817
O11   O     O_3   0.036438 0.806637 0.342328 -0.542250
C2    C     C_3   0.088813 0.792636 0.269655 0.870775
C3    C     C_3   0.169185 0.883838 0.256851 -1.125274
H2    H     H_    0.084494 0.926265 0.247470 0.263282
H3    H     H_    0.255061 0.917915 0.303769 0.239660
C4    C     C_3   0.104888 0.756012 0.696612 0.200891
H4    H     H_    0.044916 0.758860 0.643746 0.128095
H5    H     H_    0.016870 0.723362 0.728228 0.036664
C5    C     C_3   0.178747 0.852962 0.741878 0.002106
H6    H     H_    0.302546 0.855603 0.758771 0.214347
Ba1   Ba    Ba6+2 0.853520 0.540910 0.466490 1.526632
C6    C     C_3   0.971397 0.239931 0.352612 0.308058
H7    H     H_    0.055131 0.265819 0.401941 0.115387
C7    C     C_3   0.964262 0.137357 0.321146 -0.491854
H8    H     H_    0.863597 0.107883 0.279466 0.148308
H9    H     H_    0.062709 0.122228 0.290879 0.263964
C8    C     C_3   0.694955 0.690791 0.694135 0.441202
H10   H     H_    0.791548 0.657484 0.677328 0.047516
H11   H     H_    0.584412 0.640991 0.680261 0.136185
C9    C     C_3   0.717653 0.732235 0.776146 -1.069504
H12   H     H_    0.827772 0.780788 0.790654 0.265095
H13   H     H_    0.718471 0.678720 0.806386 0.216867
H14   H     H_    0.624783 0.770555 0.793006 0.283711
P4    P     P_3+3 0.150290 0.589140 0.666780 0.431471
O12   O     O_2   0.317750 0.562750 0.677090 -0.377225
O13   O     O_3   0.068300 0.555620 0.587560 -0.439259
O14   O     O_3   0.528270 0.392500 0.627460 -0.420061
O15   O     O_3   0.221992 0.705410 0.679633 -0.558981
P5    P     P_3+3 0.054944 0.225887 0.586715 0.414818
O16   O     O_3   0.609290 0.386840 0.459690 -0.281679
O17   O     O_3   0.105700 0.342700 0.589730 -0.390802
O18   O     O_2   0.157617 0.179721 0.531635 -0.356804
O19   O     O_3   0.120310 0.204726 0.670476 -0.609623
Ba2   Ba    Ba6+2 0.336320 0.459170 0.533520 1.562315
P6    P     P_3+3 0.623104 0.578668 0.277931 0.478514
C10   C     C_3   0.524276 0.718278 0.256395 0.126626
H15   H     H_    0.454454 0.683195 0.204539 0.107544
H16   H     H_    0.442998 0.841398 0.253589 0.142601
O20   O     O_3   0.580430 0.613240 0.540320 -0.440686
C11   C     C_3   0.455327 0.236715 0.284243 0.671212
C12   C     C_3   0.502997 0.162772 0.224277 -1.060854
H17   H     H_    0.420128 0.097782 0.217131 0.274136
H18   H     H_    0.506970 0.180713 0.170543 0.229153
H19   H     H_    0.615273 0.147388 0.241123 0.255065
P7    P     P_3+3 0.510195 0.270787 0.442247 0.560430
O21   O     O_2   0.337390 0.273050 0.457610 -0.336093
O22   O     O_3   0.506096 0.214058 0.348828 -0.591592
H20   H     H_    0.230667 0.874988 0.206444 0.242134
C13   C     C_3   0.060244 0.255252 0.731587 0.309885
H21   H     H_    0.102501 0.328733 0.736977 0.146577
C14   C     C_3   0.111982 0.228068 0.802958 -0.314448
H22   H     H_    0.118205 0.155002 0.786920 0.140636
P8    P     P_3+3 0.571146 0.421835 0.723413 0.457205
C15   C     C_3   0.497305 0.245735 0.688498 0.439306
H23   H     H_    0.598906 0.247458 0.656585 0.054109
O23   O     O_2   0.447715 0.475206 0.755328 -0.376691
O24   O     O_3   0.518371 0.319855 0.750096 -0.508759
H24   H     H_    0.396435 0.246781 0.651517 0.143218
H25   H     H_    0.484788 0.101456 0.663722 0.168735
C16   C     C_3   0.470332 0.155860 0.711653 -0.477188
H26   H     H_    0.350299 0.140595 0.726403 0.192995
C17   C     C_R   0.007308 0.451068 0.044269 -0.024206
C18   C     C_R   0.908239 0.409845 0.088171 0.061869
C19   C     C_R   0.749519 0.385590 0.065354 -0.167313
C20   C     C_R   0.691610 0.397618 0.998632 -0.209378
C21   C     C_R   0.790620 0.434997 0.953127 0.112037
C22   C     C_R   0.948944 0.462949 0.976047 0.019096
C23   C     C_R   0.732864 0.444211 0.885146 -0.203502
C24   C     C_R   0.830592 0.479417 0.837512 0.049062
C25   C     C_R   0.990959 0.510705 0.860917 0.005125
C26   C     C_R   0.048927 0.501114 0.930405 -0.042120
C27   C     C_R   0.772194 0.483074 0.766949 0.260211
C28   C     C_R   0.873547 0.524423 0.724577 -0.550798
C29   C     C_R   0.033375 0.553917 0.743241 0.219561
C30   C     C_R   0.092906 0.551497 0.815652 -0.049039
C31   C     C_R   0.165422 0.476644 0.067293 -0.032680
C32   C     C_R   0.221390 0.469825 0.137861 -0.024008
C33   C     C_R   0.117031 0.434979 0.184472 -0.132813
C34   C     C_R   0.971649 0.386628 0.150562 0.182713
H27   H     H_    0.668625 0.359735 0.099894 0.143893
H28   H     H_    0.568828 0.377399 0.982501 0.149050
H29   H     H_    0.826441 0.530112 0.673281 0.135978
H30   H     H_    0.610090 0.424508 0.870415 0.210152
C35   C     C_R   0.247504 0.589185 0.846273 -0.060572
C36   C     C_R   0.307582 0.569968 0.911071 0.125403
C37   C     C_R   0.207384 0.527469 0.953903 0.050306
C38   C     C_R   0.265464 0.514622 0.021957 0.042194
C39   C     C_R   0.466464 0.595194 0.935490 -0.153371
C40   C     C_R   0.523371 0.580309 0.001127 -0.227284
C41   C     C_R   0.423592 0.541666 0.045433 0.128062
C42   C     C_R   0.378432 0.503510 0.163062 -0.015216
C43   C     C_R   0.479498 0.533439 0.114121 -0.279996
C44   C     C_R   0.428360 0.512053 0.237468 0.203963
C45   C     C_R   0.322767 0.482526 0.284597 -0.514026
C46   C     C_R   0.165755 0.446780 0.261286 0.264932
H31   H     H_    0.548768 0.626027 0.903762 0.108033
H32   H     H_    0.645745 0.601148 0.018060 0.139489
H33   H     H_    0.601730 0.555582 0.130254 0.187444
H34   H     H_    0.361459 0.492635 0.341719 0.190129
C47   C     C_R   0.845657 0.173645 0.553439 0.079818
C48   C     C_R   0.778982 0.081594 0.550704 -0.033407
C49   C     C_R   0.649820 0.891988 0.532577 -0.080242
C50   C     C_R   0.799114 0.930416 0.567111 -0.105575
C51   C     C_R   0.862872 0.022347 0.575023 -0.207530
C52   C     C_R   0.586751 0.796543 0.518130 0.219802
H35   H     H_    0.870750 0.889556 0.586606 0.176734
H36   H     H_    0.980342 0.045884 0.599352 0.182803
C53   C     C_R   0.439934 0.765123 0.476791 -0.226539
C54   C     C_R   0.601775 0.195185 0.494289 0.143925
C55   C     C_R   0.537427 0.102441 0.491026 -0.165326
C56   C     C_R   0.624494 0.046414 0.520149 0.078396
C57   C     C_R   0.391470 0.061020 0.455076 0.106609
C58   C     C_R   0.320018 0.977286 0.462139 -0.274530
C59   C     C_R   0.407637 0.917303 0.478227 -0.025208
C60   C     C_R   0.560772 0.951725 0.510924 0.084410
C61   C     C_R   0.347969 0.823758 0.457117 0.144520
C62   C     C_R   0.754812 0.227875 0.525619 -0.210185
H37   H     H_    0.202624 0.953036 0.439848 0.179159
N1    N     N_2   0.168895 0.918653 0.698354 -0.108601
H38   H     H_    0.058197 0.922756 0.681907 0.180437
C63   C     C_3   0.276114 0.922022 0.642990 -0.897684
H39   H     H_    0.261063 0.977299 0.616297 0.258039
H40   H     H_    0.254372 0.856982 0.600834 0.254877
H41   H     H_    0.396909 0.935411 0.668150 0.253592
N2    N     N_2   0.100720 0.876210 0.808288 -0.114597
H42   H     H_    0.089472 0.827611 0.837976 0.215418
C64   C     C_3   0.153447 0.966023 0.855258 -0.897333
H43   H     H_    0.079402 0.976292 0.901517 0.248908
H44   H     H_    0.143970 0.018677 0.824987 0.253672
H45   H     H_    0.275363 0.973855 0.877648 0.255002
C65   C     C_2   0.816025 0.244426 0.368906 0.412298
H46   H     H_    0.737222 0.185014 0.373212 0.025300
O25   O     O_2   0.776193 0.315922 0.378100 -0.472899
N3    N     N_2   0.951206 0.091817 0.380904 -0.056734
H47   H     H_    0.875705 0.110835 0.418238 0.172258
C66   C     C_3   0.941694 0.995940 0.362689 -0.593533
H48   H     H_    0.892738 0.967003 0.407097 0.231216
H49   H     H_    0.057181 0.981774 0.360462 0.246646
H50   H     H_    0.874554 0.964390 0.309217 0.214223
C67   C     C_2   0.621830 0.871944 0.335401 0.432614
H51   H     H_    0.689180 0.841601 0.369748 0.090392
O26   O     O_2   0.605313 0.950116 0.357215 -0.646429
N4    N     N_2   0.290091 0.227042 0.276458 -0.090553
H52   H     H_    0.255661 0.273717 0.317233 0.198493
C68   C     C_3   0.216962 0.220138 0.203578 -0.997858
H53   H     H_    0.091925 0.195360 0.201537 0.296946
H54   H     H_    0.252767 0.168140 0.160073 0.256974
H55   H     H_    0.241651 0.286375 0.188962 0.243340
C69   C     C_2   0.525985 0.329303 0.276276 0.528299
H56   H     H_    0.527084 0.342177 0.221967 -0.071931
O27   O     O_2   0.563879 0.392965 0.328998 -0.496383
N5    N     N_2   0.647855 0.846548 0.205595 -0.082335
H57   H     H_    0.762425 0.842790 0.211690 0.224333
C70   C     C_3   0.577974 0.820787 0.130740 -0.868979
H58   H     H_    0.657631 0.851498 0.095593 0.248398
H59   H     H_    0.467609 0.845967 0.127221 0.246046
H60   H     H_    0.556251 0.746088 0.109947 0.250960
C71   C     C_2   0.888122 0.236643 0.722734 0.418217
H61   H     H_    0.824109 0.169123 0.698927 0.060989
O28   O     O_2   0.820615 0.296985 0.747894 -0.635538
C72   C     C_2   0.268091 0.279567 0.837419 0.616612
H62   H     H_    0.348536 0.244822 0.860243 -0.019989
O29   O     O_2   0.299819 0.361684 0.846481 -0.581097
N6    N     N_2   0.002358 0.241902 0.857944 -0.081836
H63   H     H_    0.003628 0.308606 0.883586 0.222311
C73   C     C_3   0.985222 0.180001 0.905700 -0.934804
H64   H     H_    0.901279 0.199098 0.945558 0.254558
H65   H     H_    0.098033 0.182501 0.936310 0.242498
H66   H     H_    0.940081 0.109790 0.872594 0.262962
N7    N     N_2   0.955437 0.755608 0.214443 -0.101949
H67   H     H_    0.897061 0.694709 0.220358 0.249783
C74   C     C_3   0.973016 0.748783 0.136746 -1.017376
H68   H     H_    0.861869 0.712878 0.104018 0.265730
H69   H     H_    0.063032 0.708898 0.117862 0.258832
H70   H     H_    0.999433 0.817184 0.125173 0.276071
N8    N     N_2   0.578296 0.157689 0.773154 -0.049953
H71   H     H_    0.575829 0.208195 0.819351 0.243208
C75   C     C_3   0.580801 0.071064 0.789576 -0.874549
H72   H     H_    0.656993 0.080412 0.840648 0.246623
H73   H     H_    0.627135 0.026417 0.744190 0.257107
H74   H     H_    0.462857 0.038924 0.797986 0.254362
N9    N     N_2   0.949205 0.292358 0.147363 -0.101461
H75   H     H_    0.991701 0.254748 0.102438 0.166186
C76   C     C_3   0.801408 0.249008 0.162404 -0.856268
H76   H     H_    0.818845 0.194025 0.189882 0.254626
H77   H     H_    0.727513 0.217861 0.109832 0.220509
H78   H     H_    0.748847 0.299597 0.200182 0.266621
C77   C     C_2   0.338608 0.663288 0.821711 0.554080
H79   H     H_    0.439943 0.652402 0.794407 0.059687
O30   O     O_2   0.307215 0.738496 0.837457 -0.640656
N10   N     N_2   0.195110 0.731377 0.259230 -0.153219
H80   H     H_    0.247357 0.732566 0.211883 0.131008
C78   C     C_3   0.133242 0.639346 0.258863 -0.930128
H81   H     H_    0.102896 0.599912 0.200986 0.240418
H82   H     H_    0.024574 0.630826 0.286155 0.313722
H83   H     H_    0.221078 0.617746 0.290360 0.247256
C79   C     C_2   0.351791 0.074330 0.384054 0.551484
H84   H     H_    0.418409 0.052191 0.338783 0.085564
O31   O     O_2   0.248569 0.113536 0.375619 -0.575191
N11   N     N_2   0.370886 0.673817 0.462729 -0.133823
H85   H     H_    0.434372 0.627221 0.439035 0.193629
C80   C     C_3   0.280737 0.653055 0.520004 -0.466914
H86   H     H_    0.211032 0.585880 0.497638 0.279879
H87   H     H_    0.202427 0.702017 0.537006 0.214524
H88   H     H_    0.353866 0.655177 0.569704 0.236778
N12   N     N_2   0.822563 0.315752 0.521710 -0.084655
H89   H     H_    0.922594 0.323372 0.496705 0.194763
C81   C     C_3   0.817142 0.384887 0.585211 -0.605032
H90   H     H_    0.929659 0.426120 0.602474 0.241605
H91   H     H_    0.783095 0.356549 0.631864 0.203238
H92   H     H_    0.746745 0.432033 0.572010 0.254594

loop_
_geom_bond_atom_site_label_1
_geom_bond_atom_site_label_2
_geom_bond_distance
_ccdc_geom_bond_type
O14   P8    1.765538 S    
C77   H79   1.074865 S    
O16   P7    1.806760 S    
C33   C34   1.410226 A    
C53   N11   1.399026 S    
C6    C7    1.552034 S    
C70   H58   1.112489 S    
C81   H90   1.075811 S    
C1    C10   1.538146 S    
C24   C27   1.418753 A    
C11   C12   1.545645 S    
C58   C59   1.380212 A    
N8    C75   1.446751 S    
C21   C22   1.406578 A    
O2    Ba2   2.835588 S    
C81   H92   1.097486 S    
O10   C8    1.389761 S    
P4    O13   1.559223 S    
C25   C26   1.430497 A    
C44   C45   1.411946 A    
C80   H88   1.101534 S    
C41   C43   1.402871 A    
O17   Ba2   2.891963 S    
C7    H8    1.114979 S    
C55   C56   1.431321 A    
C39   H31   1.082017 S    
C69   H56   1.086833 S    
C9    H13   1.108247 S    
N2    C64   1.451855 S    
C11   C69   1.505930 S    
C3    H2    1.109561 S    
P2    O10   1.748994 S    
N3    C66   1.431507 S    
P3    O9    1.545423 D    
N10   C78   1.434117 S    
C3    H20   1.111761 S    
N7    C74   1.462349 S    
C67   O26   1.222378 D    
C42   C43   1.414792 A    
C56   C60   1.444516 A    
Ba2   O20   2.903516 S    
C11   O22   1.413953 S    
C12   H17   1.114647 S    
C54   C62   1.408085 A    
C38   C41   1.406108 A    
P7    O22   1.774847 S    
P1    O1    1.615386 D    
C66   H50   1.105233 S    
P7    C54   1.937645 S    
C50   C51   1.408752 A    
C43   H33   1.081514 S    
C74   H70   1.117589 S    
C13   C14   1.567588 S    
Ba1   O16   2.904152 S    
C4    O15   1.408988 S    
C11   N4    1.439161 S    
C17   C31   1.403235 A    
O5    C6    1.400413 S    
P5    C47   1.899501 S    
C2    N7    1.473993 S    
C78   H81   1.115690 S    
C75   H73   1.113717 S    
C23   H30   1.079543 S    
C76   H78   1.113704 S    
C66   H48   1.109234 S    
C15   H24   1.108126 S    
C20   H28   1.084040 S    
C28   H29   1.061255 S    
P5    O18   1.546863 D    
C17   C18   1.408133 A    
C33   C46   1.450443 A    
C35   C77   1.463821 S    
C28   C29   1.408440 A    
P2    Ba1   3.540992 S    
C72   O29   1.223674 D    
C14   H22   1.113804 S    
C76   H76   1.119966 S    
C48   C56   1.419601 A    
C4    H4    1.118030 S    
N6    C73   1.452277 S    
N4    C68   1.461144 S    
C70   H59   1.115298 S    
C64   H45   1.113518 S    
C14   C72   1.502408 S    
N9    H75   1.039107 S    
C58   H37   1.069838 S    
C63   H41   1.111696 S    
P2    O20   1.608017 S    
Ba1   O20   3.094999 S    
O13   Ba2   3.105952 S    
C40   C41   1.398599 A    
C21   C23   1.401562 A    
C37   C38   1.425710 A    
P5    O17   1.773828 S    
C65   O25   1.196291 D    
C47   C62   1.418955 A    
C73   H65   1.116612 S    
N2    H42   1.030101 S    
C67   H51   1.090602 S    
Ba2   O21   2.911522 S    
H25   C16   1.115027 S    
C62   N12   1.409108 S    
C8    C9    1.520873 S    
C1    N5    1.451602 S    
C9    H14   1.111118 S    
C24   C25   1.429194 A    
C63   H40   1.111273 S    
C45   C46   1.410553 A    
Ba1   Ba2   4.842012 S    
C31   C32   1.428238 A    
C40   H32   1.083779 S    
N10   H80   1.028099 S    
O11   C2    1.449734 S    
P4    O15   1.758984 S    
C80   H86   1.092013 S    
C73   H64   1.110648 S    
C7    N3    1.458355 S    
C36   C39   1.414690 A    
C5    N2    1.462972 S    
N8    H71   1.032990 S    
N5    C70   1.449539 S    
O7    Ba1   2.911241 S    
P7    O21   1.574252 D    
P1    O2    1.559195 S    
C50   H35   1.075014 S    
C8    H11   1.114218 S    
C15   O24   1.412752 S    
C16   N8    1.455406 S    
C16   H26   1.110682 S    
C68   H55   1.110463 S    
C19   H27   1.078904 S    
N12   H89   1.024947 S    
P1    C46   1.918397 S    
C77   O30   1.217295 D    
P3    O11   1.809262 S    
O3    Ba1   2.865279 S    
C23   C24   1.411066 A    
C13   C71   1.492798 S    
O16   Ba2   3.094077 S    
P8    O24   1.759665 S    
C75   H74   1.111376 S    
C81   H91   1.101908 S    
C2    C3    1.544476 S    
O1    Ba1   2.841403 S    
C5    H6    1.115383 S    
C49   C60   1.424822 A    
H1    C10   1.114843 S    
O12   Ba2   2.841985 S    
C71   O28   1.213015 D    
P2    O7    1.612648 D    
C45   H34   1.080680 S    
C32   C42   1.413024 A    
C72   H62   1.088802 S    
P4    Ba2   3.508963 S    
C79   O31   1.202227 D    
C4    H5    1.125300 S    
C78   H83   1.095282 S    
P1    Ba1   3.508322 S    
C70   H60   1.112134 S    
C64   H44   1.107950 S    
O4    P6    1.549176 D    
C49   C52   1.444430 A    
C1    H16   1.096109 S    
C31   C38   1.409485 A    
C6    C65   1.432593 S    
C57   C58   1.379671 A    
C30   C35   1.426198 A    
N5    H57   1.026618 S    
C76   H77   1.117579 S    
C65   H46   1.076115 S    
C73   H66   1.116350 S    
C5    N1    1.455423 S    
C48   C51   1.411155 A    
C2    N10   1.435337 S    
P1    O5    1.786236 S    
C53   C61   1.413472 A    
C18   C19   1.406798 A    
P6    C44   1.872897 S    
C35   C36   1.419818 A    
O6    P6    1.753665 S    
C20   C21   1.402339 A    
P3    C61   1.927586 S    
O19   C13   1.419303 S    
N1    C63   1.448988 S    
C25   C30   1.438274 A    
C52   C53   1.426813 A    
N1    H38   1.028202 S    
N6    H63   1.033224 S    
C80   H87   1.117195 S    
O2    Ba1   3.104959 S    
C14   N6    1.460196 S    
C12   H19   1.107295 S    
C34   N9    1.425374 S    
C8    H10   1.095218 S    
N9    C76   1.436106 S    
C59   C60   1.419254 A    
O6    C10   1.395337 S    
C10   H15   1.101133 S    
C7    H9    1.094357 S    
C78   H82   1.115007 S    
C22   C26   1.414713 A    
N3    H47   1.023895 S    
C13   H21   1.114168 S    
P3    O8    1.778315 S    
N7    H67   1.026924 S    
N4    H52   1.025320 S    
C42   C44   1.418220 A    
C17   C22   1.423437 A    
C18   C34   1.421569 A    
P8    O23   1.544227 D    
C69   O27   1.215227 D    
C32   C33   1.429290 A    
C51   H36   1.080270 S    
C12   H18   1.110359 S    
C15   C16   1.535178 S    
C3    H3    1.103601 S    
C66   H49   1.081320 S    
N11   H85   1.025727 S    
C15   H23   1.106304 S    
O8    Ba1   2.891163 S    
C68   H53   1.101948 S    
C74   H69   1.112810 S    
N11   C80   1.436227 S    
P2    C52   1.930980 S    
O14   Ba2   2.864713 S    
C71   H61   1.082264 S    
C19   C20   1.397174 A    
P4    O12   1.615739 D    
P5    O19   1.772396 S    
C57   C79   1.435334 S    
C74   H68   1.117778 S    
C79   H84   1.086149 S    
C1    C67   1.486851 S    
C27   C28   1.400202 A    
N12   C81   1.420970 S    
C75   H72   1.112690 S    
C4    C5    1.558646 S    
O3    P6    1.737234 S    
C39   C40   1.393902 A    
C55   C57   1.401494 A    
P8    C27   1.910447 S    
C64   H43   1.115787 S    
C63   H39   1.109759 S    
C36   C37   1.408993 A    
C9    H12   1.102598 S    
C59   C61   1.409667 A    
C29   C30   1.448404 A    
C49   C50   1.409285 A    
C26   C37   1.408346 A    
P4    C29   1.939309 S    
C47   C48   1.433856 A    
Ba1   O13   2.834883 S    
C68   H54   1.110502 S    
C54   C55   1.436883 A    
C6    H7    1.109503 S    
