data_mof_unit_58782.cif
_audit_creation_date              2012-12-10T20:34:57-0500
_audit_creation_method            fapswitch 2.2
_symmetry_space_group_name_H-M    P1
_symmetry_Int_Tables_number       1
_space_group_crystal_system       triclinic
_cell_length_a                    10.698248
_cell_length_b                    10.705969
_cell_length_c                    9.913607
_cell_angle_alpha                 89.25189
_cell_angle_beta                  90.714261
_cell_angle_gamma                 91.541042
_cell_volume                      1134.86529114

loop_
_atom_site_label
_atom_site_type_symbol
_atom_type_description
_atom_site_fract_x
_atom_site_fract_y
_atom_site_fract_z
_atom_type_partial_charge
C1    C     C_R   0.504657 0.260133 0.500565 0.863096
C2    C     C_3   0.878436 0.497999 0.498740 0.099932
C3    C     C_3   0.935177 0.629039 0.450355 -0.050307
C4    C     C_3   0.926179 0.383164 0.417641 -0.061805
C5    C     C_R   0.519654 0.061722 0.622170 0.079987
C6    C     C_R   0.525256 0.129026 0.501464 -0.092181
C7    C     C_R   0.553061 0.067621 0.381407 -0.237521
C8    C     C_R   0.552305 0.938019 0.380345 -0.240529
C9    C     C_R   0.523160 0.871592 0.499168 -0.113866
C10   C     C_R   0.516765 0.934163 0.620632 0.158610
C11   C     C_3   0.421785 0.924056 0.730385 -0.063067
C12   C     C_R   0.257821 0.496466 0.500131 0.863151
C13   C     C_3   0.426408 0.065565 0.732531 -0.581865
C14   C     C_R   0.472039 0.392618 0.071301 0.184488
C15   C     C_R   0.545724 0.599707 0.071818 -0.275477
C16   C     C_R   0.551205 0.598066 0.927516 0.498851
C17   C     C_R   0.464817 0.395956 0.929361 0.077314
C18   C     C_3   0.339857 0.333124 0.925705 -0.479189
C19   C     C_3   0.355908 0.311235 0.075883 -0.142593
C20   C     C_R   0.504359 0.739803 0.499207 0.891624
C21   C     C_R   0.742145 0.499551 0.500138 0.819369
C22   C     C_3   0.070517 0.466453 0.647191 -0.038958
C23   C     C_3   0.927557 0.477746 0.646350 -0.530512
C24   C     C_3   0.079069 0.627994 0.459804 -0.454784
C25   C     C_3   0.067069 0.400374 0.399460 -0.402971
C26   C     C_3   0.121399 0.496169 0.502115 0.099266
H1    H     H_    0.109681 0.537619 0.718430 0.164521
H2    H     H_    0.121749 0.656754 0.361861 0.196718
H3    H     H_    0.567082 0.118511 0.287396 0.162668
H4    H     H_    0.566301 0.890793 0.285959 0.164382
H5    H     H_    0.456830 0.880083 0.825002 0.213059
H6    H     H_    0.338037 0.109635 0.699165 0.206017
H7    H     H_    0.470646 0.101659 0.826751 0.194117
H8    H     H_    0.577601 0.681618 0.126250 0.149137
H9    H     H_    0.266446 0.400992 0.899101 0.219141
H10   H     H_    0.333982 0.246438 0.868427 0.190049
H11   H     H_    0.375653 0.212221 0.103195 0.137142
H12   H     H_    0.882367 0.393099 0.693253 0.184013
H13   H     H_    0.903020 0.558153 0.709903 0.178451
H14   H     H_    0.113053 0.697680 0.535241 0.153313
H15   H     H_    0.903801 0.700809 0.521697 0.138855
H16   H     H_    0.084055 0.437267 0.296117 0.203820
H17   H     H_    0.112260 0.308412 0.410990 0.136864
H18   H     H_    0.910501 0.297523 0.481021 0.141471
N1    N     N_R   0.499150 0.499140 0.142800 -0.104594
N2    N     N_R   0.499150 0.499180 0.857150 -0.135299
O1    O     O_R   0.500020 0.316790 0.614690 -0.607127
O2    O     O_R   0.500000 0.316760 0.385350 -0.637298
O3    O     O_R   0.314800 0.500000 0.614670 -0.606152
O4    O     O_R   0.314790 0.499960 0.385330 -0.612729
O5    O     O_R   0.500000 0.683240 0.614650 -0.543783
O6    O     O_R   0.499980 0.683210 0.385310 -0.636222
O7    O     O_R   0.685210 0.500040 0.614670 -0.616058
O8    O     O_R   0.685200 0.500000 0.385330 -0.643740
Zn1   Zn    Zn3+2 0.500010 0.500020 0.653130 0.986345
Zn2   Zn    Zn3+2 0.499990 0.499980 0.346870 0.929002
N3    N     N_3   0.865093 0.356122 0.287108 -0.475128
H19   H     H_    0.847747 0.436461 0.230768 0.206923
H20   H     H_    0.780190 0.307712 0.302984 0.201571
N4    N     N_3   0.896606 0.671790 0.315140 -0.478123
H21   H     H_    0.799778 0.678097 0.306027 0.200974
H22   H     H_    0.932370 0.616473 0.239765 0.191849
N5    N     N_3   0.301020 0.871015 0.684513 -0.448725
H23   H     H_    0.235686 0.886073 0.759741 0.182253
H24   H     H_    0.270197 0.917800 0.597383 0.187389
N6    N     N_3   0.108450 0.342885 0.696712 -0.466089
H25   H     H_    0.077657 0.331133 0.795913 0.173847
H26   H     H_    0.064552 0.271935 0.640883 0.182976
O9    O     O_3   0.600006 0.699628 0.856766 -0.599606
C27   C     C_3   0.727224 0.719740 0.891760 0.082726
H27   H     H_    0.779582 0.631189 0.889398 0.125427
H28   H     H_    0.737016 0.761286 0.993676 0.126618
C28   C     C_3   0.785767 0.811258 0.790764 -0.843894
H29   H     H_    0.743361 0.904264 0.800077 0.246141
H30   H     H_    0.888014 0.820837 0.810134 0.198636
H31   H     H_    0.769320 0.777160 0.686676 0.251626
N7    N     N_3   0.256035 0.362579 0.153286 -0.403744
H32   H     H_    0.263378 0.319895 0.248133 0.207190
H33   H     H_    0.171255 0.328202 0.112959 0.173019

loop_
_geom_bond_atom_site_label_1
_geom_bond_atom_site_label_2
_ccdc_geom_bond_type
N6    H26   S    
N5    H24   S    
C7    H3    S    
C28   H29   S    
C13   H6    S    
C25   H17   S    
C12   O3    A    
C7    C8    A    
N7    H32   S    
C24   C26   S    
C20   O5    A    
C11   N5    S    
C21   O8    A    
N3    H20   S    
C15   C16   A    
N4    H22   S    
C18   C19   S    
C19   N7    S    
C22   N6    S    
C19   H11   S    
N1    Zn2   S    
C8    C9    A    
N2    Zn1   S    
C27   H27   S    
C18   H9    S    
C15   H8    S    
C5    C13   S    
C3    N4    S    
N7    H33   S    
N6    H25   S    
C11   H5    S    
C28   H30   S    
C14   C17   A    
C3    C24   S    
C27   C28   S    
C4    C25   S    
C14   N1    A    
O7    Zn1   S    
O8    Zn2   S    
C1    C6    S    
C17   N2    A    
C16   N2    A    
C1    O1    A    
C4    H18   S    
C25   C26   S    
O3    Zn1   S    
O4    Zn2   S    
C12   C26   S    
N4    H21   S    
C4    N3    S    
C2    C4    S    
C13   H7    S    
C9    C20   S    
C2    C21   S    
C17   C18   S    
C22   H1    S    
C28   H31   S    
C15   N1    A    
O1    Zn1   S    
C9    C10   A    
O2    Zn2   S    
C3    H15   S    
C14   C19   S    
C16   O9    S    
C24   H2    S    
C25   H16   S    
C12   O4    A    
C1    O2    A    
C6    C7    A    
C23   H12   S    
C8    H4    S    
C2    C3    S    
C5    C10   A    
C20   O6    A    
C21   O7    A    
C11   C13   S    
N3    H19   S    
C5    C6    A    
C23   H13   S    
C24   H14   S    
O5    Zn1   S    
O9    C27   S    
C10   C11   S    
N5    H23   S    
C22   C26   S    
C2    C23   S    
C22   C23   S    
C27   H28   S    
C18   H10   S    
O6    Zn2   S    
