data_mof_unit_45317.cif
_audit_creation_date              2013-03-05T15:49:28-0500
_audit_creation_method            fapswitch 2.2
_symmetry_space_group_name_H-M    P1
_symmetry_Int_Tables_number       1
_space_group_crystal_system       triclinic
_cell_length_a                    18.365417
_cell_length_b                    18.448809
_cell_length_c                    34.319234
_cell_angle_alpha                 90.202715
_cell_angle_beta                  90.103414
_cell_angle_gamma                 89.958393
_cell_volume                      11627.9505502

loop_
_atom_site_label
_atom_site_type_symbol
_atom_site_description
_atom_site_fract_x
_atom_site_fract_y
_atom_site_fract_z
_atom_type_partial_charge
Zn1   Zn    Zn3+2 0.000000 0.586740 0.782740 1.125435
Zn2   Zn    Zn3+2 0.000000 0.413260 0.217260 1.168257
Zn3   Zn    Zn3+2 0.413260 1.000000 0.782740 1.128379
Zn4   Zn    Zn3+2 0.586740 0.000000 0.217260 1.172012
Zn5   Zn    Zn3+2 0.000000 0.413260 0.782740 1.104183
Zn6   Zn    Zn3+2 0.000000 0.586740 0.217260 1.166725
Zn7   Zn    Zn3+2 0.586740 1.000000 0.782740 1.136219
Zn8   Zn    Zn3+2 0.413260 0.000000 0.217260 1.168501
Zn9   Zn    Zn3+2 0.500000 0.086740 0.282740 1.181026
Zn10  Zn    Zn3+2 0.500000 0.913260 0.717260 1.118161
Zn11  Zn    Zn3+2 0.913260 0.500000 0.282740 1.179917
Zn12  Zn    Zn3+2 0.086740 0.500000 0.717260 1.111739
Zn13  Zn    Zn3+2 0.500000 0.913260 0.282740 1.176236
Zn14  Zn    Zn3+2 0.500000 0.086740 0.717260 1.124515
Zn15  Zn    Zn3+2 0.086740 0.500000 0.282740 1.176487
Zn16  Zn    Zn3+2 0.913260 0.500000 0.717260 1.140195
C1    C     C_R   0.512274 0.131464 0.520591 -0.106735
C2    C     C_R   0.487648 0.868386 0.479396 -0.104140
C3    C     C_R   0.913543 0.600360 0.520289 -0.115072
C4    C     C_R   0.086547 0.399917 0.479396 -0.111351
C5    C     C_R   0.488235 0.868295 0.520010 -0.113281
C6    C     C_R   0.511542 0.131559 0.479981 -0.106778
C7    C     C_R   0.085303 0.398904 0.520053 -0.110218
C8    C     C_R   0.912768 0.599721 0.479614 -0.113196
C9    C     C_R   0.973591 0.370452 0.020009 -0.103422
C10   C     C_R   0.024445 0.629847 0.980030 -0.098966
C11   C     C_R   0.367554 0.991761 0.020157 -0.111170
C12   C     C_R   0.632423 0.010030 0.979884 -0.099231
C13   C     C_R   0.024497 0.629764 0.020649 -0.104310
C14   C     C_R   0.973558 0.370532 0.979388 -0.081703
C15   C     C_R   0.632359 0.010357 0.020495 -0.107594
C16   C     C_R   0.367563 0.992248 0.979553 -0.106552
O1    O     O_3   0.000000 0.500000 0.750000 -0.559271
O2    O     O_3   0.000000 0.500000 0.250000 -0.560984
O3    O     O_3   0.500000 0.000000 0.750000 -0.554779
O4    O     O_3   0.500000 1.000000 0.250000 -0.558774
O5    O     O_R   0.060740 0.500000 0.662560 -0.590780
O6    O     O_R   0.939260 0.500000 0.337440 -0.581106
O7    O     O_R   0.500000 0.060740 0.662560 -0.628034
O8    O     O_R   0.500000 0.939260 0.337440 -0.610330
O9    O     O_R   0.939260 0.500000 0.662560 -0.584692
O10   O     O_R   0.060740 0.500000 0.337440 -0.585032
O11   O     O_R   0.500000 0.939260 0.662560 -0.618377
O12   O     O_R   0.500000 0.060740 0.337440 -0.604391
O13   O     O_R   0.560740 0.000000 0.162560 -0.609239
O14   O     O_R   0.439260 0.000000 0.837440 -0.619689
O15   O     O_R   0.000000 0.560740 0.162560 -0.598513
O16   O     O_R   0.000000 0.439260 0.837440 -0.586200
O17   O     O_R   0.439260 0.000000 0.162560 -0.613839
O18   O     O_R   0.560740 0.000000 0.837440 -0.617316
O19   O     O_R   0.000000 0.439260 0.162560 -0.599619
O20   O     O_R   0.000000 0.560740 0.837440 -0.610124
O21   O     O_R   0.853850 0.585450 0.727070 -0.598349
O22   O     O_R   0.146150 0.414550 0.272930 -0.581350
O23   O     O_R   0.414550 0.853850 0.727070 -0.599231
O24   O     O_R   0.585450 0.146150 0.272930 -0.584489
O25   O     O_R   0.146150 0.414550 0.727070 -0.586931
O26   O     O_R   0.853850 0.585450 0.272930 -0.581049
O27   O     O_R   0.585450 0.146150 0.727070 -0.585404
O28   O     O_R   0.414550 0.853850 0.272930 -0.589970
O29   O     O_R   0.853850 0.414550 0.272930 -0.610475
O30   O     O_R   0.146150 0.585450 0.727070 -0.616894
O31   O     O_R   0.414550 0.146150 0.272930 -0.576360
O32   O     O_R   0.585450 0.853850 0.727070 -0.630404
O33   O     O_R   0.146150 0.585450 0.272930 -0.615102
O34   O     O_R   0.853850 0.414550 0.727070 -0.597536
O35   O     O_R   0.585450 0.853850 0.272930 -0.573351
O36   O     O_R   0.414550 0.146150 0.727070 -0.631642
O37   O     O_R   0.353850 0.085450 0.227070 -0.585465
O38   O     O_R   0.646150 0.914550 0.772930 -0.625756
O39   O     O_R   0.914550 0.353850 0.227070 -0.614707
O40   O     O_R   0.085450 0.646150 0.772930 -0.623937
O41   O     O_R   0.646150 0.914550 0.227070 -0.582714
O42   O     O_R   0.353850 0.085450 0.772930 -0.622109
O43   O     O_R   0.085450 0.646150 0.227070 -0.615803
O44   O     O_R   0.914550 0.353850 0.772930 -0.619438
O45   O     O_R   0.353850 0.914550 0.772930 -0.600263
O46   O     O_R   0.646150 0.085450 0.227070 -0.590216
O47   O     O_R   0.914550 0.646150 0.772930 -0.602041
O48   O     O_R   0.085450 0.353850 0.227070 -0.585970
O49   O     O_R   0.646150 0.085450 0.772930 -0.587126
O50   O     O_R   0.353850 0.914550 0.227070 -0.588962
O51   O     O_R   0.085450 0.353850 0.772930 -0.636865
O52   O     O_R   0.914550 0.646150 0.227070 -0.586108
C17   C     C_R   0.495256 0.934070 0.581213 -0.134430
C18   C     C_R   0.504341 0.065799 0.418792 -0.119322
C19   C     C_R   0.041035 0.448473 0.581300 -0.142525
C20   C     C_R   0.955383 0.548804 0.418336 -0.129280
C21   C     C_R   0.506696 0.065471 0.581496 -0.148486
C22   C     C_R   0.493403 0.934398 0.418493 -0.146149
C23   C     C_R   0.957606 0.550599 0.581470 -0.143317
C24   C     C_R   0.044745 0.451470 0.418243 -0.124591
C25   C     C_R   0.011939 0.564686 0.081550 -0.113040
C26   C     C_R   0.986797 0.435488 0.918485 -0.082705
C27   C     C_R   0.565991 0.005322 0.081440 -0.143677
C28   C     C_R   0.433940 0.997044 0.918611 -0.132105
C29   C     C_R   0.987025 0.435161 0.081263 -0.116463
C30   C     C_R   0.012031 0.564932 0.918795 -0.141702
C31   C     C_R   0.433849 0.995879 0.081281 -0.148622
C32   C     C_R   0.566198 0.004493 0.918747 -0.124458
C33   C     C_R   0.500791 0.999771 0.601697 -0.055971
C34   C     C_R   0.499107 0.000127 0.398299 -0.070256
C35   C     C_R   0.999576 0.499695 0.601691 -0.048330
C36   C     C_R   0.000132 0.500188 0.398093 -0.060549
C37   C     C_R   0.999690 0.499861 0.101729 -0.047274
C38   C     C_R   0.999727 0.500200 0.898304 -0.057598
C39   C     C_R   0.499916 0.000396 0.101686 -0.068567
C40   C     C_R   0.500084 0.000396 0.898345 -0.059570
C41   C     C_R   0.506513 0.065987 0.540937 0.086001
C42   C     C_R   0.493456 0.933866 0.459055 0.088675
C43   C     C_R   0.956516 0.550479 0.540791 0.089423
C44   C     C_R   0.044008 0.450140 0.458894 0.088382
C45   C     C_R   0.494611 0.933686 0.540648 0.079226
C46   C     C_R   0.505141 0.066170 0.459352 0.085921
C47   C     C_R   0.042248 0.448733 0.540651 0.087002
C48   C     C_R   0.955627 0.549761 0.458997 0.088649
C49   C     C_R   0.986466 0.434850 0.040677 0.084939
C50   C     C_R   0.011824 0.565390 0.959372 0.083280
C51   C     C_R   0.433396 0.996185 0.040725 0.089662
C52   C     C_R   0.566603 0.005254 0.959310 0.080834
C53   C     C_R   0.011878 0.565240 0.040985 0.085424
C54   C     C_R   0.986340 0.435022 0.959053 0.070917
C55   C     C_R   0.566495 0.005616 0.040891 0.088082
C56   C     C_R   0.433441 0.996789 0.959156 0.078818
C57   C     C_R   0.999901 0.499899 0.644170 0.833622
C58   C     C_R   0.000057 0.500143 0.355761 0.988898
C59   C     C_R   0.500225 0.999898 0.644205 0.908189
C60   C     C_R   0.499740 0.000083 0.355793 0.913473
C61   C     C_R   0.499954 0.000073 0.144165 0.900326
C62   C     C_R   0.500034 0.999838 0.855845 0.918907
C63   C     C_R   0.999944 0.499909 0.144213 0.998068
C64   C     C_R   0.000307 0.500109 0.855796 0.930743
C65   C     C_R   0.859281 0.639542 0.750249 0.909963
C66   C     C_R   0.140271 0.359754 0.249993 0.874955
C67   C     C_R   0.359982 0.860331 0.749938 0.933985
C68   C     C_R   0.640614 0.140100 0.250050 0.873451
C69   C     C_R   0.140083 0.359919 0.749820 0.888263
C70   C     C_R   0.859701 0.640115 0.249948 0.873898
C71   C     C_R   0.639712 0.140362 0.750735 0.933569
C72   C     C_R   0.359655 0.859595 0.249876 0.872301
C73   C     C_R   0.860128 0.360328 0.249968 0.910846
C74   C     C_R   0.140529 0.640211 0.750096 0.837809
C75   C     C_R   0.360468 0.139949 0.249835 0.900270
C76   C     C_R   0.639749 0.859407 0.750531 0.881938
C77   C     C_R   0.139845 0.639657 0.250055 0.908586
C78   C     C_R   0.857912 0.361350 0.750041 0.829560
C79   C     C_R   0.639612 0.860223 0.249850 0.899552
C80   C     C_R   0.359782 0.139955 0.750057 0.882460
C81   C     C_R   0.275136 0.639377 0.696778 0.205645
C82   C     C_R   0.824599 0.275952 0.321029 0.172828
C83   C     C_R   0.379887 0.287374 0.713825 0.189892
C84   C     C_R   0.763049 0.869978 0.303187 0.171882
C85   C     C_R   0.751580 0.333583 0.682239 0.172419
C86   C     C_R   0.181983 0.721171 0.321653 0.176827
C87   C     C_R   0.614228 0.707013 0.719523 0.198268
C88   C     C_R   0.236582 0.130304 0.302953 0.174501
C89   C     C_R   0.157070 0.257739 0.315939 0.183557
C90   C     C_R   0.745572 0.659884 0.685845 0.230090
C91   C     C_R   0.328618 0.762535 0.319595 0.156316
C92   C     C_R   0.718378 0.185328 0.681006 0.177480
C93   C     C_R   0.843184 0.742900 0.316105 0.184388
C94   C     C_R   0.246789 0.332282 0.681957 0.253817
C95   C     C_R   0.680960 0.225454 0.321698 0.160801
C96   C     C_R   0.309942 0.783337 0.677592 0.203362
C97   C     C_R   0.734138 0.175209 0.179361 0.155614
C98   C     C_R   0.282799 0.813652 0.822350 0.201886
C99   C     C_R   0.758708 0.658890 0.183182 0.172410
C100  C     C_R   0.165833 0.256615 0.817155 0.208536
C101  C     C_R   0.262940 0.825711 0.179657 0.155704
C102  C     C_R   0.681293 0.213640 0.825462 0.194109
C103  C     C_R   0.241970 0.340829 0.183592 0.172113
C104  C     C_R   0.827303 0.735132 0.820859 0.220586
C105  C     C_R   0.785734 0.871992 0.792834 0.183092
C106  C     C_R   0.371415 0.265390 0.198299 0.176002
C107  C     C_R   0.780641 0.328083 0.823944 0.174265
C108  C     C_R   0.221277 0.679643 0.178392 0.178782
C109  C     C_R   0.208963 0.121546 0.786499 0.191744
C110  C     C_R   0.630044 0.736351 0.196606 0.180870
C111  C     C_R   0.139082 0.772237 0.804090 0.204358
C112  C     C_R   0.775725 0.321208 0.178978 0.178505
C113  C     C_R   0.305361 0.655483 0.659932 0.119771
C114  C     C_R   0.794040 0.250275 0.355978 0.158745
C115  C     C_R   0.379230 0.326894 0.678749 0.119367
C116  C     C_R   0.813281 0.866727 0.333999 0.149401
C117  C     C_R   0.739097 0.297928 0.646411 0.116062
C118  C     C_R   0.218387 0.739029 0.356632 0.156351
C119  C     C_R   0.612797 0.659095 0.687305 0.116017
C120  C     C_R   0.185182 0.133437 0.333169 0.150723
C121  C     C_R   0.148357 0.198129 0.340818 0.149329
C122  C     C_R   0.678299 0.641613 0.668152 0.135110
C123  C     C_R   0.293158 0.754471 0.355688 0.140760
C124  C     C_R   0.727997 0.222727 0.645679 0.156465
C125  C     C_R   0.850275 0.802212 0.341607 0.149438
C126  C     C_R   0.312128 0.342275 0.660670 0.148200
C127  C     C_R   0.721263 0.227432 0.356649 0.146239
C128  C     C_R   0.316202 0.728244 0.649074 0.152967
C129  C     C_R   0.740520 0.212353 0.143734 0.142574
C130  C     C_R   0.227800 0.818611 0.850992 0.163722
C131  C     C_R   0.698632 0.649569 0.158287 0.143406
C132  C     C_R   0.147910 0.192022 0.837079 0.126959
C133  C     C_R   0.254407 0.789307 0.143764 0.141535
C134  C     C_R   0.714269 0.237409 0.860397 0.172301
C135  C     C_R   0.302450 0.350315 0.159122 0.144633
C136  C     C_R   0.839480 0.797825 0.843978 0.158359
C137  C     C_R   0.825503 0.866697 0.827948 0.123092
C138  C     C_R   0.367997 0.315162 0.167476 0.145380
C139  C     C_R   0.762578 0.295906 0.859688 0.149864
C140  C     C_R   0.238794 0.714871 0.143225 0.154927
C141  C     C_R   0.163376 0.124472 0.819658 0.110075
C142  C     C_R   0.633504 0.685912 0.165932 0.147186
C143  C     C_R   0.155279 0.801883 0.841150 0.126627
C144  C     C_R   0.756258 0.286748 0.143714 0.152628
C145  C     C_R   0.500252 0.999880 0.520406 0.071181
C146  C     C_R   0.499625 0.999970 0.479592 0.070702
C147  C     C_R   0.999492 0.499699 0.520279 0.074077
C148  C     C_R   0.999701 0.499862 0.479381 0.075761
C149  C     C_R   0.999073 0.500098 0.020436 0.075118
C150  C     C_R   0.999020 0.500181 0.979608 0.070857
C151  C     C_R   0.499963 0.000981 0.020423 0.074856
C152  C     C_R   0.500002 0.001034 0.979617 0.068096
C153  C     C_R   0.289020 0.763802 0.715939 -0.083872
C154  C     C_R   0.718814 0.231504 0.285708 -0.068824
C155  C     C_R   0.250132 0.300040 0.719572 -0.089473
C156  C     C_R   0.799804 0.748187 0.281490 -0.083562
C157  C     C_R   0.723912 0.223614 0.717096 -0.098486
C158  C     C_R   0.286096 0.763713 0.284782 -0.070546
C159  C     C_R   0.744842 0.695600 0.722569 -0.085220
C160  C     C_R   0.200311 0.252026 0.281445 -0.082642
C161  C     C_R   0.247285 0.191471 0.277757 -0.098620
C162  C     C_R   0.682491 0.734972 0.731983 -0.100922
C163  C     C_R   0.219559 0.726739 0.285528 -0.096301
C164  C     C_R   0.756576 0.292047 0.717128 -0.090233
C165  C     C_R   0.752721 0.808694 0.277787 -0.097276
C166  C     C_R   0.312874 0.261085 0.728518 -0.101498
C167  C     C_R   0.784035 0.271045 0.285687 -0.093927
C168  C     C_R   0.253535 0.697778 0.721328 -0.088992
C169  C     C_R   0.771339 0.282272 0.214682 -0.094977
C170  C     C_R   0.197861 0.752872 0.779261 -0.092678
C171  C     C_R   0.691453 0.747319 0.221995 -0.096650
C172  C     C_R   0.237476 0.187522 0.771618 -0.092792
C173  C     C_R   0.227188 0.718021 0.214333 -0.094096
C174  C     C_R   0.763917 0.291267 0.788431 -0.077810
C175  C     C_R   0.309244 0.253391 0.222769 -0.097416
C176  C     C_R   0.758489 0.807557 0.775577 -0.090227
C177  C     C_R   0.796380 0.743657 0.783114 -0.090650
C178  C     C_R   0.247803 0.298939 0.218498 -0.089944
C179  C     C_R   0.712699 0.233346 0.788852 -0.076469
C180  C     C_R   0.264038 0.784542 0.214762 -0.069414
C181  C     C_R   0.199463 0.251108 0.779993 -0.094690
C182  C     C_R   0.752619 0.701145 0.218130 -0.089809
C183  C     C_R   0.263133 0.790612 0.784229 -0.080589
C184  C     C_R   0.734724 0.215645 0.214862 -0.070453
H1    H     H_    0.491071 0.883192 0.596764 0.207563
H2    H     H_    0.508232 0.116659 0.403242 0.216788
H3    H     H_    0.071035 0.407525 0.596982 0.215249
H4    H     H_    0.921614 0.586715 0.402408 0.215532
H5    H     H_    0.511463 0.116284 0.597279 0.200674
H6    H     H_    0.488856 0.883582 0.402715 0.211313
H7    H     H_    0.927074 0.591105 0.597357 0.211356
H8    H     H_    0.078744 0.413726 0.402251 0.215073
H9    H     H_    0.022002 0.614686 0.097369 0.196523
H10   H     H_    0.976745 0.385485 0.902671 0.213267
H11   H     H_    0.617098 0.008961 0.097167 0.212649
H12   H     H_    0.382782 0.994357 0.902883 0.218977
H13   H     H_    0.977180 0.385119 0.096872 0.195298
H14   H     H_    0.022302 0.614878 0.903207 0.219404
H15   H     H_    0.382740 0.992001 0.096891 0.210927
H16   H     H_    0.617372 0.007310 0.903117 0.212101
C185  C     C_R   0.303769 0.804771 0.750010 0.025777
C186  C     C_R   0.698266 0.195917 0.250204 -0.004353
C187  C     C_R   0.196639 0.303842 0.749700 0.003210
C188  C     C_R   0.803293 0.697022 0.249933 -0.030198
C189  C     C_R   0.694818 0.197928 0.752680 0.004305
C190  C     C_R   0.303045 0.802658 0.249775 -0.006989
C191  C     C_R   0.800411 0.693159 0.751716 0.000488
C192  C     C_R   0.196753 0.302939 0.249991 -0.029565
C193  C     C_R   0.304783 0.195621 0.250068 -0.026212
C194  C     C_R   0.693911 0.800968 0.752629 -0.012620
C195  C     C_R   0.195950 0.695103 0.249995 -0.009808
C196  C     C_R   0.791506 0.315386 0.752141 0.003469
C197  C     C_R   0.695466 0.804659 0.249816 -0.025698
C198  C     C_R   0.303242 0.196094 0.750135 -0.011394
C199  C     C_R   0.804408 0.304490 0.250148 -0.011017
C200  C     C_R   0.197449 0.696751 0.750281 -0.011237
H17   H     H_    0.517235 0.182521 0.536083 0.204312
H18   H     H_    0.482703 0.817334 0.463897 0.205499
H19   H     H_    0.880285 0.639572 0.535716 0.197300
H20   H     H_    0.120505 0.361281 0.463984 0.197183
H21   H     H_    0.483687 0.817177 0.535276 0.208054
H22   H     H_    0.516040 0.182674 0.464709 0.199181
H23   H     H_    0.118380 0.359540 0.535396 0.202405
H24   H     H_    0.878934 0.638455 0.464277 0.197090
H25   H     H_    0.963696 0.320080 0.035256 0.194747
H26   H     H_    0.034344 0.680218 0.964777 0.212225
H27   H     H_    0.316142 0.987993 0.035470 0.202730
H28   H     H_    0.683856 0.013479 0.964572 0.208443
H29   H     H_    0.034460 0.680072 0.036155 0.197237
H30   H     H_    0.963736 0.320200 0.963883 0.209663
H31   H     H_    0.683741 0.014116 0.035950 0.202823
H32   H     H_    0.316147 0.988921 0.964117 0.213713
N1    N     N_R   0.279895 0.566718 0.711819 0.262952
O53   O     O_R   0.294882 0.556186 0.748451 -0.316320
O54   O     O_R   0.267330 0.510926 0.689521 -0.304395
N2    N     N_R   0.899780 0.296197 0.320869 0.222801
O55   O     O_R   0.945868 0.260880 0.299171 -0.340782
O56   O     O_R   0.923193 0.345850 0.344716 -0.318603
N3    N     N_R   0.444690 0.283629 0.737425 0.258529
O57   O     O_R   0.439065 0.285340 0.775202 -0.291118
O58   O     O_R   0.509177 0.282278 0.721812 -0.286380
N4    N     N_R   0.729678 0.938751 0.295604 0.198561
O59   O     O_R   0.763342 0.985510 0.273863 -0.299924
O60   O     O_R   0.673491 0.959521 0.315835 -0.403170
N5    N     N_R   0.743381 0.411051 0.683900 0.268451
O61   O     O_R   0.705326 0.440858 0.711629 -0.275970
O62   O     O_R   0.774757 0.452224 0.658238 -0.267286
N6    N     N_R   0.106096 0.703395 0.322906 0.231447
O63   O     O_R   0.059936 0.739179 0.301521 -0.330223
O64   O     O_R   0.082269 0.656427 0.348008 -0.323937
N7    N     N_R   0.549525 0.719270 0.742375 0.255842
O65   O     O_R   0.554470 0.727856 0.779946 -0.318067
O66   O     O_R   0.485450 0.720512 0.726176 -0.314901
N8    N     N_R   0.271292 0.061936 0.295926 0.199352
O67   O     O_R   0.238080 0.013374 0.274908 -0.298656
O68   O     O_R   0.327714 0.043076 0.316538 -0.410429
N9    N     N_R   0.134676 0.326650 0.330596 0.208940
O69   O     O_R   0.181510 0.367641 0.348682 -0.350030
O70   O     O_R   0.066386 0.344722 0.330167 -0.351259
N10   N     N_R   0.812332 0.651585 0.664482 0.233072
O71   O     O_R   0.863300 0.700322 0.667279 -0.377663
O72   O     O_R   0.822822 0.595250 0.642376 -0.308520
N11   N     N_R   0.405567 0.748536 0.317931 0.264853
O73   O     O_R   0.431105 0.703513 0.292083 -0.269425
O74   O     O_R   0.450194 0.778900 0.342548 -0.317162
N12   N     N_R   0.708998 0.108099 0.680192 0.213088
O75   O     O_R   0.750989 0.067261 0.701304 -0.293962
O76   O     O_R   0.661571 0.078124 0.657005 -0.363964
N13   N     N_R   0.868397 0.674536 0.330009 0.208895
O77   O     O_R   0.824211 0.632952 0.349317 -0.353625
O78   O     O_R   0.937049 0.658025 0.328034 -0.352559
N14   N     N_R   0.178449 0.347299 0.663451 0.236433
O79   O     O_R   0.123929 0.302783 0.666942 -0.400079
O80   O     O_R   0.170582 0.406154 0.643183 -0.318767
N15   N     N_R   0.604611 0.243330 0.323321 0.256468
O81   O     O_R   0.577703 0.290009 0.298846 -0.275458
O82   O     O_R   0.562622 0.217565 0.350418 -0.322057
N16   N     N_R   0.316827 0.858429 0.666910 0.227722
O83   O     O_R   0.272567 0.906493 0.681470 -0.324956
O84   O     O_R   0.365044 0.878892 0.641550 -0.353642
N17   N     N_R   0.747798 0.098464 0.179576 0.262824
O85   O     O_R   0.793606 0.071297 0.204546 -0.274145
O86   O     O_R   0.716088 0.055576 0.154608 -0.322430
N18   N     N_R   0.358547 0.818494 0.833271 0.220099
O87   O     O_R   0.405678 0.774106 0.817942 -0.320283
O88   O     O_R   0.380124 0.862240 0.860711 -0.346480
N19   N     N_R   0.827459 0.633523 0.169421 0.222799
O89   O     O_R   0.871796 0.679028 0.152938 -0.317977
O90   O     O_R   0.839038 0.564414 0.165691 -0.327782
N20   N     N_R   0.159392 0.325879 0.836418 0.245720
O91   O     O_R   0.207683 0.376170 0.830329 -0.348377
O92   O     O_R   0.106330 0.338947 0.860487 -0.336455
N21   N     N_R   0.249922 0.902520 0.180737 0.262929
O93   O     O_R   0.204895 0.929436 0.206195 -0.273203
O94   O     O_R   0.281164 0.945672 0.155947 -0.319760
N22   N     N_R   0.608849 0.184347 0.827578 0.204422
O95   O     O_R   0.556977 0.215008 0.807765 -0.333789
O96   O     O_R   0.591123 0.139276 0.854940 -0.356720
N23   N     N_R   0.173231 0.365776 0.169525 0.222681
O97   O     O_R   0.128917 0.319788 0.153155 -0.318429
O98   O     O_R   0.161534 0.434780 0.165543 -0.326770
N24   N     N_R   0.836838 0.664072 0.837328 0.245087
O99   O     O_R   0.791041 0.612453 0.829035 -0.305940
O100  O     O_R   0.889692 0.651024 0.861571 -0.300728
N25   N     N_R   0.784565 0.938877 0.771456 0.259176
O101  O     O_R   0.789865 0.937404 0.733667 -0.291040
O102  O     O_R   0.779257 0.001083 0.789217 -0.283058
N26   N     N_R   0.439863 0.230451 0.205258 0.194650
O103  O     O_R   0.483420 0.256663 0.231681 -0.289509
O104  O     O_R   0.464767 0.183568 0.180180 -0.412293
N27   N     N_R   0.805081 0.402165 0.823780 0.224040
O105  O     O_R   0.854180 0.424303 0.848361 -0.355609
O106  O     O_R   0.770470 0.449914 0.802930 -0.304577
N28   N     N_R   0.202878 0.604197 0.177446 0.227524
O107  O     O_R   0.239030 0.558309 0.198744 -0.338369
O108  O     O_R   0.154830 0.580441 0.152641 -0.342414
N29   N     N_R   0.217349 0.054650 0.765156 0.254969
O109  O     O_R   0.220738 0.055372 0.727280 -0.325156
O110  O     O_R   0.222219 0.992934 0.783212 -0.309003
N30   N     N_R   0.562514 0.773923 0.201984 0.191572
O111  O     O_R   0.515696 0.749231 0.226997 -0.295760
O112  O     O_R   0.541457 0.821413 0.176374 -0.408512
N31   N     N_R   0.066606 0.779710 0.788151 0.263405
O113  O     O_R   0.057939 0.792725 0.751169 -0.325933
O114  O     O_R   0.009163 0.775986 0.810160 -0.305304
N32   N     N_R   0.795372 0.396304 0.178321 0.225349
O115  O     O_R   0.760087 0.442823 0.199744 -0.338600
O116  O     O_R   0.843677 0.419148 0.153589 -0.342267
N33   N     N_R   0.098848 0.813734 0.869217 0.286906
O117  O     O_R   0.064534 0.758501 0.883820 -0.321161
O118  O     O_R   0.089821 0.877616 0.884643 -0.190679
N34   N     N_R   0.756414 0.326388 0.107742 0.274161
O119  O     O_R   0.720390 0.386893 0.104863 -0.197849
O120  O     O_R   0.792763 0.302508 0.077819 -0.286029
N35   N     N_R   0.134581 0.059398 0.836331 0.279152
O121  O     O_R   0.150984 0.041703 0.871943 -0.242358
O122  O     O_R   0.087422 0.020779 0.817013 -0.230388
N36   N     N_R   0.571743 0.675574 0.140711 0.277613
O123  O     O_R   0.508335 0.659593 0.155171 -0.232418
O124  O     O_R   0.578503 0.682953 0.103197 -0.253655
N37   N     N_R   0.786867 0.327117 0.895749 0.265964
O125  O     O_R   0.759306 0.388165 0.907824 -0.226418
O126  O     O_R   0.827281 0.289209 0.919258 -0.314777
N38   N     N_R   0.237028 0.675963 0.106894 0.272257
O127  O     O_R   0.273945 0.616196 0.102828 -0.205422
O128  O     O_R   0.198556 0.699937 0.077783 -0.300493
N39   N     N_R   0.849247 0.930662 0.847958 0.281113
O129  O     O_R   0.818387 0.950026 0.880460 -0.288678
O130  O     O_R   0.904736 0.967050 0.834983 -0.205496
N40   N     N_R   0.430407 0.326330 0.142989 0.277672
O131  O     O_R   0.493002 0.343661 0.158188 -0.233127
O132  O     O_R   0.425053 0.318445 0.105399 -0.252848
N41   N     N_R   0.297405 0.397132 0.125865 0.286037
O133  O     O_R   0.249311 0.384811 0.098760 -0.252704
O134  O     O_R   0.342275 0.451193 0.122106 -0.207422
N42   N     N_R   0.865854 0.791928 0.883244 0.270720
O135  O     O_R   0.828852 0.755376 0.908803 -0.278206
O136  O     O_R   0.922070 0.829281 0.894653 -0.212246
N43   N     N_R   0.260576 0.828065 0.107842 0.264621
O137  O     O_R   0.207365 0.869119 0.096042 -0.278051
O138  O     O_R   0.315795 0.816297 0.084989 -0.293448
N44   N     N_R   0.691477 0.208770 0.897201 0.281059
O139  O     O_R   0.659930 0.250412 0.922779 -0.237413
O140  O     O_R   0.706889 0.142054 0.906209 -0.308582
N45   N     N_R   0.703777 0.602047 0.125150 0.286592
O141  O     O_R   0.752440 0.613357 0.098347 -0.247575
O142  O     O_R   0.658010 0.548761 0.121012 -0.204923
N46   N     N_R   0.112252 0.194592 0.874160 0.272258
O143  O     O_R   0.146937 0.218776 0.904622 -0.276198
O144  O     O_R   0.047353 0.167441 0.878190 -0.261134
N47   N     N_R   0.732239 0.174355 0.107543 0.263844
O145  O     O_R   0.785060 0.134254 0.094324 -0.281281
O146  O     O_R   0.675344 0.186080 0.085828 -0.288811
N48   N     N_R   0.244719 0.840935 0.889969 0.277272
O147  O     O_R   0.234299 0.796363 0.918704 -0.281725
O148  O     O_R   0.256362 0.909137 0.897402 -0.303401
N49   N     N_R   0.687999 0.208074 0.392937 0.270590
O149  O     O_R   0.659081 0.144208 0.397015 -0.317012
O150  O     O_R   0.693127 0.250822 0.423049 -0.263785
N50   N     N_R   0.335769 0.745519 0.609739 0.264833
O151  O     O_R   0.294071 0.787490 0.589020 -0.266688
O152  O     O_R   0.393217 0.716641 0.593882 -0.270937
N51   N     N_R   0.892215 0.795456 0.376813 0.261755
O153  O     O_R   0.959932 0.775013 0.375438 -0.207483
O154  O     O_R   0.864041 0.813904 0.410171 -0.289366
N52   N     N_R   0.310169 0.366554 0.620902 0.272861
O155  O     O_R   0.269063 0.333355 0.595603 -0.314104
O156  O     O_R   0.353873 0.417224 0.608963 -0.199390
N53   N     N_R   0.333157 0.761100 0.391374 0.262576
O157  O     O_R   0.322602 0.816805 0.414014 -0.302815
O158  O     O_R   0.374064 0.707948 0.403233 -0.269948
N54   N     N_R   0.722791 0.185033 0.609108 0.272657
O159  O     O_R   0.765002 0.129944 0.601903 -0.247955
O160  O     O_R   0.676064 0.205714 0.582851 -0.289705
N55   N     N_R   0.105518 0.204939 0.375645 0.263036
O161  O     O_R   0.037488 0.224193 0.373621 -0.218041
O162  O     O_R   0.133005 0.186949 0.409222 -0.289816
N56   N     N_R   0.676162 0.604570 0.631362 0.286383
O163  O     O_R   0.700804 0.636240 0.600252 -0.289206
O164  O     O_R   0.643316 0.542372 0.628154 -0.187080
N57   N     N_R   0.545331 0.630250 0.673187 0.276704
O165  O     O_R   0.509584 0.583409 0.693951 -0.211240
O166  O     O_R   0.522291 0.646603 0.638448 -0.254823
N58   N     N_R   0.170224 0.070457 0.356397 0.276780
O167  O     O_R   0.103268 0.050704 0.362671 -0.224871
O168  O     O_R   0.222828 0.035688 0.373574 -0.257884
N59   N     N_R   0.737193 0.338052 0.610754 0.275381
O169  O     O_R   0.683060 0.381540 0.603565 -0.200434
O170  O     O_R   0.785653 0.325927 0.583905 -0.276505
N60   N     N_R   0.180323 0.738080 0.393149 0.273809
O171  O     O_R   0.121208 0.776080 0.397607 -0.212224
O172  O     O_R   0.205162 0.700394 0.422267 -0.261134
N61   N     N_R   0.445951 0.347967 0.660593 0.283548
O173  O     O_R   0.479931 0.405909 0.672353 -0.187304
O174  O     O_R   0.471269 0.310906 0.631281 -0.298392
N62   N     N_R   0.827390 0.929678 0.357661 0.276431
O175  O     O_R   0.894085 0.950011 0.364389 -0.223311
O176  O     O_R   0.774271 0.963698 0.374845 -0.246301
N63   N     N_R   0.324419 0.598479 0.633462 0.285816
O177  O     O_R   0.381009 0.558174 0.640493 -0.177654
O178  O     O_R   0.289726 0.591337 0.600594 -0.256103
N64   N     N_R   0.837009 0.246782 0.390824 0.287238
O179  O     O_R   0.850340 0.184221 0.406686 -0.217487
O180  O     O_R   0.851239 0.305745 0.410283 -0.259362

loop_
_geom_bond_atom_site_label_1
_geom_bond_atom_site_label_2
_geom_bond_distance
_ccdc_geom_bond_type
C112  N32   1.432173 S    
N43   O137  1.300903 A    
Zn4   O4    1.951068 S    
C2    C5    1.393877 A    
N53   O157  1.300776 A    
C173  C195  1.418577 A    
N8    O68   1.301432 A    
O5    C57   1.282272 A    
C107  C139  1.405053 A    
C48   C148  1.411900 A    
C183  C185  1.417733 A    
C56   C152  1.410758 A    
N13   O77   1.300997 A    
Zn6   O43   1.943042 S    
C37   C63   1.458011 S    
Zn13  O28   1.943044 S    
C70   C188  1.474416 S    
N1    O53   1.301695 A    
C38   C64   1.458892 S    
Zn14  O27   1.943042 S    
C171  C197  1.424368 A    
Zn8   O37   1.945273 S    
N35   O122  1.301067 A    
C25   C53   1.392228 A    
C140  N38   1.436839 S    
N33   O118  1.300905 A    
C92   N12   1.435435 S    
C116  C125  1.395285 A    
O8    C60   1.284876 A    
C93   C156  1.432747 A    
C75   C193  1.448898 S    
C176  C177  1.393275 A    
C4    H20   1.083821 S    
C143  N33   1.432303 S    
Zn3   O42   1.946522 S    
C159  C191  1.428534 A    
C43   C147  1.411539 A    
O50   C72   1.287254 A    
C74   C200  1.477289 S    
C102  N22   1.438442 S    
C14   C54   1.401635 A    
C85   C164  1.426641 A    
C49   C149  1.411397 A    
C174  C196  1.418598 A    
C19   C47   1.395272 A    
C39   C61   1.457882 S    
C29   C37   1.402181 A    
Zn2   O2    1.952072 S    
C27   H11   1.083877 S    
C28   C40   1.402388 A    
O44   C78   1.309895 A    
C172  C181  1.394006 A    
C36   C58   1.452770 S    
C126  N52   1.438290 S    
C110  N30   1.432254 S    
C121  N55   1.437195 S    
C110  C171  1.437929 A    
N4    O60   1.301474 A    
C81   C168  1.422050 A    
C84   N4    1.433107 S    
N55   O161  1.300482 A    
C157  C164  1.398158 A    
Zn15  O22   1.945274 S    
O9    C57   1.281089 A    
O21   C65   1.277835 A    
N14   O79   1.301437 A    
O11   C59   1.285812 A    
O19   C63   1.285839 A    
N57   O165  1.300950 A    
C83   C166  1.417416 A    
C95   N15   1.441331 S    
C167  C199  1.419740 A    
C15   H31   1.083807 S    
O15   C63   1.284891 A    
N6    O63   1.301357 A    
O40   C74   1.285084 A    
C147  C148  1.403607 A    
C98   C130  1.413384 A    
Zn4   O46   1.945875 S    
C100  C181  1.421319 A    
C156  C188  1.435618 A    
Zn12  O30   1.945875 S    
C9    H25   1.083727 S    
N19   O89   1.301470 A    
N18   O87   1.301596 A    
C131  N45   1.436693 S    
C47   C147  1.411065 A    
N63   O178  1.300836 A    
C97   N17   1.437777 S    
C19   C35   1.399519 A    
C26   C54   1.392367 A    
N10   O72   1.299049 A    
C26   H10   1.084414 S    
N54   O160  1.301228 A    
O24   C68   1.287439 A    
C81   N1    1.440666 S    
C153  C168  1.394908 A    
O35   C79   1.278401 A    
Zn1   O47   1.943102 S    
N36   O124  1.301263 A    
N64   O179  1.300767 A    
Zn2   O39   1.945368 S    
Zn3   O45   1.945877 S    
Zn14  O3    1.958577 S    
N46   O143  1.300954 A    
C117  C124  1.402548 A    
C21   C33   1.402833 A    
C157  C189  1.417114 A    
C99   C131  1.404500 A    
C1    C6    1.393766 A    
Zn15  O10   1.937874 S    
C23   C35   1.399757 A    
C1    C41   1.401569 A    
C2    H18   1.083818 S    
C3    C43   1.402264 A    
Zn3   O14   1.936204 S    
C107  N27   1.438887 S    
C132  C141  1.409270 A    
C30   C38   1.402026 A    
C163  C195  1.417444 A    
N50   O151  1.301024 A    
C164  C196  1.426439 A    
Zn5   O44   1.943044 S    
C118  N60   1.436270 S    
C106  N26   1.432326 S    
C87   C119  1.413414 A    
C108  C140  1.410586 A    
C104  C177  1.422641 A    
C160  C192  1.434796 A    
C161  C193  1.424149 A    
C133  C140  1.403125 A    
C29   C49   1.392888 A    
N49   O149  1.300879 A    
N44   O140  1.300952 A    
C102  C134  1.410876 A    
N32   O115  1.301342 A    
C128  N50   1.434589 S    
C31   C51   1.391892 A    
C94   C155  1.424461 A    
N56   O163  1.301031 A    
C96   N16   1.439986 S    
C106  C138  1.404509 A    
N37   O125  1.301165 A    
C111  N31   1.444852 S    
N29   O110  1.301152 A    
O22   C66   1.283533 A    
C90   N10   1.437481 S    
N7    O66   1.300801 A    
N41   O133  1.301153 A    
C86   C163  1.424047 A    
C46   C146  1.410958 A    
C175  C193  1.424002 A    
N24   O99   1.301430 A    
C69   C187  1.465461 S    
C92   C157  1.427187 A    
C86   C118  1.411103 A    
C162  C194  1.422037 A    
N38   O127  1.301188 A    
C42   C146  1.410928 A    
O6    C58   1.280442 A    
C111  C170  1.421156 A    
C7    H23   1.083798 S    
C90   C122  1.416055 A    
N5    O62   1.300727 A    
C67   C185  1.455345 S    
C115  C126  1.407907 A    
N22   O95   1.299797 A    
C110  C142  1.404066 A    
N9    O70   1.297574 A    
C113  C128  1.408762 A    
C22   C34   1.402916 A    
C91   N11   1.437632 S    
C89   C160  1.430249 A    
N30   O111  1.299905 A    
Zn13  O8    1.935930 S    
Zn5   O1    1.958577 S    
Zn9   O4    1.952069 S    
N39   O130  1.300856 A    
Zn10  O3    1.952072 S    
C179  C189  1.438390 A    
Zn11  O26   1.946522 S    
C40   C62   1.458583 S    
O36   C80   1.284842 A    
O39   C73   1.277818 A    
C13   H29   1.083742 S    
O26   C70   1.287152 A    
N2    O56   1.299163 A    
C28   H12   1.083788 S    
C172  C198  1.425400 A    
C77   C195  1.452458 S    
C93   N13   1.426684 S    
C113  N63   1.430953 S    
C78   C196  1.487914 S    
N62   O175  1.301308 A    
C20   C36   1.399678 A    
N26   O104  1.301380 A    
C138  N40   1.437877 S    
N40   O132  1.301248 A    
Zn4   O13   1.936204 S    
Zn5   O16   1.935930 S    
C32   C40   1.402486 A    
Zn1   O40   1.945366 S    
O34   C78   1.263122 A    
Zn6   O15   1.935930 S    
C93   C125  1.404744 A    
N58   O167  1.301315 A    
C5    C45   1.401630 A    
C12   C52   1.401485 A    
C24   C36   1.399524 A    
N12   O75   1.299352 A    
C14   H30   1.083671 S    
C32   H16   1.084352 S    
C166  C198  1.423493 A    
C149  C150  1.401215 A    
C13   C53   1.401684 A    
C127  N49   1.434528 S    
N16   O84   1.299924 A    
C4    C7    1.395706 A    
Zn3   O3    1.951067 S    
C175  C178  1.414140 A    
N61   O173  1.300777 A    
O25   C69   1.282129 A    
Zn9   O24   1.945366 S    
N20   O92   1.300481 A    
Zn10  O23   1.945368 S    
Zn4   O41   1.946523 S    
C94   N14   1.432909 S    
O28   C72   1.284986 A    
Zn12  O25   1.946523 S    
O29   C73   1.276522 A    
N42   O135  1.301124 A    
Zn7   O49   1.948485 S    
C8    C48   1.402158 A    
C134  C139  1.397878 A    
N15   O82   1.300630 A    
C12   H28   1.083754 S    
C105  N25   1.437951 S    
C18   C34   1.402022 A    
C27   C55   1.391691 A    
N31   O114  1.300603 A    
C55   C151  1.410795 A    
N19   O90   1.298366 A    
Zn9   O31   1.943102 S    
C53   C149  1.410938 A    
Zn10  O32   1.943101 S    
C10   C50   1.401530 A    
Zn7   O18   1.937874 S    
N34   O119  1.301135 A    
C125  N51   1.437436 S    
O14   C62   1.281483 A    
N52   O156  1.300378 A    
C96   C128  1.413274 A    
C83   C115  1.409589 A    
C18   H2    1.083553 S    
C99   N19   1.426907 S    
C17   C45   1.392182 A    
Zn12  O1    1.951068 S    
N33   O117  1.300889 A    
C87   N7    1.442222 S    
C30   H14   1.083942 S    
C19   H3    1.079401 S    
C33   C59   1.458922 S    
C44   C148  1.412224 A    
C101  C180  1.426604 A    
N60   O171  1.300891 A    
C35   C57   1.457843 S    
C23   H7    1.080606 S    
N51   O153  1.300218 A    
C6    C46   1.401495 A    
C136  C137  1.409581 A    
N63   O177  1.300199 A    
O31   C75   1.274565 A    
C10   H26   1.083821 S    
C114  C127  1.402001 A    
C141  N35   1.433611 S    
N48   O147  1.300748 A    
N48   O148  1.300732 A    
Zn16  O9    1.937874 S    
C11   H27   1.083814 S    
C107  C174  1.426250 A    
C105  C137  1.411649 A    
O13   C61   1.281500 A    
N28   O107  1.301373 A    
C65   C191  1.465675 S    
C133  N43   1.432052 S    
C97   C184  1.426379 A    
C165  C197  1.424286 A    
C168  C200  1.432679 A    
Zn7   O38   1.945274 S    
C16   H32   1.083581 S    
C17   C33   1.402722 A    
N27   O105  1.298825 A    
C82   C114  1.408829 A    
C145  C146  1.400728 A    
N21   O94   1.301550 A    
N17   O85   1.301209 A    
C99   C182  1.432643 A    
C101  N21   1.437240 S    
O41   C79   1.279158 A    
Zn8   O50   1.948487 S    
O42   C80   1.282673 A    
N14   O80   1.299408 A    
N25   O102  1.301230 A    
C170  C200  1.433139 A    
Zn13  O35   1.942738 S    
C108  N28   1.432793 S    
C82   C167  1.424930 A    
Zn15  O33   1.948485 S    
O48   C66   1.281069 A    
N6    O64   1.300634 A    
Zn8   O4    1.947755 S    
C91   C158  1.426373 A    
C98   N18   1.442851 S    
Zn12  O5    1.936204 S    
C104  C136  1.417931 A    
C16   C56   1.401583 A    
C160  C161  1.416445 A    
C119  C122  1.408555 A    
C117  N59   1.432779 S    
Zn14  O7    1.935930 S    
C4    C44   1.401968 A    
C86   N6    1.432759 S    
C96   C153  1.419468 A    
O12   C60   1.286089 A    
N35   O121  1.300918 A    
N45   O142  1.301096 A    
N18   O88   1.299602 A    
C50   C150  1.411317 A    
C82   N2    1.430631 S    
C169  C184  1.401583 A    
C45   C145  1.411065 A    
C139  N37   1.433677 S    
Zn15  O2    1.947751 S    
N57   O166  1.300743 A    
N8    O67   1.299873 A    
C122  N56   1.434045 S    
C135  N41   1.436572 S    
C171  C182  1.415447 A    
C81   C113  1.414525 A    
N53   O158  1.300873 A    
N47   O146  1.300765 A    
C142  N36   1.437945 S    
N64   O180  1.300849 A    
C137  N39   1.431172 S    
N13   O78   1.298713 A    
N46   O144  1.300990 A    
C88   C120  1.404575 A    
C135  C138  1.396748 A    
C154  C167  1.402922 A    
Zn6   O52   1.942740 S    
C132  N46   1.432874 S    
N3    O57   1.301043 A    
C91   C123  1.408857 A    
C92   C124  1.408545 A    
C109  N29   1.441227 S    
C151  C152  1.400443 A    
C114  N64   1.433226 S    
N10   O71   1.301599 A    
C84   C165  1.437687 A    
C123  N53   1.431916 S    
Zn11  O29   1.945877 S    
Zn6   O2    1.958577 S    
O20   C64   1.285721 A    
Zn11  O6    1.936204 S    
N47   O145  1.300905 A    
C119  N57   1.431850 S    
C180  C190  1.436358 A    
C155  C166  1.391971 A    
C97   C129  1.408864 A    
N43   O138  1.300783 A    
O30   C74   1.284627 A    
C95   C127  1.408712 A    
C52   C152  1.411188 A    
C115  N61   1.430393 S    
C176  C194  1.427520 A    
N23   O98   1.298533 A    
C8    H24   1.083816 S    
N1    O54   1.300923 A    
N32   O116  1.300333 A    
C136  N42   1.435651 S    
N56   O164  1.300990 A    
C102  C179  1.431666 A    
Zn16  O34   1.948487 S    
C23   C43   1.396160 A    
O51   C69   1.285289 A    
N29   O109  1.301589 A    
C95   C154  1.423213 A    
C9    C14   1.394073 A    
O49   C71   1.274929 A    
N4    O59   1.300033 A    
C100  C132  1.415317 A    
C11   C16   1.393545 A    
C83   N3    1.440141 S    
C12   C15   1.393750 A    
C24   C44   1.395484 A    
C2    C42   1.401600 A    
N24   O100  1.300204 A    
O37   C75   1.276851 A    
C31   C39   1.402233 A    
C87   C162  1.420573 A    
O38   C76   1.278281 A    
C98   C183  1.420322 A    
C18   C46   1.392021 A    
C131  C142  1.395629 A    
N38   O128  1.301190 A    
C3    C8    1.395997 A    
N11   O73   1.300995 A    
C129  C144  1.402808 A    
C105  C176  1.417411 A    
C184  C186  1.434696 A    
N5    O61   1.301773 A    
Zn5   O51   1.942738 S    
C30   C50   1.392583 A    
N22   O96   1.298553 A    
C103  C135  1.405086 A    
N9    O69   1.301032 A    
Zn1   O20   1.939218 S    
Zn2   O19   1.939218 S    
C144  N34   1.437121 S    
C101  C133  1.409461 A    
N7    O65   1.301569 A    
N54   O159  1.301074 A    
N30   O112  1.301305 A    
Zn14  O36   1.942740 S    
N36   O123  1.301128 A    
O16   C64   1.285340 A    
C76   C194  1.468237 S    
C158  C190  1.436784 A    
Zn8   O17   1.937874 S    
N50   O152  1.300910 A    
N51   O154  1.301274 A    
N15   O81   1.301691 A    
C21   C41   1.392032 A    
C170  C183  1.396593 A    
C173  C180  1.401920 A    
C66   C192  1.474147 S    
C181  C187  1.427215 A    
N23   O97   1.301446 A    
C182  C188  1.435265 A    
C156  C165  1.417437 A    
N62   O176  1.300760 A    
C124  N54   1.435798 S    
Zn1   O1    1.952069 S    
N31   O113  1.301995 A    
C20   H4    1.083245 S    
O43   C77   1.277585 A    
C155  C187  1.429081 A    
C31   H15   1.084136 S    
C80   C198  1.466056 S    
N58   O168  1.300758 A    
C41   C145  1.411014 A    
C79   C197  1.449667 S    
N12   O76   1.301090 A    
N27   O106  1.301569 A    
N59   O170  1.300916 A    
C116  N62   1.438176 S    
C100  N20   1.441538 S    
C158  C163  1.400238 A    
C111  C143  1.413932 A    
C112  C144  1.410645 A    
C72   C190  1.478457 S    
N49   O150  1.301095 A    
N44   O139  1.301090 A    
C73   C199  1.452582 S    
O18   C62   1.282389 A    
C25   C37   1.402612 A    
Zn16  O21   1.945273 S    
C88   C161  1.437906 A    
C32   C52   1.392119 A    
O27   C71   1.289054 A    
N37   O126  1.300780 A    
C109  C141  1.414846 A    
N42   O136  1.300693 A    
O52   C70   1.283445 A    
N17   O86   1.301364 A    
C51   C151  1.411208 A    
C129  N47   1.431969 S    
C169  C199  1.418620 A    
C24   H8    1.083459 S    
C25   H9    1.084498 S    
O47   C65   1.283637 A    
O7    C59   1.285191 A    
C28   C56   1.391541 A    
C103  C178  1.431718 A    
C21   H5    1.084518 S    
Zn13  O4    1.958577 S    
N34   O120  1.301203 A    
N59   O169  1.300888 A    
O32   C76   1.284496 A    
O17   C61   1.282023 A    
C120  C121  1.395703 A    
N3    O58   1.300978 A    
C20   C48   1.395513 A    
Zn16  O1    1.947755 S    
C1    H17   1.083790 S    
N39   O129  1.300855 A    
C85   N5    1.437941 S    
C3    H19   1.083751 S    
C94   C126  1.418495 A    
C120  N58   1.438329 S    
C104  N24   1.439902 S    
N60   O172  1.301114 A    
C130  C143  1.407648 A    
N11   O74   1.301573 A    
N52   O155  1.301331 A    
C27   C39   1.402608 A    
C106  C175  1.436353 A    
C109  C172  1.422258 A    
N2    O55   1.301365 A    
C89   N9    1.426143 S    
C84   C116  1.403450 A    
C130  N48   1.431880 S    
O10   C58   1.280600 A    
O33   C77   1.278620 A    
C153  C185  1.415910 A    
N26   O103  1.300357 A    
N40   O131  1.301163 A    
C118  C123  1.403106 A    
C29   H13   1.084481 S    
C26   C38   1.402918 A    
Zn9   O12   1.939218 S    
N28   O108  1.300240 A    
C54   C150  1.410934 A    
Zn10  O11   1.939218 S    
Zn7   O3    1.947751 S    
Zn11  O2    1.951067 S    
C71   C189  1.468799 S    
C9    C49   1.401562 A    
C88   N8    1.432715 S    
C11   C51   1.401347 A    
N21   O93   1.301040 A    
C17   H1    1.084245 S    
C174  C179  1.424241 A    
C177  C191  1.423961 A    
C178  C192  1.433723 A    
C15   C55   1.401587 A    
N25   O101  1.300910 A    
N16   O83   1.301541 A    
C85   C117  1.410903 A    
C112  C169  1.424990 A    
O23   C67   1.279279 A    
C90   C159  1.420218 A    
N61   O174  1.300775 A    
C134  N44   1.434116 S    
N20   O91   1.301653 A    
C6    H22   1.083782 S    
C89   C121  1.404078 A    
Zn2   O48   1.943101 S    
C7    C47   1.402305 A    
C154  C186  1.432195 A    
C159  C162  1.393463 A    
C5    H21   1.083795 S    
C10   C13   1.393997 A    
N41   O134  1.301121 A    
N45   O141  1.301167 A    
N55   O162  1.301235 A    
C68   C186  1.477498 S    
O45   C67   1.276892 A    
C103  N23   1.427288 S    
C34   C60   1.458828 S    
O46   C68   1.281942 A    
C108  C173  1.424087 A    
C22   C42   1.392111 A    
C22   H6    1.084162 S    
