data_mof_unit_18986.cif
_audit_creation_date              2013-03-05T16:07:59-0500
_audit_creation_method            fapswitch 2.2
_symmetry_space_group_name_H-M    P1
_symmetry_Int_Tables_number       1
_space_group_crystal_system       triclinic
_cell_length_a                    23.193036
_cell_length_b                    11.536394
_cell_length_c                    10.733576
_cell_angle_alpha                 90.325431
_cell_angle_beta                  88.751015
_cell_angle_gamma                 90.172513
_cell_volume                      2871.17792778

loop_
_atom_site_label
_atom_site_type_symbol
_atom_site_description
_atom_site_fract_x
_atom_site_fract_y
_atom_site_fract_z
_atom_type_partial_charge
O1    O     O_R   0.500000 0.334450 0.602530 -0.608671
O2    O     O_R   0.500000 0.665550 0.397470 -0.592887
O3    O     O_R   0.500000 0.665550 0.602530 -0.612813
O4    O     O_R   0.500000 0.334450 0.397470 -0.603281
C1    C     C_R   0.499986 0.281095 0.499703 0.909210
C2    C     C_R   0.499929 0.718904 0.500287 0.916029
O5    O     O_R   0.416150 0.500000 0.602560 -0.586677
O6    O     O_R   0.583850 0.500000 0.397440 -0.563375
O7    O     O_R   0.583850 0.500000 0.602560 -0.578522
O8    O     O_R   0.416150 0.500000 0.397440 -0.566669
C3    C     C_R   0.388576 0.504920 0.501243 1.028130
C4    C     C_R   0.611692 0.495648 0.498298 1.014263
Zn1   Zn    Zn3+2 0.500000 0.500000 0.636920 1.053030
Zn2   Zn    Zn3+2 0.500000 0.500000 0.363080 1.076820
C5    C     C_R   0.873863 0.572995 0.451787 0.649787
C6    C     C_R   0.129596 0.451458 0.441286 0.645460
C7    C     C_R   0.891639 0.369549 0.443672 0.617043
C8    C     C_R   0.111466 0.651321 0.483250 0.614360
N1    N     N_R   0.854592 0.460713 0.457543 -0.316272
N2    N     N_R   0.148395 0.559623 0.474791 -0.312805
C9    C     C_R   0.950836 0.389169 0.425431 -0.166756
C10   C     C_R   0.052854 0.636078 0.458023 -0.162890
C11   C     C_R   0.933277 0.597286 0.447464 -0.166364
C12   C     C_R   0.070386 0.428378 0.431944 -0.177910
C13   C     C_R   0.971960 0.503123 0.437721 -0.160793
C14   C     C_R   0.031748 0.522556 0.441670 -0.160271
C15   C     C_R   0.989333 0.297709 0.398242 0.398468
C16   C     C_R   0.015032 0.730923 0.449715 0.401919
C17   C     C_R   0.954964 0.712044 0.453095 0.360116
C18   C     C_R   0.048922 0.314650 0.413906 0.381664
O9    O     O_2   0.835275 0.660356 0.452302 -0.488664
O10   O     O_2   0.168493 0.366877 0.417860 -0.495243
O11   O     O_2   0.871661 0.260386 0.453808 -0.560101
O12   O     O_2   0.130927 0.755562 0.520737 -0.552999
C19   C     C_R   0.244773 0.637268 0.423146 0.440330
C20   C     C_R   0.759935 0.392603 0.388183 0.442994
C21   C     C_R   0.231378 0.505293 0.598160 0.379950
C22   C     C_R   0.768289 0.488110 0.590129 0.412154
C23   C     C_R   0.303925 0.610690 0.418251 0.199501
C24   C     C_R   0.700413 0.415709 0.389864 0.205385
C25   C     C_R   0.290350 0.481924 0.597185 0.270510
C26   C     C_R   0.709010 0.508788 0.594421 0.262510
C27   C     C_R   0.326681 0.530941 0.504357 -0.362056
C28   C     C_R   0.674494 0.474746 0.493527 -0.374559
C29   C     C_R   0.208245 0.573459 0.503234 -0.048004
C30   C     C_R   0.794118 0.440988 0.481374 -0.060161
C31   C     C_1   0.499888 0.161054 0.499227 -0.143506
C32   C     C_1   0.499787 0.838939 0.500706 -0.136545
C33   C     C_1   0.499791 0.059115 0.499551 0.021655
C34   C     C_1   0.499736 0.940875 0.500318 0.024013
N3    N     N_1   0.500000 0.500000 0.180630 -0.043685
N4    N     N_1   0.500000 0.500000 0.819370 -0.055338
C35   C     C_1   0.500007 0.500000 0.069640 0.125910
C36   C     C_1   0.500008 0.500000 0.930361 0.105327
O13   O     O_3   0.968251 0.191557 0.357859 -0.617103
C37   C     C_3   0.982892 0.173803 0.230080 0.083707
H1    H     H_    0.970546 0.083515 0.206078 0.157384
H2    H     H_    0.030166 0.180777 0.211643 0.164900
C38   C     C_3   0.950111 0.255200 0.143637 -0.356173
H3    H     H_    0.903051 0.247516 0.163135 0.252159
H4    H     H_    0.963338 0.346513 0.160346 0.212415
C39   C     C_3   0.962745 0.225559 0.006870 -0.980684
H5    H     H_    0.009836 0.230632 0.986179 0.270720
H6    H     H_    0.940613 0.288198 0.946210 0.268681
H7    H     H_    0.947028 0.136856 0.984940 0.269602
O14   O     O_3   0.037200 0.842297 0.439790 -0.618831
C40   C     C_3   0.030713 0.884336 0.317074 0.093379
H8    H     H_    0.042947 0.977235 0.318653 0.177028
H9    H     H_    0.985203 0.880365 0.286751 0.169168
C41   C     C_3   0.070324 0.822122 0.221595 -0.372570
H10   H     H_    0.114921 0.820059 0.256414 0.267282
H11   H     H_    0.055434 0.731360 0.208070 0.215488
C42   C     C_3   0.070420 0.883290 0.095866 -0.956724
H12   H     H_    0.026134 0.885206 0.058540 0.262267
H13   H     H_    0.098985 0.836047 0.028677 0.277614
H14   H     H_    0.086687 0.973507 0.105550 0.268967
O15   O     O_3   0.917822 0.805917 0.451867 -0.606776
C43   C     C_3   0.916590 0.860561 0.570088 0.114416
H15   H     H_    0.960176 0.891845 0.596078 0.163927
H16   H     H_    0.900097 0.799485 0.642773 0.156116
C44   C     C_3   0.876304 0.965028 0.565444 -0.267788
H17   H     H_    0.889003 0.020652 0.485074 0.277109
H18   H     H_    0.831418 0.934182 0.551941 0.244347
C45   C     C_3   0.878406 0.037382 0.684762 -0.946667
H19   H     H_    0.866075 0.983706 0.766805 0.264946
H20   H     H_    0.847704 0.110752 0.678628 0.276492
H21   H     H_    0.922466 0.073206 0.697340 0.263125
O16   O     O_3   0.086323 0.220915 0.406852 -0.611155
C46   C     C_3   0.078518 0.148484 0.512325 0.091570
H22   H     H_    0.098661 0.063569 0.489358 0.199185
H23   H     H_    0.032296 0.130087 0.534771 0.163985
C47   C     C_3   0.108503 0.198581 0.626841 -0.323429
H24   H     H_    0.155161 0.211026 0.605082 0.291061
H25   H     H_    0.089430 0.283939 0.651903 0.211920
C48   C     C_3   0.101794 0.118150 0.738624 -0.943842
H26   H     H_    0.055426 0.105891 0.763486 0.258870
H27   H     H_    0.123735 0.156890 0.819898 0.274426
H28   H     H_    0.121575 0.032526 0.717228 0.286258
O17   O     O_3   0.220268 0.714453 0.340928 -0.612023
C49   C     C_3   0.239195 0.831647 0.356312 0.200082
H29   H     H_    0.202882 0.887717 0.328835 0.163548
H30   H     H_    0.274425 0.851196 0.288092 0.189611
C50   C     C_3   0.257179 0.869968 0.488740 -0.456375
H31   H     H_    0.225504 0.839856 0.560257 0.264535
H32   H     H_    0.299817 0.832514 0.510524 0.223989
C51   C     C_3   0.262011 0.001737 0.498362 -0.820259
H33   H     H_    0.294098 0.034793 0.428803 0.270140
H34   H     H_    0.276199 0.026553 0.593017 0.278245
H35   H     H_    0.219512 0.042547 0.482174 0.272540
O18   O     O_3   0.787104 0.335814 0.288855 -0.606676
C52   C     C_3   0.770418 0.217068 0.275062 0.197197
H36   H     H_    0.808912 0.170401 0.237627 0.164075
H37   H     H_    0.737757 0.209191 0.201598 0.179315
C53   C     C_3   0.748786 0.152059 0.393433 -0.443915
H38   H     H_    0.778546 0.165034 0.471611 0.260684
H39   H     H_    0.705624 0.184431 0.423402 0.225499
C54   C     C_3   0.743304 0.022232 0.368009 -0.861396
H40   H     H_    0.712323 0.006138 0.292308 0.273348
H41   H     H_    0.727300 0.977803 0.453569 0.275265
H42   H     H_    0.785905 0.985201 0.340546 0.273807
O19   O     O_3   0.195124 0.447299 0.680981 -0.596225
C55   C     C_3   0.177209 0.525434 0.775806 0.091347
H43   H     H_    0.153818 0.600503 0.736231 0.139989
H44   H     H_    0.215205 0.557735 0.827762 0.172681
C56   C     C_3   0.136417 0.462633 0.866799 -0.315518
H45   H     H_    0.097864 0.431886 0.816418 0.210287
H46   H     H_    0.158642 0.386019 0.905521 0.251905
C57   C     C_3   0.116825 0.542001 0.973821 -0.933959
H47   H     H_    0.154529 0.572705 0.027053 0.287758
H48   H     H_    0.087397 0.493645 0.038041 0.266556
H49   H     H_    0.093354 0.617969 0.937314 0.260719
O20   O     O_3   0.801939 0.530428 0.685523 -0.574003
C58   C     C_3   0.825113 0.437306 0.753619 0.042448
H50   H     H_    0.862445 0.471669 0.805575 0.173012
H51   H     H_    0.842223 0.366266 0.692708 0.132328
C59   C     C_3   0.780490 0.389136 0.847601 -0.293184
H52   H     H_    0.761910 0.461374 0.904285 0.286128
H53   H     H_    0.745033 0.346014 0.796804 0.214309
C60   C     C_3   0.807426 0.301444 0.934572 -0.928416
H54   H     H_    0.829246 0.231355 0.880321 0.258973
H55   H     H_    0.773176 0.262082 0.994475 0.279066
H56   H     H_    0.839067 0.345227 0.995236 0.279172
Cl1   Cl    Cl    0.348014 0.674792 0.300498 -0.592003
Cl2   Cl    Cl    0.660768 0.374650 0.257178 -0.587301
Cl3   Cl    Cl    0.316062 0.381346 0.706399 -0.545306
Cl4   Cl    Cl    0.681022 0.588480 0.723382 -0.537492

loop_
_geom_bond_atom_site_label_1
_geom_bond_atom_site_label_2
_geom_bond_distance
_ccdc_geom_bond_type
O13   C37   1.419595 S    
C42   H13   1.110376 S    
C42   H12   1.110943 S    
C19   C23   1.406467 A    
C48   H26   1.111198 S    
C45   H21   1.111798 S    
O3    C2    1.261338 A    
C57   H47   1.110969 S    
C53   H38   1.107308 S    
C48   H28   1.111080 S    
C31   C33   1.176032 T    
O15   C43   1.413450 S    
C18   O16   1.389023 S    
O5    C3    1.275175 A    
C1    C31   1.384810 S    
C2    C32   1.384766 S    
O1    C1    1.260688 A    
C11   C17   1.416242 A    
C16   C17   1.409153 A    
C45   H20   1.110921 S    
C22   C26   1.395821 A    
C54   H41   1.110511 S    
Zn2   N3    1.958341 S    
C60   H56   1.110193 S    
C43   H16   1.114917 S    
C51   H33   1.110853 S    
C37   H1    1.109807 S    
O7    Zn1   1.971484 S    
O18   C52   1.430146 S    
C49   H29   1.109505 S    
C39   H6    1.109851 S    
C5    N1    1.370291 A    
C50   H32   1.110449 S    
C52   H37   1.108465 S    
C52   H36   1.110476 S    
O20   C58   1.416597 S    
C56   C57   1.527163 S    
C20   C30   1.402219 A    
C41   H10   1.107800 S    
C46   H23   1.113699 S    
N2    C29   1.435995 S    
O3    Zn1   1.947252 S    
O6    C4    1.273872 A    
C5    C11   1.405205 A    
O14   C40   1.417451 S    
C9    C15   1.409421 A    
C38   H3    1.110242 S    
C6    C12   1.403683 A    
C10   C16   1.408881 A    
C15   C18   1.408778 A    
C21   C25   1.394661 A    
C25   C27   1.410501 A    
C52   C53   1.552165 S    
O2    C2    1.260548 A    
C26   C28   1.413840 A    
C59   C60   1.524829 S    
C19   O17   1.388702 S    
C49   H30   1.108756 S    
C44   H18   1.111382 S    
N4    C36   1.191336 T    
C44   H17   1.112105 S    
N1    C30   1.437880 S    
C38   H4    1.110976 S    
C40   H8    1.107945 S    
C20   C24   1.406495 A    
C45   H19   1.111255 S    
C59   H53   1.111328 S    
O8    Zn2   1.971486 S    
C54   H42   1.110884 S    
C43   H15   1.113078 S    
O4    C1    1.261207 A    
C23   C27   1.418805 A    
C13   C14   1.405521 A    
C35   C36   1.494963 S    
C49   C50   1.551604 S    
C7    C9    1.400542 A    
N3    C35   1.191314 T    
C22   O20   1.386615 S    
C16   O14   1.386273 S    
C39   H5    1.111214 S    
C58   C59   1.534570 S    
Zn1   N4    1.958340 S    
O17   C49   1.430003 S    
C24   C28   1.424069 A    
C6    N2    1.369296 A    
C41   C42   1.526380 S    
C47   H25   1.110026 S    
C25   Cl3   1.768112 S    
C7    O11   1.344743 S    
C46   C47   1.534699 S    
C3    C27   1.467100 S    
C8    O12   1.345714 S    
O19   C55   1.412261 S    
C21   O19   1.384076 S    
C23   Cl1   1.771919 S    
C24   Cl2   1.773405 S    
C20   O18   1.388600 S    
C56   H45   1.111194 S    
C42   H14   1.111064 S    
O1    Zn1   1.943136 S    
C21   C29   1.407086 A    
C19   C29   1.403659 A    
C57   H49   1.110869 S    
C44   C45   1.526320 S    
C56   H46   1.111703 S    
C9    C13   1.408045 A    
C38   C39   1.527729 S    
O6    Zn2   1.987280 S    
C39   H7    1.110946 S    
C8    C10   1.402221 A    
C12   C14   1.412394 A    
C59   H52   1.111464 S    
C57   H48   1.110755 S    
C53   H39   1.109927 S    
C60   H54   1.110522 S    
C48   H27   1.110514 S    
C5    O9    1.349767 S    
C6    O10   1.349745 S    
C15   O13   1.387885 S    
C37   C38   1.538070 S    
C40   C41   1.537527 S    
C55   C56   1.528898 S    
C46   H22   1.110694 S    
C4    C28   1.476851 S    
C54   H40   1.110820 S    
C60   H55   1.108822 S    
C43   C44   1.528873 S    
C58   H50   1.111006 S    
C51   H34   1.110484 S    
C32   C34   1.176017 T    
C47   H24   1.111122 S    
C7    N1    1.365506 A    
C37   H2    1.112646 S    
C50   C51   1.527015 S    
C8    N2    1.364514 A    
C47   C48   1.525914 S    
O4    Zn2   1.947253 S    
O2    Zn2   1.943135 S    
O7    C4    1.280609 A    
C12   C18   1.415644 A    
C22   C30   1.407595 A    
C53   C54   1.526305 S    
O8    C3    1.273589 A    
O5    Zn1   1.987283 S    
C11   C13   1.412943 A    
C17   O15   1.386113 S    
O16   C46   1.418995 S    
C33   C34   1.364126 S    
C10   C14   1.408143 A    
C50   H31   1.107489 S    
C58   H51   1.114064 S    
C41   H11   1.111289 S    
C40   H9    1.112043 S    
C55   H43   1.114377 S    
C55   H44   1.115145 S    
C51   H35   1.111115 S    
C26   Cl4   1.769913 S    
