data_mof_unit_33128.cif
_audit_creation_date              2012-12-11T15:32:35-0500
_audit_creation_method            fapswitch 2.2
_symmetry_space_group_name_H-M    P1
_symmetry_Int_Tables_number       1
_space_group_crystal_system       triclinic
_cell_length_a                    6.973362
_cell_length_b                    20.396834
_cell_length_c                    24.424664
_cell_angle_alpha                 89.679588
_cell_angle_beta                  89.828111
_cell_angle_gamma                 88.873782
_cell_volume                      3473.29011962

loop_
_atom_site_label
_atom_site_type_symbol
_atom_type_description
_atom_site_fract_x
_atom_site_fract_y
_atom_site_fract_z
_atom_type_partial_charge
O1    O     O_R   0.507320 0.423560 0.460500 -0.537890
O2    O     O_R   0.170760 0.556250 0.437010 -0.536911
O3    O     O_R   0.004030 0.576440 0.539500 -0.534005
C1    C     C_R   0.339002 0.576021 0.420898 0.745101
O4    O     O_R   0.177370 0.422820 0.454110 -0.542328
O5    O     O_R   0.010680 0.442050 0.556720 -0.536354
C2    C     C_R   0.348133 0.398675 0.443997 0.764864
O6    O     O_R   0.500680 0.557950 0.443280 -0.533475
O7    O     O_3   0.340380 0.506470 0.533650 -0.369717
V1    V     V_3+5 0.064130 0.498800 0.493760 1.423816
O8    O     O_R   0.681160 0.443750 0.562990 -0.538766
C3    C     C_R   0.850689 0.423724 0.578817 0.723162
O9    O     O_R   0.674560 0.577180 0.545890 -0.537883
C4    C     C_R   0.841610 0.600985 0.556907 0.695426
V2    V     V_3+5 0.564560 0.501200 0.506240 1.434366
O10   O     O_3   0.838180 0.493530 0.466350 -0.371128
C5    C     C_R   0.983629 0.837624 0.911081 -0.049213
C6    C     C_R   0.845067 0.662039 0.589206 -0.049821
C7    C     C_R   0.077086 0.723345 0.904174 -0.152026
C8    C     C_R   0.059571 0.780508 0.934674 -0.166985
C9    C     C_R   0.931253 0.837489 0.855532 -0.192827
C10   C     C_R   0.970030 0.782011 0.821527 0.079507
C11   C     C_R   0.031072 0.722872 0.847905 0.089949
C12   C     C_R   0.945081 0.782717 0.762767 -0.002188
C13   C     C_R   0.945086 0.721738 0.733664 0.043115
C14   C     C_R   0.994821 0.663817 0.762636 -0.208846
C15   C     C_R   0.043787 0.664331 0.817840 -0.061045
C16   C     C_R   0.931720 0.841779 0.731459 -0.104129
C17   C     C_R   0.873464 0.840605 0.676318 -0.111214
C18   C     C_R   0.853498 0.780414 0.648868 0.069654
C19   C     C_R   0.899614 0.720459 0.676246 0.090773
C20   C     C_R   0.796158 0.779330 0.593362 -0.138760
C21   C     C_R   0.790783 0.720985 0.564305 -0.159258
C22   C     C_R   0.897509 0.661507 0.644739 -0.197087
H1    H     H_    0.933918 0.614117 0.661717 0.094137
H2    H     H_    0.747356 0.722031 0.521737 0.117318
H3    H     H_    0.129853 0.679643 0.924991 0.131767
H4    H     H_    0.103052 0.779933 0.977239 0.107950
H5    H     H_    0.859038 0.880959 0.840078 0.119921
H6    H     H_    0.001795 0.616685 0.743086 0.125941
H7    H     H_    0.756639 0.823846 0.571502 0.135386
C23   C     C_3   0.851514 0.308863 0.769111 -0.140626
C24   C     C_3   0.038879 0.272135 0.785297 -0.021422
H8    H     H_    0.802166 0.357230 0.785010 0.135733
H9    H     H_    0.225257 0.262518 0.704115 0.121347
C25   C     C_1   0.961606 0.121761 0.875388 -0.127133
C26   C     C_1   0.862792 0.378269 0.624569 -0.188354
C27   C     C_3   0.741804 0.243437 0.774809 -0.138381
C28   C     C_3   0.930712 0.207587 0.791263 0.079320
C29   C     C_3   0.783809 0.227958 0.713567 -0.161675
C30   C     C_3   0.894463 0.292581 0.708592 0.143706
C31   C     C_3   0.972363 0.192688 0.730772 -0.022175
C32   C     C_3   0.084027 0.257057 0.724613 -0.214033
C33   C     C_1   0.948912 0.160279 0.837408 -0.012602
C34   C     C_1   0.875760 0.339796 0.662550 -0.037627
H10   H     H_    0.678460 0.209551 0.683621 0.125389
H11   H     H_    0.600986 0.237702 0.795415 0.146306
C35   C     C_3   0.548301 0.725700 0.214710 -0.131694
C36   C     C_3   0.358581 0.690628 0.228961 -0.147025
H12   H     H_    0.314546 0.642605 0.212493 0.119455
H13   H     H_    0.660946 0.706910 0.186330 0.111549
H14   H     H_    0.108155 0.763489 0.199537 0.115632
C37   C     C_1   0.349342 0.621057 0.374573 -0.190327
C38   C     C_1   0.475172 0.877614 0.124624 -0.185295
C39   C     C_3   0.578313 0.740739 0.276321 -0.135476
C40   C     C_3   0.388949 0.706154 0.290057 0.121432
C41   C     C_3   0.466232 0.806876 0.269263 -0.151729
C42   C     C_3   0.435651 0.791130 0.208217 0.152562
C43   C     C_3   0.278538 0.771345 0.282862 -0.002594
C44   C     C_3   0.245888 0.756653 0.221747 -0.175359
C45   C     C_1   0.364844 0.659105 0.336279 -0.048578
C46   C     C_1   0.459835 0.838740 0.162388 -0.048366
H15   H     H_    0.509786 0.854832 0.285979 0.130982
H16   H     H_    0.715517 0.733776 0.298721 0.138849
C47   C     C_R   0.453103 0.165197 0.084514 -0.182629
C48   C     C_R   0.363617 0.339667 0.409696 -0.130253
C49   C     C_R   0.316255 0.275378 0.085752 -0.177394
C50   C     C_R   0.366338 0.218808 0.057036 -0.109235
C51   C     C_R   0.490245 0.169575 0.141179 0.323003
C52   C     C_R   0.413090 0.223755 0.172138 -0.026229
C53   C     C_R   0.336651 0.277887 0.142706 0.010488
C54   C     C_R   0.406581 0.225896 0.230815 0.007861
C55   C     C_R   0.367468 0.286710 0.259149 -0.062557
C56   C     C_R   0.296891 0.340690 0.226485 0.403556
C57   C     C_R   0.279775 0.334638 0.169971 -0.249056
C58   C     C_R   0.419339 0.167444 0.261446 -0.133962
C59   C     C_R   0.406868 0.167491 0.317786 -0.192475
C60   C     C_R   0.390933 0.225956 0.346556 0.096563
C61   C     C_R   0.385906 0.287602 0.318547 -0.036006
C62   C     C_R   0.374638 0.222197 0.403723 -0.153597
C63   C     C_R   0.353687 0.278501 0.434718 -0.254638
C64   C     C_R   0.396042 0.344976 0.352790 0.356705
H17   H     H_    0.226359 0.376626 0.146734 0.146815
H18   H     H_    0.334754 0.274404 0.478650 0.132321
H19   H     H_    0.409250 0.120755 0.339203 0.127724
H20   H     H_    0.254558 0.317021 0.063707 0.137898
H21   H     H_    0.422038 0.119876 0.242429 0.177947
H22   H     H_    0.373424 0.175122 0.424551 0.135547
O11   O     O_R   0.323550 0.942140 0.056770 -0.538754
O12   O     O_R   0.647080 0.077200 0.045890 -0.533139
O13   O     O_R   0.813610 0.057920 0.943260 -0.538073
C65   C     C_R   0.475958 0.101891 0.055566 0.763249
O14   O     O_R   0.653470 0.943760 0.063000 -0.536343
O15   O     O_R   0.820050 0.923540 0.960490 -0.538851
C66   C     C_R   0.485316 0.923618 0.078885 0.731484
O16   O     O_R   0.317110 0.076520 0.039540 -0.543691
O17   O     O_3   0.483830 0.993580 0.966380 -0.367236
V3    V     V_3+5 0.760140 0.001190 0.006240 1.445693
O18   O     O_R   0.149510 0.922740 0.954070 -0.536813
C67   C     C_R   0.982722 0.898782 0.943280 0.696831
O19   O     O_R   0.143120 0.056170 0.936970 -0.529252
C68   C     C_R   0.973614 0.076253 0.921149 0.738988
V4    V     V_3+5 0.259690 0.998700 0.993700 1.459822
O20   O     O_3   0.986130 0.006420 0.033620 -0.374340
C69   C     C_1   0.101489 0.602603 0.842992 0.293750
N1    N     N_1   0.147582 0.553232 0.863023 -0.333304
C70   C     C_1   0.179498 0.297366 0.823984 0.319329
N2    N     N_1   0.290633 0.317477 0.854357 -0.318024
C71   C     C_1   0.038732 0.129292 0.709068 0.321143
N3    N     N_1   0.091223 0.079346 0.691823 -0.292016
C72   C     C_1   0.129537 0.796699 0.320065 0.279901
N4    N     N_1   0.011997 0.816696 0.349417 -0.360285
O21   O     O_3   0.423739 0.407750 0.333596 -0.553643
C73   C     C_3   0.605095 0.414794 0.309309 0.169095
H23   H     H_    0.634448 0.377444 0.277269 0.109840
H24   H     H_    0.717934 0.410407 0.341205 0.091011
C74   C     C_3   0.609046 0.482869 0.282432 -0.682928
H25   H     H_    0.632983 0.520979 0.313842 0.194847
H26   H     H_    0.721193 0.484845 0.250470 0.169762
H27   H     H_    0.473269 0.495333 0.261201 0.261115
C75   C     C_1   0.329333 0.216987 0.998873 0.314270
N5    N     N_1   0.299697 0.215314 0.952324 -0.339539
O22   O     O_3   0.606997 0.121751 0.164790 -0.571438
C76   C     C_3   0.795616 0.145716 0.167051 0.103077
H28   H     H_    0.803052 0.188338 0.195241 0.123552
H29   H     H_    0.847211 0.160661 0.125631 0.126070
C77   C     C_3   0.930217 0.091945 0.188393 -0.680561
H30   H     H_    0.927109 0.048839 0.160835 0.225487
H31   H     H_    0.078983 0.110311 0.189954 0.172866
H32   H     H_    0.885828 0.076788 0.230223 0.219611
O23   O     O_3   0.265189 0.403085 0.245950 -0.539955
C78   C     C_3   0.081182 0.410805 0.268893 0.159425
H33   H     H_    0.055916 0.374015 0.301806 0.102740
H34   H     H_    0.969891 0.405666 0.236770 0.084309
C79   C     C_3   0.067386 0.479825 0.293602 -0.659504
H35   H     H_    0.038898 0.516795 0.260944 0.185122
H36   H     H_    0.955286 0.482818 0.325516 0.170124
H37   H     H_    0.200539 0.493891 0.314425 0.254644
C80   C     C_1   0.842186 0.902375 0.647298 0.332072
N6    N     N_1   0.817346 0.951559 0.624290 -0.313100
C81   C     C_1   0.007258 0.902834 0.751888 0.323565
N7    N     N_1   0.068140 0.951494 0.767911 -0.332487

loop_
_geom_bond_atom_site_label_1
_geom_bond_atom_site_label_2
_ccdc_geom_bond_type
C13   C19   A    
C18   C20   A    
C59   C60   A    
C25   C68   S    
C4    C6    S    
O2    C1    A    
O19   C68   A    
C1    O6    A    
C5    C67   S    
C5    C8    A    
C76   C77   S    
C79   H35   S    
C27   H11   S    
C49   C50   A    
O13   C68   A    
C77   H31   S    
C1    C37   S    
C14   C15   A    
C73   H24   S    
C16   C17   A    
C36   C40   S    
O5    C3    A    
C18   C19   A    
C40   C43   S    
C28   C33   S    
C21   H2    S    
H14   C44   S    
C22   H1    S    
V3    O20   S    
C58   H21   S    
O17   V4    S    
C55   C61   A    
C7    H3    S    
C57   H17   S    
C24   C32   S    
C40   C45   S    
C39   C41   S    
C59   H19   S    
C47   C65   S    
C29   C31   S    
C81   N7    T    
O14   V3    S    
C41   H15   S    
C11   C15   A    
C69   N1    T    
O7    V1    S    
C30   C34   S    
O18   V4    S    
C23   C30   S    
C35   H13   S    
C27   C29   S    
H9    C32   S    
C36   H12   S    
C9    C10   A    
C78   C79   S    
O23   C78   S    
C23   H8    S    
C3    C26   S    
O11   C66   A    
C47   C50   A    
C79   H36   S    
C10   C11   A    
C51   O22   S    
C77   H32   S    
O12   V3    S    
V2    O10   S    
O16   V4    S    
C41   C42   S    
O21   C73   S    
C12   C13   A    
O14   C66   A    
C64   O21   S    
O4    C2    A    
C58   C59   A    
C24   C28   S    
C76   H29   S    
C36   C44   S    
C35   C36   S    
C54   C58   A    
C54   C55   A    
C29   H10   S    
C39   H16   S    
C30   C32   S    
C7    C11   A    
C50   C75   S    
C74   H26   S    
O5    V1    S    
C17   C18   A    
C8    H4    S    
C35   C39   S    
C55   C56   A    
C9    H5    S    
C43   C72   S    
C42   C46   S    
C28   C31   S    
C25   C33   T    
O12   C65   A    
C29   C30   S    
C19   C22   A    
O19   V4    S    
C23   C27   S    
C56   C57   A    
C61   C64   A    
C6    C22   A    
C72   N4    T    
C37   C45   T    
O3    C4    A    
C48   C64   A    
C73   C74   S    
O1    V2    S    
C35   C42   S    
C27   C28   S    
C24   C70   S    
C39   C40   S    
O6    V2    S    
O8    V2    S    
O9    V2    S    
O22   C76   S    
C78   H34   S    
C23   C24   S    
O17   V3    S    
C74   H25   S    
O2    V1    S    
O15   V3    S    
C79   H37   S    
C31   C32   S    
C26   C34   T    
V4    O20   S    
C49   H20   S    
C38   C66   S    
O1    C2    A    
C20   H7    S    
C12   C16   A    
C60   C62   A    
C52   C53   A    
O11   V4    S    
C71   N3    T    
C2    C48   S    
C77   H30   S    
C76   H28   S    
C70   N2    T    
C20   C21   A    
C7    C8    A    
C13   C14   A    
C74   H27   S    
O4    V1    S    
O3    V1    S    
V1    O10   S    
C80   N6    T    
C63   H18   S    
O15   C67   A    
C14   H6    S    
C62   C63   A    
C56   O23   S    
O13   V3    S    
C52   C54   A    
C65   O16   A    
C10   C12   A    
C38   C46   T    
O7    V2    S    
C43   C44   S    
C6    C21   A    
C5    C9    A    
C48   C63   A    
C17   C80   S    
C51   C52   A    
C31   C71   S    
C60   C61   A    
C16   C81   S    
C42   C44   S    
C49   C53   A    
O18   C67   A    
C78   H33   S    
C41   C43   S    
O9    C4    A    
C47   C51   A    
C62   H22   S    
C53   C57   A    
C75   N5    T    
O8    C3    A    
C73   H23   S    
C15   C69   S    
