data_mof_unit_31877.cif
_audit_creation_date              2012-12-10T19:10:38-0500
_audit_creation_method            fapswitch 2.2
_symmetry_space_group_name_H-M    P1
_symmetry_Int_Tables_number       1
_space_group_crystal_system       triclinic
_cell_length_a                    13.078738
_cell_length_b                    9.090484
_cell_length_c                    7.836245
_cell_angle_alpha                 89.999567
_cell_angle_beta                  95.551398
_cell_angle_gamma                 89.989743
_cell_volume                      927.297594903

loop_
_atom_site_label
_atom_site_type_symbol
_atom_type_description
_atom_site_fract_x
_atom_site_fract_y
_atom_site_fract_z
_atom_type_partial_charge
C1    C     C_R   0.499987 0.220241 0.499998 0.851934
C2    C     C_R   0.500005 0.779759 0.500000 0.843812
C3    C     C_R   0.300170 0.501490 0.470175 0.905761
C4    C     C_R   0.699798 0.502036 0.530568 0.876661
C5    C     C_R   0.812491 0.502184 0.547941 -0.195268
C6    C     C_R   0.187548 0.493857 0.458719 -0.289674
C7    C     C_R   0.025629 0.427230 0.298396 0.350087
C8    C     C_R   0.971285 0.514398 0.733614 0.368331
C9    C     C_R   0.133683 0.427015 0.314350 0.342598
C10   C     C_R   0.866080 0.478079 0.709002 0.215924
C11   C     C_R   0.134491 0.538695 0.600231 0.407724
C12   C     C_R   0.868279 0.524162 0.405084 0.353242
C13   C     C_R   0.027341 0.518604 0.589325 -0.074300
C14   C     C_R   0.973737 0.491912 0.428115 -0.185004
C15   C     C_1   0.499991 0.065425 0.499996 -0.152622
C16   C     C_1   0.499999 0.934571 0.499996 -0.150375
Cu1   Cu    Cu3+1 0.500010 0.500000 0.669080 1.016650
Cu2   Cu    Cu3+1 0.499990 0.500000 0.330920 1.007253
N1    N     N_1   0.499980 0.500000 0.076820 -0.072900
N2    N     N_1   0.500020 0.500000 0.923180 -0.071488
O1    O     O_R   0.500000 0.288400 0.642760 -0.574690
O2    O     O_R   0.500000 0.711600 0.357240 -0.588084
O3    O     O_R   0.500000 0.288400 0.357240 -0.569904
O4    O     O_R   0.500000 0.711600 0.642760 -0.582963
O5    O     O_R   0.349000 0.500000 0.619590 -0.603258
O6    O     O_R   0.651000 0.500000 0.380410 -0.615232
O7    O     O_R   0.348990 0.500000 0.334020 -0.545645
O8    O     O_R   0.651010 0.500000 0.665980 -0.528891
O9    O     O_3   0.839269 0.639361 0.294555 -0.576393
C17   C     C_3   0.779465 0.591906 0.145686 -0.130534
H1    H     H_    0.703149 0.645879 0.139822 0.188022
H2    H     H_    0.768177 0.470740 0.135866 0.172191
H3    H     H_    0.814646 0.633532 0.032568 0.184353
O10   O     O_3   0.180729 0.635032 0.722829 -0.565316
C18   C     C_3   0.226192 0.560596 0.869870 -0.017922
H4    H     H_    0.307644 0.594067 0.893183 0.162772
H5    H     H_    0.221617 0.438236 0.861978 0.148187
H6    H     H_    0.191497 0.599851 0.985083 0.208839
O11   O     O_3   0.816092 0.414711 0.836722 -0.744076
H7    H     H_    0.866470 0.352365 0.905082 0.368040
O12   O     O_3   0.188772 0.357537 0.195409 -0.721914
H8    H     H_    0.141570 0.315224 0.101875 0.381390
O13   O     O_3   0.973978 0.345491 0.169464 -0.753249
H9    H     H_    0.906753 0.314757 0.205886 0.316854
O14   O     O_3   0.020160 0.529665 0.895399 -0.720677
H10   H     H_    0.969346 0.563530 0.972100 0.359753

loop_
_geom_bond_atom_site_label_1
_geom_bond_atom_site_label_2
_ccdc_geom_bond_type
C2    O2    A    
C4    O6    A    
O13   H9    S    
C1    O1    A    
C8    C13   A    
C1    C15   S    
C7    O13   S    
C12   O9    S    
C7    C14   A    
C2    C16   S    
O12   H8    S    
N1    N2    T    
C9    O12   S    
C18   H4    S    
Cu2   O6    S    
C3    C6    S    
Cu1   O5    S    
C18   H6    S    
C6    C9    A    
C3    O7    A    
Cu1   Cu2   S    
C5    C10   A    
O14   H10   S    
C17   H2    S    
C11   C13   A    
O9    C17   S    
C4    O8    A    
C12   C14   A    
C1    O3    A    
C6    C11   A    
C2    O4    A    
C17   H1    S    
O10   C18   S    
C13   C14   A    
Cu1   O4    S    
C15   C16   T    
C3    O5    A    
Cu1   N2    S    
C5    C12   A    
C8    C10   A    
Cu2   N1    S    
O11   H7    S    
C7    C9    A    
C8    O14   S    
C4    C5    S    
C17   H3    S    
C18   H5    S    
Cu2   O2    S    
Cu1   O8    S    
C11   O10   S    
Cu1   O1    S    
Cu2   O7    S    
Cu2   O3    S    
C10   O11   S    
