data_mof_unit_45988.cif
_audit_creation_date              2012-12-10T18:21:18-0500
_audit_creation_method            fapswitch 2.2
_symmetry_space_group_name_H-M    P1
_symmetry_Int_Tables_number       1
_space_group_crystal_system       triclinic
_cell_length_a                    14.95752
_cell_length_b                    14.099242
_cell_length_c                    10.626264
_cell_angle_alpha                 90.169095
_cell_angle_beta                  89.991804
_cell_angle_gamma                 90.138348
_cell_volume                      2240.9532525

loop_
_atom_site_label
_atom_site_type_symbol
_atom_type_description
_atom_site_fract_x
_atom_site_fract_y
_atom_site_fract_z
_atom_type_partial_charge
C1    C     C_R   0.326818 0.499888 0.499844 0.887016
C2    C     C_3   0.586833 0.541968 0.928086 -0.418997
C3    C     C_R   0.814794 0.574138 0.435319 0.560488
C4    C     C_R   0.768973 0.500016 0.494665 -0.242447
C5    C     C_R   0.814377 0.424770 0.550572 -0.346441
C6    C     C_R   0.906710 0.423277 0.549464 0.111416
C7    C     C_R   0.953596 0.499027 0.493130 -0.015306
C8    C     C_R   0.907513 0.574868 0.435926 -0.025273
C9    C     C_R   0.952749 0.347724 0.604556 -0.188501
C10   C     C_R   0.045614 0.347195 0.604461 -0.190542
C11   C     C_R   0.092651 0.422541 0.550026 0.114433
C12   C     C_R   0.498893 0.499718 0.257677 0.827283
C13   C     C_R   0.046629 0.498962 0.494247 0.091757
C14   C     C_R   0.093707 0.575455 0.439987 0.121761
C15   C     C_R   0.047784 0.650409 0.383518 -0.214361
C16   C     C_R   0.954947 0.649943 0.380943 -0.157695
C17   C     C_R   0.185134 0.423134 0.550747 -0.247260
C18   C     C_R   0.231175 0.499593 0.498174 -0.080570
C19   C     C_R   0.186149 0.575526 0.443208 -0.244493
C20   C     C_R   0.578684 0.799825 0.513755 0.557616
C21   C     C_R   0.578240 0.200723 0.481399 0.527965
C22   C     C_R   0.420567 0.798150 0.494294 -0.092300
C23   C     C_R   0.420853 0.201502 0.511093 -0.086373
C24   C     C_R   0.417890 0.898721 0.499009 -0.210678
C25   C     C_R   0.418025 0.100951 0.506455 -0.212021
C26   C     C_R   0.673216 0.500106 0.498276 0.924392
C27   C     C_R   0.498816 0.949649 0.500025 -0.033236
C28   C     C_R   0.498838 0.050458 0.499933 -0.028733
C29   C     C_R   0.580037 0.899884 0.502895 -0.029604
C30   C     C_R   0.579925 0.100644 0.491706 -0.018454
C31   C     C_R   0.336870 0.949631 0.502528 0.553970
C32   C     C_R   0.336973 0.049642 0.508363 0.552197
C33   C     C_R   0.660765 0.049918 0.491067 -0.209352
C34   C     C_R   0.660849 0.950993 0.498096 -0.186441
C35   C     C_R   0.498949 0.499905 0.742313 0.816614
C36   C     C_3   0.418924 0.559570 0.072502 -0.399286
C37   C     C_3   0.487080 0.396166 0.070887 -0.397409
C38   C     C_3   0.418379 0.558878 0.927992 -0.394066
C39   C     C_3   0.488200 0.396111 0.928050 -0.382631
C40   C     C_3   0.587399 0.540682 0.072413 -0.379277
C41   C     C_3   0.498044 0.499050 0.121270 0.168785
C42   C     C_3   0.498056 0.499272 0.878726 0.179405
H1    H     H_    0.424990 0.634065 0.106534 0.188450
H2    H     H_    0.542482 0.350684 0.104827 0.171270
H3    H     H_    0.080605 0.288345 0.647374 0.171930
H4    H     H_    0.221300 0.365000 0.593749 0.165419
H5    H     H_    0.223110 0.633838 0.401518 0.164705
H6    H     H_    0.083641 0.709207 0.341438 0.173143
H7    H     H_    0.920533 0.708646 0.336875 0.205077
H8    H     H_    0.358831 0.758375 0.489094 0.206545
H9    H     H_    0.359395 0.241040 0.520504 0.204663
H10   H     H_    0.724384 0.086629 0.486918 0.176750
H11   H     H_    0.724527 0.914577 0.498304 0.186848
H12   H     H_    0.354445 0.530788 0.108461 0.161279
H13   H     H_    0.423086 0.364788 0.104841 0.182851
H14   H     H_    0.354151 0.528520 0.893238 0.162756
H15   H     H_    0.425140 0.363539 0.892382 0.179406
H16   H     H_    0.422946 0.633134 0.893178 0.185766
H17   H     H_    0.544958 0.351572 0.894667 0.182563
H18   H     H_    0.597339 0.614179 0.108493 0.198162
H19   H     H_    0.644515 0.497161 0.106316 0.172154
H20   H     H_    0.594118 0.616304 0.895172 0.173527
H21   H     H_    0.644828 0.500935 0.891401 0.164949
H22   H     H_    0.777726 0.367769 0.595812 0.210520
H23   H     H_    0.916964 0.289294 0.647638 0.153718
N1    N     N_R   0.500070 0.750030 0.500050 -0.158170
N2    N     N_R   0.500070 0.249970 0.500050 -0.152660
O1    O     O_R   0.367860 0.580280 0.500020 -0.637039
O2    O     O_R   0.367860 0.419720 0.500020 -0.634506
O3    O     O_R   0.500000 0.580270 0.314790 -0.612970
O4    O     O_R   0.500000 0.419730 0.314790 -0.634854
O5    O     O_R   0.632160 0.580270 0.499960 -0.514773
O6    O     O_R   0.632160 0.419730 0.499960 -0.576995
O7    O     O_R   0.500030 0.580270 0.685200 -0.639189
O8    O     O_R   0.500030 0.419730 0.685200 -0.627569
Zn1   Zn    Zn3+2 0.500020 0.607200 0.499990 0.986111
Zn2   Zn    Zn3+2 0.500020 0.392800 0.499990 0.959751
O9    O     O_3   0.656737 0.752613 0.542306 -0.573012
C43   C     C_3   0.671521 0.759645 0.673648 0.073688
H24   H     H_    0.613945 0.729683 0.726959 0.132286
H25   H     H_    0.681058 0.835005 0.702454 0.126398
C44   C     C_3   0.755765 0.704380 0.708604 -0.294666
H26   H     H_    0.742586 0.627234 0.698680 0.210409
H27   H     H_    0.811164 0.724182 0.643979 0.245648
C45   C     C_3   0.784849 0.724668 0.843727 -0.962284
H28   H     H_    0.802769 0.800729 0.854885 0.272629
H29   H     H_    0.844371 0.681124 0.866744 0.274903
H30   H     H_    0.730500 0.706735 0.910720 0.263895
O10   O     O_3   0.655041 0.248585 0.447001 -0.634281
C46   C     C_3   0.664792 0.241468 0.314721 0.079467
H31   H     H_    0.602098 0.262006 0.265512 0.136952
H32   H     H_    0.682072 0.167506 0.287314 0.135128
C47   C     C_3   0.739890 0.307275 0.270753 -0.295724
H33   H     H_    0.719992 0.382112 0.286478 0.222317
H34   H     H_    0.801522 0.292796 0.325818 0.238747
C48   C     C_3   0.759976 0.293785 0.131032 -0.988778
H35   H     H_    0.782348 0.220016 0.112320 0.274156
H36   H     H_    0.814047 0.343311 0.102363 0.274578
H37   H     H_    0.699691 0.308970 0.073651 0.256713
F1    F     F_    0.257487 0.902708 0.502310 -0.640246
F2    F     F_    0.257691 0.096177 0.513919 -0.641685
F3    F     F_    0.769339 0.644288 0.375541 -0.650179

loop_
_geom_bond_atom_site_label_1
_geom_bond_atom_site_label_2
_ccdc_geom_bond_type
C35   O7    A    
C47   H33   S    
C40   H18   S    
C27   C29   A    
C26   O5    A    
O2    Zn2   S    
N2    Zn2   S    
C24   C27   A    
O5    Zn1   S    
C26   O6    A    
C6    C9    A    
C7    C8    A    
C21   O10   S    
C45   H28   S    
C25   C28   A    
C35   O8    A    
C1    C18   S    
O7    Zn1   S    
C20   N1    A    
C38   C42   S    
C5    C6    A    
C19   H5    S    
C15   C16   A    
C39   H15   S    
C48   H37   S    
C1    O1    A    
C18   C19   A    
C23   N2    A    
C35   C42   S    
C22   N1    A    
C38   H16   S    
C23   H9    S    
C48   H36   S    
C9    C10   A    
C22   H8    S    
C25   C32   A    
C39   H17   S    
C8    C16   A    
C13   C14   A    
C21   N2    A    
C36   C41   S    
C15   H6    S    
C17   C18   A    
C39   C42   S    
C20   C29   A    
C45   H29   S    
C17   H4    S    
C3    C8    A    
C43   H25   S    
O9    C43   S    
C29   C34   A    
C1    O2    A    
C40   H19   S    
C5    H22   S    
C33   H10   S    
C12   C41   S    
C46   H32   S    
C31   C32   A    
N1    Zn1   S    
C48   H35   S    
C10   H3    S    
C33   C34   A    
C31   F1    S    
C16   H7    S    
O8    Zn2   S    
C3    F3    S    
C40   C41   S    
C12   O4    A    
C47   C48   S    
C44   H27   S    
O3    Zn1   S    
C22   C24   A    
C3    C4    A    
O4    Zn2   S    
C2    H21   S    
C46   C47   S    
C45   H30   S    
C12   O3    A    
C11   C17   A    
C30   C33   A    
C14   C15   A    
C14   C19   A    
C4    C5    A    
C43   C44   S    
C4    C26   S    
C6    C7    A    
O1    Zn1   S    
C44   C45   S    
C21   C30   A    
C20   O9    S    
C37   H2    S    
C36   C38   S    
C24   C31   A    
C37   C39   S    
C11   C13   A    
C46   H31   S    
C2    C42   S    
C28   C30   A    
C23   C25   A    
C37   C41   S    
C9    H23   S    
C36   H12   S    
C10   C11   A    
C43   H24   S    
C37   H13   S    
C2    C40   S    
C7    C13   A    
C38   H14   S    
C34   H11   S    
C47   H34   S    
C44   H26   S    
C27   C28   A    
O6    Zn2   S    
C32   F2    S    
C36   H1    S    
O10   C46   S    
C2    H20   S    
