data_mof_unit_65088.cif
_audit_creation_date              2012-12-10T21:37:19-0500
_audit_creation_method            fapswitch 2.2
_symmetry_space_group_name_H-M    P1
_symmetry_Int_Tables_number       1
_space_group_crystal_system       triclinic
_cell_length_a                    16.218988
_cell_length_b                    15.71444
_cell_length_c                    16.904633
_cell_angle_alpha                 90.933715
_cell_angle_beta                  88.490166
_cell_angle_gamma                 93.177072
_cell_volume                      4299.93222736

loop_
_atom_site_label
_atom_site_type_symbol
_atom_type_description
_atom_site_fract_x
_atom_site_fract_y
_atom_site_fract_z
_atom_type_partial_charge
C1    C     C_R   0.510621 0.502560 0.347400 0.879372
C2    C     C_R   0.489435 0.500519 0.652719 0.878632
C3    C     C_R   0.446201 0.533890 0.221884 -0.198932
C4    C     C_R   0.556475 0.513470 0.781299 -0.197906
C5    C     C_R   0.451749 0.548910 0.141634 -0.149700
C6    C     C_R   0.552693 0.526021 0.862201 -0.147933
C7    C     C_R   0.528322 0.544385 0.100914 0.320683
C8    C     C_R   0.475609 0.533263 0.901540 0.319684
C9    C     C_R   0.599195 0.528938 0.142160 -0.176861
C10   C     C_R   0.403154 0.527709 0.858619 -0.171854
C11   C     C_R   0.593704 0.514096 0.222822 -0.204288
C12   C     C_R   0.406971 0.515448 0.777133 -0.203768
C13   C     C_R   0.240120 0.527388 0.550138 -0.108268
C14   C     C_R   0.758928 0.445843 0.475725 -0.112983
C15   C     C_R   0.153154 0.525469 0.552015 0.074111
C16   C     C_R   0.844983 0.442216 0.483342 0.072562
C17   C     C_R   0.108850 0.490253 0.486121 0.192772
C18   C     C_R   0.890428 0.510428 0.520932 0.190287
C19   C     C_R   0.155164 0.452840 0.424524 0.040609
C20   C     C_R   0.846205 0.577555 0.553394 0.041013
C21   C     C_R   0.241498 0.447593 0.430391 0.230831
C22   C     C_R   0.758991 0.573888 0.551610 0.231933
C23   C     C_R   0.499630 0.337829 0.499854 0.918841
C24   C     C_R   0.500376 0.662169 0.500008 0.915608
C25   C     C_3   0.531848 0.972643 0.430297 -0.159838
C26   C     C_3   0.468575 0.027353 0.569403 -0.159943
C27   C     C_3   0.453450 0.023904 0.440495 -0.150513
C28   C     C_3   0.546973 0.976091 0.559206 -0.146822
C29   C     C_1   0.498910 0.248787 0.499729 -0.155693
C30   C     C_1   0.501167 0.751208 0.500041 -0.148599
C31   C     C_3   0.577873 0.033082 0.489560 -0.150183
C32   C     C_3   0.422552 0.966926 0.510140 -0.153194
C33   C     C_3   0.499473 0.082539 0.499757 0.184006
C34   C     C_3   0.500943 0.917463 0.499943 0.183713
C35   C     C_1   0.498887 0.173425 0.499695 -0.050424
C36   C     C_1   0.501364 0.826574 0.500027 -0.049095
C37   C     C_R   0.516853 0.515193 0.262661 -0.037072
C38   C     C_R   0.483810 0.508370 0.738261 -0.042174
N1    N     N_2   0.535530 0.547555 0.017931 -0.197655
N2    N     N_2   0.468024 0.539625 0.984538 -0.194541
N3    N     N_R   0.283080 0.489710 0.490280 -0.135458
N4    N     N_R   0.716920 0.510290 0.509720 -0.135866
N5    N     N_2   0.020750 0.490929 0.475989 -0.090630
N6    N     N_2   0.977446 0.509980 0.535075 -0.081455
O1    O     O_R   0.577460 0.503680 0.387340 -0.624147
O2    O     O_R   0.422540 0.496320 0.612660 -0.632576
O3    O     O_R   0.438150 0.497080 0.381100 -0.601806
O4    O     O_R   0.561850 0.502920 0.618900 -0.601729
O5    O     O_R   0.569640 0.380080 0.503110 -0.623140
O6    O     O_R   0.430360 0.619920 0.496890 -0.617165
O7    O     O_R   0.430330 0.373470 0.496870 -0.583613
O8    O     O_R   0.569670 0.626530 0.503130 -0.585213
Zn1   Zn    Zn3+2 0.593020 0.504410 0.504170 0.987017
Zn2   Zn    Zn3+2 0.406980 0.495590 0.495830 0.987537
H1    H     H_    0.415206 0.045647 0.392015 0.157005
H2    H     H_    0.585219 0.954328 0.607677 0.159330
I1    I     I_    0.092807 0.405465 0.321505 -0.221165
I2    I     I_    0.912928 0.686211 0.602170 -0.210318
I3    I     I_    0.303279 0.363453 0.351611 -0.264424
I4    I     I_    0.695268 0.661405 0.625534 -0.274675
H3    H     H_    0.557749 0.948082 0.373482 0.151145
H4    H     H_    0.442675 0.051904 0.626222 0.151353
H5    H     H_    0.359101 0.937678 0.518558 0.155376
H6    H     H_    0.641322 0.062339 0.481144 0.158107
H7    H     H_    0.616514 0.508115 0.752609 0.187646
H8    H     H_    0.386589 0.537254 0.251866 0.185956
H9    H     H_    0.610097 0.528837 0.893663 0.161876
H10   H     H_    0.395947 0.562275 0.111437 0.161586
H11   H     H_    0.658230 0.525539 0.111100 0.154020
H12   H     H_    0.343672 0.532242 0.888608 0.157275
H13   H     H_    0.649196 0.500967 0.253669 0.174797
H14   H     H_    0.350113 0.512063 0.744738 0.174443
H15   H     H_    0.724731 0.394188 0.446067 0.180293
H16   H     H_    0.273880 0.557268 0.598446 0.176199
I5    I     I_    0.897386 0.327079 0.446445 -0.267797
I6    I     I_    0.101796 0.574549 0.659056 -0.276203

loop_
_geom_bond_atom_site_label_1
_geom_bond_atom_site_label_2
_ccdc_geom_bond_type
C25   C31   S    
C24   O8    A    
C16   I5    S    
C13   N3    A    
C28   H2    S    
C27   C33   S    
C26   C32   S    
O6    Zn2   S    
C23   C29   S    
C19   C21   A    
C9    H11   S    
C21   I3    S    
N4    Zn1   S    
C22   I4    S    
C4    H7    S    
C11   H13   S    
C23   O5    A    
C15   C17   A    
C11   C37   A    
C17   C19   A    
C19   I1    S    
C31   C33   S    
C18   C20   A    
C1    C37   S    
C25   C34   S    
C14   N4    A    
C15   I6    S    
C12   H14   S    
O1    Zn1   S    
C5    H10   S    
C24   O6    A    
O4    Zn1   S    
C14   H15   S    
C4    C6    A    
N1    N2    D    
C5    C7    A    
C1    O3    A    
C6    C8    A    
C2    O4    A    
C2    O2    A    
C32   C34   S    
N5    N6    D    
C17   N5    S    
C18   N6    S    
C2    C38   S    
C26   C33   S    
C23   O7    A    
O2    Zn2   S    
C25   H3    S    
C9    C11   A    
C10   C12   A    
O3    Zn2   S    
C21   N3    A    
C10   H12   S    
C16   C18   A    
C6    H9    S    
C4    C38   A    
C13   C15   A    
C14   C16   A    
C3    H8    S    
C20   I2    S    
O8    Zn1   S    
C7    C9    A    
C27   C32   S    
C31   H6    S    
C28   C31   S    
C32   H5    S    
C20   C22   A    
C3    C5    A    
C25   C27   S    
C29   C35   T    
C27   H1    S    
C26   C28   S    
C30   C36   T    
O7    Zn2   S    
C26   H4    S    
C1    O1    A    
C22   N4    A    
O5    Zn1   S    
C33   C35   S    
C34   C36   S    
C12   C38   A    
C24   C30   S    
N3    Zn2   S    
C28   C34   S    
C13   H16   S    
C3    C37   A    
C8    C10   A    
C7    N1    S    
C8    N2    S    
