data_mof_unit_52893.cif
_audit_creation_date              2012-12-10T18:07:39-0500
_audit_creation_method            fapswitch 2.2
_symmetry_space_group_name_H-M    P1
_symmetry_Int_Tables_number       1
_space_group_crystal_system       triclinic
_cell_length_a                    11.528445
_cell_length_b                    12.702926
_cell_length_c                    12.99386
_cell_angle_alpha                 81.432158
_cell_angle_beta                  92.631833
_cell_angle_gamma                 102.887285
_cell_volume                      1834.0933272

loop_
_atom_site_label
_atom_site_type_symbol
_atom_type_description
_atom_site_fract_x
_atom_site_fract_y
_atom_site_fract_z
_atom_type_partial_charge
Br1   Br    Br    0.124406 0.044224 0.340333 -0.476212
Br2   Br    Br    0.765700 0.722220 0.668598 -0.428805
Br3   Br    Br    0.609591 0.091189 0.715960 -0.480934
Br4   Br    Br    0.359860 0.751157 0.335425 -0.479637
Br5   Br    Br    0.887071 0.627284 0.907681 -0.400898
C1    C     C_R   0.487316 0.438502 0.691685 0.845928
C2    C     C_R   0.719608 0.570464 0.930814 0.280578
C3    C     C_R   0.654061 0.511972 0.856979 -0.188967
C4    C     C_R   0.717787 0.501457 0.500486 0.890667
C5    C     C_R   0.483370 0.547803 0.124484 -0.078546
C6    C     C_R   0.670082 0.652239 0.184418 -0.173812
C7    C     C_R   0.468101 0.398241 0.801872 -0.071248
C8    C     C_R   0.279231 0.081101 0.404147 0.202665
C9    C     C_R   0.653424 0.807979 0.620518 0.375220
C10   C     C_R   0.671649 0.905649 0.660524 -0.248898
C11   C     C_R   0.600569 0.978730 0.629253 0.234711
C12   C     C_R   0.552031 0.597495 0.202329 -0.083597
C13   C     C_R   0.514751 0.957260 0.549783 -0.076050
C14   C     C_R   0.488008 0.850872 0.517981 0.076647
C15   C     C_R   0.453784 0.037234 0.500576 -0.007664
C16   C     C_R   0.516071 0.560998 0.308971 0.845324
C17   C     C_R   0.342538 0.003477 0.451532 0.041363
C18   C     C_R   0.302720 0.894186 0.441694 -0.194632
C19   C     C_R   0.382991 0.826116 0.454292 0.288002
C20   C     C_R   0.502952 0.149919 0.491983 0.013340
C21   C     C_R   0.331092 0.190760 0.401905 -0.029130
C22   C     C_R   0.282192 0.498388 0.499866 0.908064
C23   C     C_R   0.367529 0.316142 0.832053 -0.148276
C24   C     C_1   0.839167 0.503927 0.500915 -0.120909
C25   C     C_1   0.941101 0.502145 0.500508 0.051403
C26   C     C_1   0.058967 0.498094 0.499685 0.045322
C27   C     C_1   0.160843 0.496081 0.499340 -0.136034
C28   C     C_R   0.723666 0.648975 0.091877 -0.118062
C29   C     C_2   0.351523 0.531130 0.130115 0.429617
C30   C     C_R   0.331932 0.295040 0.935373 -0.093587
C31   C     C_R   0.390022 0.362004 0.006296 -0.079271
C32   C     C_R   0.487641 0.448722 0.974891 0.101911
C33   C     C_R   0.536566 0.454350 0.876768 0.013930
C34   C     C_R   0.542418 0.526449 0.039537 0.035611
C35   C     C_R   0.662693 0.583107 0.020158 0.039280
H1    H     H_    0.723135 0.691424 0.244849 0.169446
H2    H     H_    0.282465 0.251827 0.369329 0.166994
H3    H     H_    0.308524 0.519956 0.204743 0.073594
H4    H     H_    0.219311 0.868057 0.401377 0.226575
H5    H     H_    0.590912 0.181694 0.520993 0.179142
H6    H     H_    0.740128 0.923511 0.719291 0.220742
H7    H     H_    0.815064 0.692631 0.080542 0.200778
H8    H     H_    0.314746 0.270863 0.775308 0.169100
H9    H     H_    0.359586 0.343950 0.085777 0.135762
H10   H     H_    0.255932 0.230119 0.959461 0.171329
H11   H     H_    0.697521 0.505473 0.786808 0.193018
N1    N     N_R   0.440320 0.222190 0.444690 -0.135091
N2    N     N_R   0.559060 0.776980 0.554780 -0.137950
O1    O     O_R   0.471500 0.366730 0.627160 -0.589060
O2    O     O_R   0.509620 0.544830 0.662520 -0.579779
O3    O     O_R   0.646490 0.410960 0.482310 -0.608311
O4    O     O_R   0.684610 0.589050 0.517670 -0.568249
O5    O     O_R   0.490380 0.455170 0.337480 -0.626068
O6    O     O_R   0.528500 0.633270 0.372840 -0.556272
O7    O     O_R   0.315390 0.410950 0.482330 -0.626415
O8    O     O_R   0.353510 0.589040 0.517690 -0.578804
O9    O     O_2   0.290347 0.536440 0.051051 -0.509005
Zn1   Zn    Zn3+2 0.474550 0.381080 0.476390 0.971631
Zn2   Zn    Zn3+2 0.525450 0.618920 0.523610 1.032479

loop_
_geom_bond_atom_site_label_1
_geom_bond_atom_site_label_2
_ccdc_geom_bond_type
O8    Zn2   S    
C2    C35   A    
C31   H9    S    
C6    H1    S    
C24   C25   T    
C21   N1    A    
C4    O4    A    
C26   C27   T    
C4    C24   S    
C1    O2    A    
C18   C19   A    
O2    Zn2   S    
C14   N2    A    
C30   H10   S    
C14   C19   A    
O3    Zn1   S    
C16   O5    A    
C32   C34   A    
C4    O3    A    
C7    C33   A    
C3    H11   S    
O6    Zn2   S    
C32   C33   A    
C3    C33   A    
C7    C23   A    
O7    Zn1   S    
Br4   C19   S    
C11   C13   A    
C31   C32   A    
C15   C17   A    
C8    C17   A    
C16   O6    A    
C13   C15   A    
C22   O7    A    
O5    Zn1   S    
C1    C7    S    
C25   C26   S    
C28   H7    S    
N2    Zn2   S    
C12   C16   S    
C8    C21   A    
C20   N1    A    
C28   C35   A    
C2    C3    A    
O1    Zn1   S    
C29   H3    S    
C5    C12   A    
C10   C11   A    
C29   O9    D    
C20   H5    S    
C6    C28   A    
C9    N2    A    
Br1   C8    S    
C21   H2    S    
O4    Zn2   S    
C5    C29   S    
C13   C14   A    
C15   C20   A    
Br2   C9    S    
C34   C35   A    
Br5   C2    S    
C9    C10   A    
C23   H8    S    
C22   O8    A    
C10   H6    S    
C22   C27   S    
C17   C18   A    
C1    O1    A    
C6    C12   A    
Br3   C11   S    
C30   C31   A    
C23   C30   A    
C5    C34   A    
C18   H4    S    
N1    Zn1   S    
