data_mof_unit_61077.cif
_audit_creation_date              2012-12-10T16:58:13-0500
_audit_creation_method            fapswitch 2.2
_symmetry_space_group_name_H-M    P1
_symmetry_Int_Tables_number       1
_space_group_crystal_system       triclinic
_cell_length_a                    21.706757
_cell_length_b                    21.751038
_cell_length_c                    22.087093
_cell_angle_alpha                 61.320695
_cell_angle_beta                  119.415272
_cell_angle_gamma                 89.376888
_cell_volume                      7543.27480409

loop_
_atom_site_label
_atom_site_type_symbol
_atom_type_description
_atom_site_fract_x
_atom_site_fract_y
_atom_site_fract_z
_atom_type_partial_charge
C1    C     C_R   0.624211 0.494117 0.510829 0.805196
C2    C     C_3   0.294120 0.708240 0.082673 0.141643
C3    C     C_3   0.207256 0.714648 0.971488 -0.161594
C4    C     C_3   0.210478 0.791078 0.917517 0.103835
C5    C     C_3   0.208109 0.737493 0.028509 -0.108000
C6    C     C_3   0.211381 0.813731 0.973646 0.029484
C7    C     C_1   0.340522 0.662036 0.174460 -0.026763
C8    C     C_1   0.163954 0.837075 0.825656 -0.048026
C9    C     C_R   0.720794 0.358857 0.547652 0.359074
C10   C     C_R   0.736369 0.318620 0.519018 -0.065841
C11   C     C_R   0.772338 0.343371 0.477888 -0.162232
C12   C     C_R   0.422270 0.579804 0.339829 0.861642
C13   C     C_R   0.797800 0.403112 0.470938 -0.229743
C14   C     C_R   0.780829 0.444679 0.496783 0.067527
C15   C     C_R   0.732045 0.429387 0.523215 0.006068
C16   C     C_R   0.700472 0.483755 0.527943 -0.162598
C17   C     C_R   0.738976 0.533911 0.538624 -0.004839
C18   C     C_R   0.797129 0.538708 0.527519 -0.084602
C19   C     C_R   0.814700 0.498427 0.501430 -0.055061
C20   C     C_3   0.708177 0.257656 0.028219 -0.163929
C21   C     C_3   0.721686 0.325258 0.971477 -0.271544
C22   C     C_1   0.624702 0.376022 0.750037 -0.058277
C23   C     C_R   0.378845 0.502482 0.495483 0.828848
C24   C     C_1   0.875331 0.131000 0.250141 -0.056472
C25   C     C_3   0.695663 0.228020 0.973511 0.354512
C26   C     C_3   0.708472 0.294786 0.917283 -0.036850
C27   C     C_3   0.779443 0.183278 0.029489 -0.273643
C28   C     C_3   0.792184 0.214385 0.082985 0.031994
C29   C     C_3   0.791917 0.251273 0.973150 0.454184
C30   C     C_3   0.806519 0.281361 0.027932 -0.183741
C31   C     C_1   0.662386 0.339290 0.825462 0.114402
C32   C     C_1   0.837947 0.169335 0.174708 0.048042
C33   C     C_R   0.242790 0.640618 0.371427 0.022513
C34   C     C_R   0.579912 0.420153 0.660247 0.831159
C35   C     C_R   0.193481 0.707893 0.336967 -0.295551
C36   C     C_R   0.142844 0.709175 0.358174 0.017970
C37   C     C_R   0.139206 0.642098 0.411012 -0.077182
C38   C     C_R   0.190625 0.573819 0.449323 0.042586
C39   C     C_R   0.248536 0.573531 0.436794 0.087187
C40   C     C_R   0.308324 0.505941 0.489008 -0.064983
C41   C     C_R   0.304056 0.439878 0.542833 -0.179563
C42   C     C_R   0.242644 0.439505 0.547148 -0.177575
C43   C     C_R   0.185781 0.505640 0.500368 -0.052695
C44   C     C_R   0.996722 0.884513 0.493301 0.886220
C45   C     C_3   0.296468 0.761653 0.972027 -0.151434
C46   C     C_R   0.080346 0.919825 0.660324 0.799530
C47   C     C_R   0.001192 0.117213 0.503054 0.748701
C48   C     C_R   0.919930 0.083441 0.339954 0.893217
C49   C     C_R   0.000722 0.618616 0.500797 0.836837
C50   C     C_R   0.880879 0.500593 0.499865 0.758376
C51   C     C_R   0.997258 0.381172 0.499747 0.759392
C52   C     C_R   0.119083 0.501587 0.500337 0.813173
C53   C     C_R   0.858169 0.869962 0.371390 0.295747
C54   C     C_R   0.790231 0.853947 0.344417 -0.200404
C55   C     C_R   0.791584 0.781189 0.366135 0.441358
C56   C     C_3   0.297540 0.784664 0.029002 -0.221091
C57   C     C_R   0.860486 0.726181 0.416847 -0.231263
C58   C     C_R   0.928597 0.740412 0.451955 -0.050557
C59   C     C_R   0.926919 0.811280 0.437121 0.013108
C60   C     C_R   0.994381 0.820307 0.487194 -0.107768
C61   C     C_R   0.061855 0.762603 0.541994 -0.241552
C62   C     C_R   0.065256 0.695516 0.549219 0.428021
C63   C     C_R   0.998347 0.684908 0.502149 -0.153885
C64   C     C_R   0.983359 0.127262 0.621996 -0.146858
C65   C     C_R   0.966375 0.135047 0.671648 -0.191058
C66   C     C_R   0.954666 0.202895 0.662783 0.015581
C67   C     C_1   0.378208 0.624274 0.249930 -0.112164
C68   C     C_R   0.962785 0.262497 0.605448 -0.159494
C69   C     C_R   0.981925 0.255269 0.555942 0.048724
C70   C     C_R   0.988609 0.187718 0.561346 0.099254
C71   C     C_R   0.001729 0.182261 0.506944 -0.080711
C72   C     C_R   0.011227 0.241660 0.451316 -0.190819
C73   C     C_R   0.007200 0.306864 0.448013 -0.183476
C74   C     C_R   0.993563 0.314046 0.500253 -0.092547
C75   C     C_1   0.125749 0.874876 0.750182 -0.142913
C76   C     C_3   0.293896 0.684567 0.027189 -0.132326
Cu1   Cu    Cu3+1 0.500040 0.438210 0.499990 1.097236
Cu2   Cu    Cu3+1 0.499960 0.561790 0.500010 1.007894
Cu3   Cu    Cu3+1 0.061810 0.999860 0.500010 1.028327
Cu4   Cu    Cu3+1 0.938190 0.999990 0.499990 1.023932
Cu5   Cu    Cu3+1 0.958570 0.541460 0.417120 1.023051
Cu6   Cu    Cu3+1 0.041430 0.458560 0.582880 1.058150
H1    H     H_    0.334683 0.813266 0.053357 0.158867
H2    H     H_    0.785520 0.313362 0.456067 0.201213
H3    H     H_    0.831070 0.416332 0.445401 0.149347
H4    H     H_    0.828877 0.574735 0.538492 0.164304
H5    H     H_    0.697663 0.383733 0.947101 0.187542
H6    H     H_    0.673534 0.259488 0.051549 0.184511
H7    H     H_    0.853148 0.302770 0.050981 0.177037
H8    H     H_    0.803299 0.125024 0.053126 0.180791
H9    H     H_    0.348950 0.388152 0.582422 0.174460
H10   H     H_    0.332340 0.771817 0.948046 0.160021
H11   H     H_    0.191225 0.759217 0.289319 0.138576
H12   H     H_    0.097026 0.643800 0.423386 0.186109
H13   H     H_    0.239287 0.387271 0.586940 0.161853
H14   H     H_    0.112402 0.769692 0.581078 0.195309
H15   H     H_    0.860487 0.671071 0.431700 0.173505
H16   H     H_    0.020973 0.237829 0.409401 0.158064
H17   H     H_    0.993230 0.073076 0.632741 0.154020
H18   H     H_    0.961961 0.087846 0.716919 0.152709
H19   H     H_    0.952519 0.314680 0.598968 0.184358
H20   H     H_    0.016209 0.351574 0.405459 0.161153
H21   H     H_    0.172267 0.727407 0.052540 0.172629
H22   H     H_    0.169911 0.686225 0.947044 0.159926
H23   H     H_    0.328553 0.630602 0.050332 0.152398
O1    O     O_R   0.590210 0.447820 0.500000 -0.548327
O2    O     O_R   0.947780 0.909820 0.499990 -0.591294
O3    O     O_R   0.112650 0.939420 0.620930 -0.576017
O4    O     O_R   0.008260 0.939530 0.620910 -0.582759
O5    O     O_R   0.052220 0.090030 0.500010 -0.586675
O6    O     O_R   0.947830 0.090140 0.500000 -0.588286
O7    O     O_R   0.991740 0.060320 0.379090 -0.571791
O8    O     O_R   0.887350 0.060430 0.379070 -0.545463
O9    O     O_R   0.964960 0.625150 0.430050 -0.576588
O10   O     O_R   0.034940 0.555150 0.570020 -0.524833
O11   O     O_R   0.874830 0.535020 0.430000 -0.569146
O12   O     O_R   0.590150 0.552170 0.500020 -0.603165
O13   O     O_R   0.944810 0.465010 0.569970 -0.575152
O14   O     O_R   0.965060 0.444870 0.429980 -0.585666
O15   O     O_R   0.035040 0.374860 0.569950 -0.586328
O16   O     O_R   0.055190 0.535000 0.430030 -0.598090
O17   O     O_R   0.125170 0.465000 0.570000 -0.549114
O18   O     O_R   0.439580 0.508290 0.379070 -0.563423
O19   O     O_R   0.439510 0.612640 0.379090 -0.592794
O20   O     O_R   0.409850 0.447830 0.499980 -0.569704
O21   O     O_R   0.409790 0.552180 0.500000 -0.596788
O22   O     O_R   0.560490 0.387360 0.620910 -0.505693
O23   O     O_R   0.560420 0.491710 0.620930 -0.601761
O24   O     O_R   0.052170 0.909710 0.500000 -0.560691
S1    S     S_3+6 0.847416 0.247000 0.936100 0.046977
O25   O     O_2   0.816828 0.213318 0.886226 -0.243969
O26   O     O_2   0.845348 0.323842 0.881640 -0.258225
O27   O     O_3   0.935886 0.194566 0.018282 -0.515970
H24   H     H_    0.963234 0.193921 0.993430 0.386818
S2    S     S_3+6 0.621981 0.192064 0.937939 0.056841
O28   O     O_2   0.548304 0.252327 0.881391 -0.241503
O29   O     O_2   0.629452 0.164502 0.890395 -0.240982
O30   O     O_3   0.625706 0.122153 0.020306 -0.448028
H25   H     H_    0.677067 0.087045 0.057441 0.358999
C77   C     C_2   0.273752 0.641741 0.324844 0.353993
H26   H     H_    0.289732 0.688818 0.295660 0.081228
O31   O     O_2   0.275730 0.592717 0.312852 -0.561985
C78   C     C_2   0.091094 0.780890 0.320705 0.427472
H27   H     H_    0.093129 0.832193 0.277487 0.082790
O32   O     O_2   0.045924 0.783718 0.337799 -0.502927
S3    S     S_3+6 0.855846 0.952742 0.293581 -0.001105
O33   O     O_2   0.806272 0.017914 0.273251 -0.351438
O34   O     O_2   0.932312 0.959230 0.319071 -0.302612
O35   O     O_3   0.817994 0.951841 0.206968 -0.474612
H28   H     H_    0.816583 0.999314 0.164920 0.364695
C79   C     C_2   0.719434 0.915207 0.292602 0.595118
H29   H     H_    0.718319 0.956436 0.306690 0.073154
O36   O     O_2   0.663057 0.922295 0.232524 -0.427359
S4    S     S_3+6 0.708731 0.757878 0.326885 0.057480
O37   O     O_2   0.726434 0.676290 0.363651 -0.317346
O38   O     O_2   0.660048 0.780349 0.347908 -0.247055
O39   O     O_3   0.662533 0.802912 0.222367 -0.446649
H30   H     H_    0.615213 0.791135 0.204182 0.378106
C80   C     C_2   0.165603 0.886952 0.942453 0.364466
H31   H     H_    0.171984 0.937501 0.903753 0.069793
O40   O     O_2   0.121081 0.890146 0.960178 -0.522346
S5    S     S_3+6 0.153863 0.625367 0.621902 0.019316
O41   O     O_2   0.167884 0.592817 0.581647 -0.328530
O42   O     O_2   0.215199 0.656280 0.652983 -0.273018
O43   O     O_3   0.154709 0.558413 0.703710 -0.507095
H32   H     H_    0.202812 0.518718 0.738571 0.380375
C81   C     C_2   0.934564 0.210496 0.714414 0.449687
H33   H     H_    0.929820 0.163213 0.759426 0.105774
O44   O     O_2   0.922905 0.269393 0.707353 -0.493119
C82   C     C_2   0.724120 0.577336 0.568034 0.469304
H34   H     H_    0.698739 0.559108 0.602730 0.087498
O45   O     O_2   0.741704 0.633250 0.555495 -0.505054
S6    S     S_3+6 0.714913 0.309267 0.635612 0.029289
O46   O     O_2   0.725918 0.349846 0.677425 -0.264160
O47   O     O_2   0.640324 0.297066 0.608150 -0.304326
O48   O     O_3   0.782078 0.226220 0.705440 -0.527999
H35   H     H_    0.771351 0.198675 0.748193 0.404667
C83   C     C_2   0.717630 0.249435 0.533763 0.433731
H36   H     H_    0.683193 0.232740 0.557454 0.137053
O49   O     O_2   0.740186 0.210095 0.519038 -0.538438

loop_
_geom_bond_atom_site_label_1
_geom_bond_atom_site_label_2
_ccdc_geom_bond_type
C3    H22   S    
C55   S4    S    
C66   C68   A    
C21   C26   S    
C5    H21   S    
C76   H23   S    
C49   C63   S    
S2    O30   S    
C41   C42   A    
C35   C36   A    
C51   C74   S    
Cu6   O15   S    
C4    C8    S    
Cu2   O23   S    
C21   H5    S    
C83   H36   S    
C53   C59   A    
C61   H14   S    
Cu1   O20   S    
S2    O28   D    
C81   O44   D    
C72   H16   S    
Cu1   Cu2   S    
C64   H17   S    
Cu4   O2    S    
O43   H32   S    
C66   C81   S    
C45   C76   S    
Cu1   O1    S    
C36   C78   S    
C77   O31   D    
Cu6   O10   S    
S5    O41   D    
C5    C6    S    
C43   C52   S    
S6    O48   S    
C27   C29   S    
C20   C25   S    
C33   C77   S    
C78   H27   S    
S3    O35   S    
Cu5   O11   S    
C27   H8    S    
C78   O32   D    
C18   C19   A    
C73   C74   A    
C45   H10   S    
C52   O17   A    
O39   H30   S    
C2    C7    S    
C45   C56   S    
C34   O22   A    
C46   O3    A    
Cu4   O4    S    
C37   H12   S    
C36   C37   A    
C51   O14   A    
C79   H29   S    
C80   O40   D    
C9    S6    S    
C70   C71   A    
C64   C70   A    
Cu2   O19   S    
C9    C10   A    
S3    O34   D    
Cu1   O22   S    
C1    O1    A    
C23   O20   A    
C35   H11   S    
C49   O9    A    
C59   C60   A    
C13   C14   A    
C61   C62   A    
C37   C38   A    
C30   H7    S    
C46   C75   S    
C51   O15   A    
Cu5   Cu6   S    
S5    O42   D    
C4    C45   S    
S6    O47   D    
C38   C39   A    
C22   C34   S    
C12   C67   S    
C22   C31   T    
C42   H13   S    
C10   C83   S    
C28   C32   S    
Cu2   O12   S    
C77   H26   S    
S4    O39   S    
C4    C6    S    
C10   C11   A    
C81   H33   S    
C18   H4    S    
C17   C82   S    
C68   C69   A    
C1    O12   A    
C20   C28   S    
C26   C31   S    
C25   C26   S    
S6    O46   D    
C8    C75   T    
C6    C80   S    
Cu5   O16   S    
C60   C61   A    
C24   C48   S    
Cu5   O9    S    
S1    O26   D    
C24   C32   T    
C29   C30   S    
Cu1   O18   S    
S5    O43   S    
C52   O16   A    
C80   H31   S    
C12   O19   A    
C57   H15   S    
C20   C21   S    
C62   C63   A    
C14   C15   A    
C17   C18   A    
C69   C74   A    
C1    C16   S    
C33   C39   A    
C68   H19   S    
C3    C76   S    
C47   C71   S    
S4    O37   D    
C23   O21   A    
Cu3   O7    S    
C40   C41   A    
C49   O10   A    
C55   C57   A    
O27   H24   S    
C58   C59   A    
C2    C5    S    
C42   C43   A    
Cu6   O13   S    
C3    C4    S    
Cu2   O21   S    
C39   C40   A    
C2    C76   S    
C56   H1    S    
S3    O33   D    
C44   O2    A    
C58   C63   A    
S2    O29   D    
C54   C55   A    
O48   H35   S    
Cu3   O5    S    
C41   H9    S    
C50   O13   A    
S4    O38   D    
C14   C19   A    
C65   H18   S    
C6    C56   S    
C72   C73   A    
C3    C5    S    
C83   O49   D    
C53   C54   A    
C54   C79   S    
C11   H2    S    
C25   C27   S    
C47   O5    A    
C21   C30   S    
Cu5   O14   S    
C64   C65   A    
C28   C30   S    
S1    O25   D    
C44   O24   A    
C38   C43   A    
C2    C56   S    
O35   H28   S    
C11   C13   A    
C19   C50   S    
C57   C58   A    
C62   S5    S    
C12   O18   A    
C82   O45   D    
C44   C60   S    
C47   O6    A    
C15   C16   A    
C20   H6    S    
Cu4   O6    S    
C53   S3    S    
C33   C35   A    
Cu3   O3    S    
C50   O11   A    
C79   O36   D    
C9    C15   A    
C69   C70   A    
C25   S2    S    
O30   H25   S    
C7    C67   T    
Cu3   Cu4   S    
S1    O27   S    
C29   S1    S    
C71   C72   A    
Cu4   O8    S    
C26   C29   S    
C34   O23   A    
C65   C66   A    
C82   H34   S    
C46   O4    A    
C13   H3    S    
C27   C28   S    
C48   O7    A    
Cu6   O17   S    
C73   H20   S    
C23   C40   S    
C16   C17   A    
C48   O8    A    
Cu3   O24   S    
