data_mof_unit_12503.cif
_audit_creation_date              2012-12-10T17:33:43-0500
_audit_creation_method            fapswitch 2.2
_symmetry_space_group_name_H-M    P1
_symmetry_Int_Tables_number       1
_space_group_crystal_system       triclinic
_cell_length_a                    11.698794
_cell_length_b                    12.357359
_cell_length_c                    13.181355
_cell_angle_alpha                 116.57893
_cell_angle_beta                  77.71097
_cell_angle_gamma                 101.325613
_cell_volume                      1653.9513755

loop_
_atom_site_label
_atom_site_type_symbol
_atom_type_description
_atom_site_fract_x
_atom_site_fract_y
_atom_site_fract_z
_atom_type_partial_charge
C1    C     C_R   0.506314 0.854846 0.286847 0.790017
C2    C     C_R   0.460313 0.227704 0.835087 -0.047649
C3    C     C_R   0.552406 0.817454 0.082133 -0.157720
C4    C     C_R   0.567122 0.739668 0.966397 -0.147275
C5    C     C_R   0.536529 0.615012 0.930606 -0.182219
C6    C     C_R   0.484195 0.565735 0.010486 0.080837
C7    C     C_R   0.456103 0.647265 0.127070 0.079827
C8    C     C_R   0.456280 0.438299 0.977935 0.072547
C9    C     C_R   0.388902 0.395087 0.058279 0.164130
C10   C     C_R   0.348805 0.477570 0.168211 -0.236524
C11   C     C_R   0.380306 0.601646 0.201665 -0.196265
C12   C     C_R   0.715760 0.999708 0.499688 0.829494
C13   C     C_R   0.494625 0.352238 0.868029 -0.249700
C14   C     C_R   0.394480 0.186238 0.915381 -0.191560
C15   C     C_R   0.502146 0.772401 0.164304 -0.115821
C16   C     C_R   0.690835 0.353584 0.335451 -0.324360
C17   C     C_R   0.342281 0.759934 0.645607 0.077809
C18   C     C_R   0.306326 0.663317 0.676802 -0.249639
C19   C     C_R   0.364402 0.559167 0.621198 -0.190246
C20   C     C_R   0.459943 0.550749 0.533499 -0.001981
C21   C     C_R   0.493870 0.652731 0.504894 0.282477
C22   C     C_R   0.524375 0.446540 0.474383 -0.031647
C23   C     C_R   0.483225 0.145058 0.713494 0.793390
C24   C     C_R   0.621903 0.449160 0.390648 0.155521
C25   C     C_R   0.652554 0.548328 0.363404 -0.261348
C26   C     C_R   0.589847 0.647632 0.419063 -0.175173
C27   C     C_R   0.497984 0.339877 0.494804 -0.003713
C28   C     C_R   0.663646 0.253480 0.361117 0.188918
C29   C     C_R   0.284241 0.000176 0.500133 0.806711
C30   C     C_1   0.837514 0.999476 0.499522 -0.157849
C31   C     C_1   0.940085 0.999578 0.499462 0.006506
C32   C     C_1   0.059988 0.999878 0.499580 0.002271
C33   C     C_1   0.162524 0.000111 0.499810 -0.177361
C34   C     C_R   0.359770 0.269608 0.026804 -0.184693
Cu1   Cu    Cu3+1 0.526510 0.098270 0.475420 0.970647
Cu2   Cu    Cu3+1 0.473490 0.901730 0.524580 0.924062
H1    H     H_    0.366888 0.090042 0.891255 0.151368
H2    H     H_    0.726971 0.549858 0.298730 0.155906
H3    H     H_    0.767504 0.357773 0.273641 0.145146
H4    H     H_    0.424237 0.329978 0.555981 0.132813
H5    H     H_    0.296435 0.840218 0.689132 0.128392
H6    H     H_    0.333512 0.487283 0.648995 0.139013
H7    H     H_    0.233205 0.669225 0.744345 0.150028
H8    H     H_    0.621209 0.719230 0.392696 0.208159
H9    H     H_    0.292587 0.446105 0.228803 0.152672
H10   H     H_    0.307785 0.236171 0.087682 0.139687
H11   H     H_    0.551604 0.379819 0.805888 0.154094
H12   H     H_    0.581434 0.913182 0.106967 0.208125
H13   H     H_    0.550879 0.560332 0.839417 0.133175
H14   H     H_    0.605351 0.775955 0.903983 0.152377
H15   H     H_    0.339962 0.660617 0.285305 0.182267
N1    N     N_R   0.566700 0.246290 0.438210 -0.221638
N2    N     N_R   0.434010 0.754320 0.561170 -0.208488
O1    O     O_R   0.533340 0.972510 0.318140 -0.551558
O2    O     O_R   0.488570 0.806530 0.359650 -0.613529
O3    O     O_R   0.685190 0.083000 0.479260 -0.551095
O4    O     O_R   0.640410 0.917020 0.520770 -0.597195
O5    O     O_R   0.511430 0.193470 0.640350 -0.589137
O6    O     O_R   0.466660 0.027490 0.681860 -0.588223
O7    O     O_R   0.359590 0.082980 0.479230 -0.579198
O8    O     O_R   0.314810 0.917000 0.520740 -0.586926
C35   C     C_2   0.747089 0.161972 0.307932 0.879522
O9    O     O_2   0.727948 0.069641 0.221923 -0.630931
O10   O     O_R   0.853196 0.186499 0.351024 -0.763000
H16   H     H_    0.905002 0.118356 0.306249 0.325755

loop_
_geom_bond_atom_site_label_1
_geom_bond_atom_site_label_2
_ccdc_geom_bond_type
C16   C28   A    
C23   O5    A    
C21   N2    A    
C1    O1    A    
C29   O7    A    
C14   C34   A    
C6    C7    A    
C34   H10   S    
C17   N2    A    
C25   H2    S    
C9    C10   A    
C35   O10   S    
C19   C20   A    
C19   H6    S    
C27   H4    S    
C21   C26   A    
Cu2   O6    S    
C32   C33   T    
C10   H9    S    
C7    C15   A    
C17   C18   A    
C1    O2    A    
C26   H8    S    
C16   C24   A    
Cu2   O2    S    
C18   H7    S    
C20   C21   A    
Cu1   O1    S    
C7    C11   A    
C4    C5    A    
C28   N1    A    
C30   C31   T    
C5    H13   S    
C12   O3    A    
Cu1   O5    S    
C1    C15   S    
C12   O4    A    
O10   H16   S    
C20   C22   A    
C9    C34   A    
Cu2   O4    S    
C22   C24   A    
C22   C27   A    
C5    C6    A    
C2    C14   A    
C29   O8    A    
Cu1   O3    S    
C17   H5    S    
C11   H15   S    
C10   C11   A    
C16   H3    S    
Cu2   O8    S    
C8    C13   A    
C29   C33   S    
C3    H12   S    
Cu1   N1    S    
C3    C15   A    
C24   C25   A    
C27   N1    A    
C18   C19   A    
C2    C23   S    
C13   H11   S    
C2    C13   A    
C8    C9    A    
C6    C8    A    
Cu2   N2    S    
C23   O6    A    
C12   C30   S    
C25   C26   A    
C31   C32   S    
C35   O9    D    
C3    C4    A    
C4    H14   S    
Cu1   O7    S    
C14   H1    S    
Cu1   Cu2   S    
C28   C35   S    
