data_mof_unit_45957.cif
_audit_creation_date              2013-03-05T16:23:27-0500
_audit_creation_method            fapswitch 2.2
_symmetry_space_group_name_H-M    P1
_symmetry_Int_Tables_number       1
_space_group_crystal_system       triclinic
_cell_length_a                    15.09892
_cell_length_b                    14.098209
_cell_length_c                    10.66893
_cell_angle_alpha                 89.780194
_cell_angle_beta                  94.214102
_cell_angle_gamma                 89.792805
_cell_volume                      2264.89692065

loop_
_atom_site_label
_atom_site_type_symbol
_atom_site_description
_atom_site_fract_x
_atom_site_fract_y
_atom_site_fract_z
_atom_type_partial_charge
O1    O     O_R   0.371460 0.581430 0.500010 -0.572214
O2    O     O_R   0.628540 0.418570 0.499990 -0.569649
O3    O     O_R   0.628540 0.581430 0.499990 -0.601999
O4    O     O_R   0.371460 0.418570 0.500010 -0.602582
C1    C     C_R   0.330151 0.500093 0.500310 0.798113
C2    C     C_R   0.669693 0.499844 0.498712 0.795783
O5    O     O_R   0.499980 0.581420 0.316850 -0.589024
O6    O     O_R   0.500020 0.418580 0.683150 -0.616693
O7    O     O_R   0.500020 0.581420 0.683150 -0.544534
O8    O     O_R   0.499980 0.418580 0.316850 -0.579740
C3    C     C_R   0.500645 0.500088 0.259991 0.843396
C4    C     C_R   0.499576 0.499689 0.740121 0.850215
Cu1   Cu    Cu3+1 0.500000 0.596430 0.500000 0.965021
Cu2   Cu    Cu3+1 0.500000 0.403570 0.500000 0.954947
C5    C     C_3   0.505317 0.589944 0.041427 -0.256367
C6    C     C_3   0.494820 0.408615 0.958745 -0.249773
C7    C     C_3   0.575263 0.539610 0.964249 -0.305654
C8    C     C_3   0.424929 0.458715 0.036354 -0.298359
C9    C     C_3   0.430773 0.547507 0.953390 0.431009
C10   C     C_3   0.569256 0.450922 0.046970 0.421841
H1    H     H_    0.509811 0.664518 0.073775 0.163579
H2    H     H_    0.491420 0.334289 0.924996 0.163880
H3    H     H_    0.638864 0.569845 0.937608 0.165594
H4    H     H_    0.362922 0.427015 0.067339 0.164554
C11   C     C_3   0.499139 0.498777 0.876737 -0.113686
C12   C     C_3   0.501123 0.500003 0.123568 -0.118766
C13   C     C_R   0.095631 0.578467 0.540773 -0.163879
C14   C     C_R   0.907399 0.420460 0.540897 -0.151616
C15   C     C_R   0.901759 0.576798 0.444668 -0.157617
C16   C     C_R   0.093240 0.420016 0.452841 -0.152101
H5    H     H_    0.061590 0.639477 0.576076 0.136767
H6    H     H_    0.944561 0.359881 0.579475 0.134433
H7    H     H_    0.934505 0.637092 0.405374 0.132093
H8    H     H_    0.057285 0.358394 0.416672 0.139155
C17   C     C_R   0.187810 0.578536 0.543946 -0.133268
C18   C     C_R   0.815478 0.420834 0.541867 -0.155126
C19   C     C_R   0.809695 0.576794 0.444958 -0.173147
C20   C     C_R   0.185356 0.420413 0.455352 -0.196037
H9    H     H_    0.223150 0.639328 0.583094 0.177420
H10   H     H_    0.783104 0.360550 0.580781 0.152459
H11   H     H_    0.772685 0.636627 0.404202 0.136281
H12   H     H_    0.218991 0.359055 0.421244 0.158585
C21   C     C_R   0.233271 0.499895 0.499905 -0.021185
C22   C     C_R   0.766165 0.499318 0.495301 0.004968
C23   C     C_R   0.047946 0.499265 0.494987 0.098651
C24   C     C_R   0.951013 0.498774 0.493188 0.102374
C25   C     C_R   0.542926 0.106756 0.597643 -0.255689
C26   C     C_R   0.429981 0.895926 0.444056 -0.295980
C27   C     C_R   0.457179 0.107630 0.402249 -0.249359
C28   C     C_R   0.570008 0.895084 0.555990 -0.298929
H13   H     H_    0.573952 0.068931 0.677670 0.149651
H14   H     H_    0.373695 0.935652 0.402588 0.137276
H15   H     H_    0.426506 0.070382 0.322124 0.149454
H16   H     H_    0.626306 0.934169 0.597339 0.136565
C29   C     C_R   0.549355 0.206889 0.592301 0.310816
C30   C     C_R   0.428874 0.795094 0.443397 0.325678
C31   C     C_R   0.450879 0.207832 0.407336 0.341317
C32   C     C_R   0.571102 0.794239 0.556835 0.316507
N1    N     N_R   0.500000 0.258690 0.500000 -0.211879
N2    N     N_R   0.500000 0.741310 0.500000 -0.173703
C33   C     C_R   0.499967 0.055096 0.500030 0.063947
C34   C     C_R   0.499990 0.947393 0.500014 0.090249
N3    N     N_R   0.352679 0.600386 0.903818 0.119011
O9    O     O_R   0.295874 0.631240 0.979994 -0.391902
O10   O     O_R   0.336805 0.613225 0.783637 -0.385081
N4    N     N_R   0.647207 0.397270 0.095305 0.118137
O11   O     O_R   0.697627 0.356970 0.017183 -0.376270
O12   O     O_R   0.668937 0.392282 0.215321 -0.358347
C35   C     C_3   0.612167 0.251666 0.692773 -0.346674
C36   C     C_3   0.705138 0.206973 0.699688 -0.869924
H17   H     H_    0.705222 0.135413 0.743286 0.249944
H18   H     H_    0.729628 0.201460 0.604305 0.256458
H19   H     H_    0.751837 0.251571 0.759046 0.266053
H20   H     H_    0.622554 0.327108 0.677017 0.253479
H21   H     H_    0.584175 0.243505 0.785577 0.197733
C37   C     C_3   0.342278 0.755812 0.381557 -0.381024
C38   C     C_3   0.351191 0.705700 0.256674 -0.664874
H22   H     H_    0.413588 0.726203 0.215242 0.238715
H23   H     H_    0.346755 0.627844 0.268048 0.248391
H24   H     H_    0.295095 0.726615 0.188904 0.248304
H25   H     H_    0.304034 0.716560 0.447555 0.209056
H26   H     H_    0.294213 0.814408 0.358428 0.155910
C39   C     C_3   0.389427 0.254011 0.305327 -0.364401
C40   C     C_3   0.297112 0.208506 0.292210 -0.928588
H27   H     H_    0.298986 0.138814 0.244553 0.256608
H28   H     H_    0.270749 0.198987 0.385930 0.262580
H29   H     H_    0.250765 0.254857 0.233812 0.251369
H30   H     H_    0.377029 0.328757 0.323261 0.249433
H31   H     H_    0.420044 0.248969 0.213968 0.199849
C41   C     C_3   0.657655 0.754058 0.619340 -0.343898
C42   C     C_3   0.648181 0.701887 0.743111 -0.740180
H32   H     H_    0.584729 0.720242 0.783857 0.260518
H33   H     H_    0.654389 0.624495 0.729279 0.242598
H34   H     H_    0.703099 0.721789 0.813065 0.208403
H35   H     H_    0.696701 0.715647 0.553134 0.199991
H36   H     H_    0.705213 0.812242 0.644344 0.154598

loop_
_geom_bond_atom_site_label_1
_geom_bond_atom_site_label_2
_geom_bond_distance
_ccdc_geom_bond_type
O5    Cu1   1.966225 S    
N4    O12   1.299817 A    
N3    O10   1.298836 A    
C30   C37   1.527354 S    
C29   N1    1.393243 A    
C16   C23   1.400596 A    
C17   H9    1.080283 S    
C8    C12   1.542664 S    
C40   H29   1.111032 S    
O3    C2    1.305944 A    
C41   H35   1.096172 S    
Cu1   N2    2.042547 S    
C23   C24   1.462350 S    
O5    C3    1.299621 A    
Cu2   N1    2.042547 S    
C14   C24   1.400699 A    
C28   H16   1.082098 S    
O1    C1    1.307443 A    
C10   N4    1.457623 S    
C40   H28   1.110899 S    
C20   H12   1.079363 S    
C26   H14   1.082162 S    
C35   C36   1.533319 S    
C31   N1    1.393947 A    
C32   N2    1.410897 A    
C15   H7    1.083296 S    
C7    C10   1.534471 S    
C27   C31   1.417035 A    
C16   C20   1.389178 A    
C26   C30   1.421758 A    
C8    C9    1.536890 S    
O7    Cu1   1.964610 S    
C9    N3    1.457676 S    
O6    Cu2   1.966225 S    
C31   C39   1.520209 S    
C36   H17   1.109262 S    
C17   C21   1.402520 A    
O3    Cu1   1.951550 S    
C6    C10   1.535765 S    
C13   C23   1.400760 A    
N4    O11   1.300315 A    
C1    C21   1.462483 S    
C2    C22   1.459738 S    
Cu1   Cu2   2.718982 S    
C19   H11   1.082110 S    
O2    C2    1.305932 A    
O2    Cu2   1.953070 S    
C38   H23   1.106662 S    
C39   H31   1.111457 S    
C27   C33   1.394914 A    
C16   H8    1.083313 S    
C13   H5    1.083335 S    
C28   C32   1.421758 A    
C18   H10   1.078770 S    
C37   C38   1.524899 S    
O8    Cu2   1.964610 S    
C37   H26   1.112567 S    
C42   H32   1.110894 S    
C5    C12   1.542737 S    
C25   H13   1.081068 S    
C3    C12   1.456038 S    
C13   C17   1.389730 A    
C38   H22   1.108494 S    
C30   N2    1.410050 A    
C5    C9    1.536490 S    
C42   H33   1.106147 S    
C26   C34   1.384339 A    
C39   C40   1.533774 S    
C14   H6    1.083310 S    
O6    C4    1.297281 A    
C36   H19   1.110943 S    
C35   H20   1.089855 S    
C7    H3    1.107611 S    
C40   H27   1.109254 S    
C32   C41   1.528772 S    
C29   C35   1.518912 S    
C28   C34   1.384323 A    
C8    H4    1.110383 S    
C18   C22   1.400350 A    
O1    Cu1   1.953072 S    
C25   C29   1.416592 A    
C38   H24   1.110698 S    
C6    C11   1.544656 S    
C5    C7    1.556852 S    
C6    H2    1.109451 S    
O4    C1    1.305806 A    
C37   H25   1.092953 S    
C25   C33   1.394879 A    
C41   H36   1.112410 S    
C4    C11   1.458052 S    
C15   C24   1.401479 A    
C7    C11   1.541235 S    
C19   C22   1.402176 A    
C20   C21   1.401565 A    
C42   H34   1.111604 S    
C41   C42   1.525200 S    
C10   C12   1.525682 S    
C27   H15   1.080759 S    
C35   H21   1.110485 S    
O4    Cu2   1.951551 S    
C33   C34   1.518427 S    
C9    C11   1.526293 S    
O7    C4    1.300953 A    
O8    C3    1.297770 A    
N3    O9    1.299156 A    
C5    H1    1.108569 S    
C14   C18   1.388695 A    
C6    C8    1.557441 S    
C15   C19   1.390308 A    
C36   H18   1.110875 S    
C39   H30   1.089728 S    
