data_mof_unit_10154.cif
_audit_creation_date              2012-12-11T16:27:31-0500
_audit_creation_method            fapswitch 2.2
_symmetry_space_group_name_H-M    P1
_symmetry_Int_Tables_number       1
_space_group_crystal_system       triclinic
_cell_length_a                    21.696349
_cell_length_b                    6.905488
_cell_length_c                    14.713285
_cell_angle_alpha                 90.002749
_cell_angle_beta                  105.25299
_cell_angle_gamma                 90.001916
_cell_volume                      2126.74827259

loop_
_atom_site_label
_atom_site_type_symbol
_atom_type_description
_atom_site_fract_x
_atom_site_fract_y
_atom_site_fract_z
_atom_type_partial_charge
O1    O     O_R   0.835850 0.638310 0.002120 -0.542017
O2    O     O_R   0.164150 0.361690 0.997880 -0.542017
O3    O     O_R   0.664150 0.138310 0.997880 -0.541988
O4    O     O_R   0.335850 0.861690 0.002120 -0.541989
O5    O     O_R   0.717530 0.306070 0.861970 -0.527210
O6    O     O_R   0.282470 0.693930 0.138030 -0.527209
O7    O     O_R   0.782470 0.806070 0.138030 -0.527242
O8    O     O_R   0.217530 0.193930 0.861970 -0.527238
C1    C     C_R   0.704199 0.476197 0.823940 0.764319
C2    C     C_R   0.295801 0.523803 0.176060 0.764316
C3    C     C_R   0.795804 0.976209 0.176058 0.764360
C4    C     C_R   0.204197 0.023790 0.823942 0.764351
O9    O     O_R   0.838690 0.308440 0.993250 -0.538293
O10   O     O_R   0.161310 0.691560 0.006750 -0.538294
O11   O     O_R   0.661310 0.808440 0.006750 -0.538336
O12   O     O_R   0.338690 0.191560 0.993250 -0.538335
O13   O     O_R   0.786170 0.140510 0.130090 -0.543954
O14   O     O_R   0.213830 0.859490 0.869910 -0.543953
O15   O     O_R   0.713830 0.640510 0.869910 -0.543950
O16   O     O_R   0.286170 0.359490 0.130090 -0.543950
C5    C     C_R   0.865278 0.477529 0.997717 0.682371
C6    C     C_R   0.134722 0.522471 0.002282 0.682369
C7    C     C_R   0.634723 0.977520 0.002289 0.682348
C8    C     C_R   0.365277 0.022480 0.997710 0.682348
O17   O     O_3   0.732630 0.472520 0.044740 -0.365009
O18   O     O_3   0.267370 0.527480 0.955260 -0.365006
O19   O     O_3   0.767370 0.972520 0.955260 -0.364995
O20   O     O_3   0.232630 0.027480 0.044740 -0.364995
V1    V     V_3+5 0.753220 0.196740 0.991700 1.481228
V2    V     V_3+5 0.246780 0.803260 0.008300 1.481232
V3    V     V_3+5 0.746780 0.696740 0.008300 1.481156
V4    V     V_3+5 0.253220 0.303260 0.991700 1.481165
C9    C     C_R   0.538177 0.095558 0.835630 -0.265962
C10   C     C_R   0.461822 0.904440 0.164368 -0.265959
C11   C     C_R   0.961846 0.595346 0.164414 -0.265988
C12   C     C_R   0.038154 0.404639 0.835587 -0.265999
C13   C     C_R   0.492872 0.146683 0.753127 -0.249328
C14   C     C_R   0.507127 0.853315 0.246871 -0.249337
C15   C     C_R   0.007165 0.646227 0.246951 -0.249284
C16   C     C_R   0.992835 0.353751 0.753051 -0.249281
C17   C     C_R   0.428584 0.154243 0.751209 0.695490
C18   C     C_R   0.571415 0.845753 0.248788 0.695493
C19   C     C_R   0.071458 0.653640 0.248882 0.695462
C20   C     C_R   0.928542 0.346352 0.751118 0.695476
C21   C     C_R   0.409172 0.110700 0.832032 -0.221508
C22   C     C_R   0.590827 0.889294 0.167965 -0.221507
C23   C     C_R   0.090858 0.610247 0.168032 -0.221483
C24   C     C_R   0.909142 0.389758 0.831967 -0.221482
C25   C     C_R   0.454040 0.058145 0.916895 -0.041022
C26   C     C_R   0.545960 0.941852 0.083102 -0.041024
C27   C     C_R   0.045975 0.557943 0.083134 -0.040972
C28   C     C_R   0.954025 0.442058 0.916865 -0.040974
C29   C     C_R   0.519926 0.048382 0.918487 0.084486
C30   C     C_R   0.480073 0.951617 0.081510 0.084487
C31   C     C_R   0.980086 0.548253 0.081538 0.084460
C32   C     C_R   0.019914 0.451743 0.918462 0.084459
C33   C     C_R   0.434057 0.011309 0.998637 -0.122255
C34   C     C_R   0.565942 0.988690 0.001361 -0.122256
C35   C     C_R   0.065943 0.511272 0.001361 -0.122253
C36   C     C_R   0.934057 0.488728 0.998638 -0.122253
H1    H     H_    0.587487 0.091178 0.833049 0.145881
H2    H     H_    0.412512 0.908820 0.166948 0.145881
H3    H     H_    0.912532 0.591086 0.166980 0.145856
H4    H     H_    0.087468 0.408893 0.833021 0.145858
H5    H     H_    0.507837 0.178899 0.690161 0.150548
H6    H     H_    0.492162 0.821101 0.309836 0.150548
H7    H     H_    0.992208 0.678358 0.309933 0.150577
H8    H     H_    0.007792 0.321607 0.690071 0.150573
H9    H     H_    0.358693 0.115931 0.827201 0.186675
H10   H     H_    0.641306 0.884058 0.172796 0.186681
H11   H     H_    0.141341 0.615374 0.172871 0.186515
H12   H     H_    0.858659 0.384641 0.827126 0.186515
C37   C     C_R   0.176634 0.024797 0.720484 -0.195764
C38   C     C_R   0.823370 0.975200 0.279516 -0.195752
C39   C     C_R   0.323361 0.524866 0.279520 -0.195777
C40   C     C_R   0.676638 0.475132 0.720481 -0.195776
C41   C     C_R   0.179685 0.157096 0.569263 -0.217482
C42   C     C_R   0.820319 0.842924 0.430741 -0.217484
C43   C     C_R   0.320359 0.657521 0.430700 -0.217490
C44   C     C_R   0.679640 0.342486 0.569299 -0.217491
C45   C     C_R   0.206597 0.137581 0.665371 0.586436
C46   C     C_R   0.793404 0.862441 0.334633 0.586432
C47   C     C_R   0.293428 0.637835 0.334606 0.586482
C48   C     C_R   0.706572 0.362171 0.665394 0.586485
C49   C     C_R   0.116906 0.938465 0.677765 0.022846
C50   C     C_R   0.883103 0.061506 0.322229 0.022836
C51   C     C_R   0.383069 0.438453 0.322258 0.022861
C52   C     C_R   0.616929 0.561541 0.677743 0.022856
C53   C     C_R   0.082295 0.000565 0.585409 0.048634
C54   C     C_R   0.917715 0.999419 0.414587 0.048636
C55   C     C_R   0.417705 0.500646 0.414594 0.048594
C56   C     C_R   0.582294 0.499347 0.585408 0.048592
C57   C     C_R   0.117453 0.090378 0.527840 0.006546
C58   C     C_R   0.882554 0.909624 0.472160 0.006554
C59   C     C_R   0.382578 0.590732 0.472134 0.006509
C60   C     C_R   0.617421 0.409270 0.527866 0.006508
C61   C     C_R   0.014497 0.981176 0.548516 0.021136
C62   C     C_R   0.985513 0.018806 0.451480 0.021133
C63   C     C_R   0.485498 0.481107 0.451490 0.021088
C64   C     C_R   0.514500 0.518888 0.548511 0.021087
C65   C     C_R   0.025660 0.061351 0.393014 -0.156988
C66   C     C_R   0.974351 0.938627 0.606983 -0.157014
C67   C     C_R   0.474371 0.561753 0.606962 -0.156821
C68   C     C_R   0.525628 0.438253 0.393039 -0.156830
C69   C     C_R   0.089770 0.110029 0.430137 0.208984
C70   C     C_R   0.910240 0.889969 0.569862 0.208979
C71   C     C_R   0.410278 0.610581 0.569824 0.209003
C72   C     C_R   0.589722 0.389431 0.430176 0.209005
H13   H     H_    0.206892 0.234365 0.528906 0.176617
H14   H     H_    0.793110 0.765668 0.471099 0.176615
H15   H     H_    0.293176 0.734971 0.471032 0.176557
H16   H     H_    0.706825 0.265046 0.528965 0.176558
H17   H     H_    0.007447 0.058677 0.317408 0.143350
H18   H     H_    0.992567 0.941285 0.682588 0.143345
H19   H     H_    0.492584 0.559214 0.682568 0.143356
H20   H     H_    0.507415 0.440801 0.317433 0.143353
F1    F     F_    0.615242 0.797614 0.329721 -0.662718
F2    F     F_    0.384757 0.202382 0.670276 -0.662725
F3    F     F_    0.884701 0.298495 0.670149 -0.662834
F4    F     F_    0.115298 0.701503 0.329851 -0.662836
C73   C     C_3   0.127883 0.177500 0.363608 -0.667650
H21   H     H_    0.169725 0.081101 0.369544 0.261502
H22   H     H_    0.099123 0.175898 0.288978 0.197354
H23   H     H_    0.144571 0.328215 0.380976 0.228394
C74   C     C_3   0.872124 0.822512 0.636391 -0.667644
H24   H     H_    0.830284 0.918920 0.630453 0.261505
H25   H     H_    0.855433 0.671800 0.619023 0.228391
H26   H     H_    0.900884 0.824114 0.711021 0.197356
C75   C     C_3   0.372199 0.678453 0.636327 -0.667725
H27   H     H_    0.355550 0.829161 0.618852 0.228431
H28   H     H_    0.330333 0.582186 0.630477 0.261337
H29   H     H_    0.400972 0.677052 0.710951 0.197342
C76   C     C_3   0.627802 0.321580 0.363672 -0.667705
H30   H     H_    0.644443 0.170859 0.381130 0.228427
H31   H     H_    0.599034 0.323029 0.289045 0.197352
H32   H     H_    0.669674 0.417833 0.369538 0.261328
C77   C     C_3   0.902915 0.236798 0.275111 -0.737433
H33   H     H_    0.941382 0.320707 0.323629 0.212708
H34   H     H_    0.917723 0.193123 0.211327 0.196753
H35   H     H_    0.862217 0.339324 0.254340 0.223336
C78   C     C_3   0.097100 0.763142 0.724869 -0.737385
H36   H     H_    0.082286 0.806783 0.788653 0.196740
H37   H     H_    0.058637 0.679229 0.676345 0.212700
H38   H     H_    0.137801 0.660624 0.745641 0.223335
C79   C     C_3   0.597174 0.737015 0.724804 -0.737424
H39   H     H_    0.558743 0.820977 0.676254 0.212661
H40   H     H_    0.582340 0.693529 0.788591 0.196738
H41   H     H_    0.637909 0.839427 0.745563 0.223393
C80   C     C_3   0.402826 0.262988 0.275193 -0.737418
H42   H     H_    0.417658 0.306485 0.211406 0.196736
H43   H     H_    0.441260 0.179032 0.323740 0.212660
H44   H     H_    0.362094 0.160566 0.254435 0.223392
F5    F     F_    0.736746 0.774449 0.295752 -0.670712
F6    F     F_    0.263251 0.225593 0.704256 -0.670713
F7    F     F_    0.763215 0.274126 0.704293 -0.670817
F8    F     F_    0.236787 0.725891 0.295706 -0.670816

loop_
_geom_bond_atom_site_label_1
_geom_bond_atom_site_label_2
_ccdc_geom_bond_type
O17   V3    S    
C7    C34   S    
O1    C5    A    
C51   C55   A    
O19   V1    S    
O13   V1    S    
O3    C7    A    
O1    V3    S    
C71   C75   S    
O15   V3    S    
C40   C48   A    
C61   C62   A    
C25   C33   A    
O7    C3    A    
C77   H34   S    
C70   C74   S    
C26   C30   A    
C12   C32   A    
O9    V1    S    
O10   V2    S    
C14   C18   A    
C78   H37   S    
O4    C8    A    
C48   F7    S    
C56   C60   A    
C65   H17   S    
C73   H22   S    
O17   V1    S    
O2    V4    S    
C18   C22   A    
C41   C57   A    
O3    V1    S    
C73   H23   S    
C28   C36   A    
C50   C77   S    
C57   C69   A    
C68   H20   S    
C46   F5    S    
C78   H36   S    
C1    O15   A    
C58   C70   A    
C14   H6    S    
C2    O16   A    
C8    C33   S    
C13   H5    S    
O2    C6    A    
C76   H32   S    
C52   C79   S    
C54   C58   A    
O14   V2    S    
C1    C40   S    
C41   C45   A    
C17   F2    S    
C44   C60   A    
C40   C52   A    
C16   C20   A    
C61   C66   A    
C44   C48   A    
C19   F4    S    
C75   H29   S    
C31   C36   A    
O11   C7    A    
C63   C68   A    
C60   C72   A    
O12   C8    A    
C4    C37   S    
C65   C69   A    
C24   H12   S    
C37   C45   A    
C79   H40   S    
C79   H39   S    
O5    V1    S    
C9    C29   A    
C77   H35   S    
O7    V3    S    
C21   H9    S    
O8    V4    S    
C52   C56   A    
O20   V4    S    
C5    C36   S    
C50   C54   A    
C78   H38   S    
C49   C78   S    
C6    C35   S    
C49   C53   A    
O18   V4    S    
C15   C19   A    
C47   F8    S    
C20   F3    S    
C11   C31   A    
O11   V3    S    
C64   C67   A    
C9    C13   A    
C45   F6    S    
C53   C61   A    
C26   C34   A    
C43   C59   A    
C11   C15   A    
O5    C1    A    
C67   H19   S    
C66   H18   S    
C74   H26   S    
C2    C39   S    
C42   C46   A    
C63   C64   A    
C12   C16   A    
O8    C4    A    
C37   C49   A    
C44   H16   S    
C21   C25   A    
C69   C73   S    
C42   H14   S    
C38   C50   A    
C41   H13   S    
C23   H11   S    
C73   H21   S    
C59   C71   A    
C39   C51   A    
O6    V2    S    
O18   V2    S    
O19   V3    S    
C51   C80   S    
C76   H30   S    
C80   H44   S    
C27   C35   A    
C10   H2    S    
C68   C72   A    
C79   H41   S    
C56   C64   A    
C74   H25   S    
C75   H27   S    
O16   V4    S    
C3    O13   A    
C53   C57   A    
C10   C14   A    
C15   H7    S    
C3    C38   S    
O6    C2    A    
C23   C27   A    
C29   C34   A    
C18   F1    S    
C10   C30   A    
O12   V4    S    
C62   C65   A    
C77   H33   S    
C22   C26   A    
C32   C35   A    
C43   H15   S    
C67   C71   A    
O10   C6    A    
C80   H43   S    
C72   C76   S    
C80   H42   S    
O9    C5    A    
C43   C47   A    
C39   C47   A    
C74   H24   S    
C42   C58   A    
C25   C29   A    
O20   V2    S    
C66   C70   A    
C27   C31   A    
C13   C17   A    
O4    V2    S    
C22   H10   S    
C55   C59   A    
C28   C32   A    
C24   C28   A    
C9    H1    S    
C16   H8    S    
C4    O14   A    
C76   H31   S    
C17   C21   A    
C11   H3    S    
C55   C63   A    
C12   H4    S    
C19   C23   A    
C54   C62   A    
C38   C46   A    
C20   C24   A    
C75   H28   S    
C30   C33   A    
