data_mof_unit_16856.cif
_audit_creation_date              2013-03-05T15:50:23-0500
_audit_creation_method            fapswitch 2.2
_symmetry_space_group_name_H-M    P1
_symmetry_Int_Tables_number       1
_space_group_crystal_system       triclinic
_cell_length_a                    18.29189
_cell_length_b                    25.757454
_cell_length_c                    18.260661
_cell_angle_alpha                 90.196111
_cell_angle_beta                  90.008554
_cell_angle_gamma                 89.923743
_cell_volume                      8603.49825286

loop_
_atom_site_label
_atom_site_type_symbol
_atom_site_description
_atom_site_fract_x
_atom_site_fract_y
_atom_site_fract_z
_atom_type_partial_charge
Zn1   Zn    Zn3+2 0.249990 0.293780 0.913250 0.972621
Zn2   Zn    Zn3+2 0.249990 0.706220 0.086750 0.968391
Zn3   Zn    Zn3+2 0.249990 0.706220 0.913250 0.958627
Zn4   Zn    Zn3+2 0.249990 0.293780 0.086750 0.959794
Zn5   Zn    Zn3+2 0.749990 0.793780 0.413250 0.973920
Zn6   Zn    Zn3+2 0.749990 0.206220 0.586750 0.970610
Zn7   Zn    Zn3+2 0.749990 0.206220 0.413250 0.959509
Zn8   Zn    Zn3+2 0.749990 0.793780 0.586750 0.954401
Zn9   Zn    Zn3+2 0.336760 0.206240 0.000000 0.956020
Zn10  Zn    Zn3+2 0.336760 0.793760 0.000000 0.949518
Zn11  Zn    Zn3+2 0.836760 0.706240 0.500000 0.961160
Zn12  Zn    Zn3+2 0.836760 0.293760 0.500000 0.954702
Zn13  Zn    Zn3+2 0.163250 0.206230 0.000000 0.986084
Zn14  Zn    Zn3+2 0.163250 0.793770 0.000000 0.988668
Zn15  Zn    Zn3+2 0.663250 0.706230 0.500000 0.988072
Zn16  Zn    Zn3+2 0.663250 0.293770 0.500000 0.987044
O1    O     O_3   0.249990 0.250010 0.000000 -0.472433
O2    O     O_3   0.249990 0.749990 0.000000 -0.473910
O3    O     O_3   0.749990 0.750010 0.500000 -0.474041
O4    O     O_3   0.749990 0.249990 0.500000 -0.472800
O5    O     O_R   0.335430 0.280650 0.146160 -0.646198
O6    O     O_R   0.335430 0.719350 0.853840 -0.647557
O7    O     O_R   0.335430 0.719350 0.146160 -0.651223
O8    O     O_R   0.335430 0.280650 0.853840 -0.649750
O9    O     O_R   0.835430 0.780650 0.646160 -0.646901
O10   O     O_R   0.835430 0.219350 0.353840 -0.646795
O11   O     O_R   0.835430 0.219350 0.646160 -0.652127
O12   O     O_R   0.835430 0.780650 0.353840 -0.648189
O13   O     O_R   0.164550 0.280640 0.853840 -0.659745
O14   O     O_R   0.164550 0.719360 0.146160 -0.655472
O15   O     O_R   0.164550 0.719360 0.853840 -0.654972
O16   O     O_R   0.164550 0.280640 0.146160 -0.655177
O17   O     O_R   0.664550 0.780640 0.353840 -0.656700
O18   O     O_R   0.664550 0.219360 0.646160 -0.658307
O19   O     O_R   0.664550 0.219360 0.353840 -0.654734
O20   O     O_R   0.664550 0.780640 0.646160 -0.655229
O21   O     O_R   0.396160 0.219380 0.914560 -0.654980
O22   O     O_R   0.396160 0.780620 0.085440 -0.652777
O23   O     O_R   0.396160 0.780620 0.914560 -0.653061
O24   O     O_R   0.396160 0.219380 0.085440 -0.654900
O25   O     O_R   0.896160 0.719380 0.414560 -0.648383
O26   O     O_R   0.896160 0.280620 0.585440 -0.652810
O27   O     O_R   0.896160 0.280620 0.414560 -0.653590
O28   O     O_R   0.896160 0.719380 0.585440 -0.660008
O29   O     O_R   0.103840 0.219370 0.085450 -0.652632
O30   O     O_R   0.103840 0.780630 0.914550 -0.656764
O31   O     O_R   0.103840 0.780630 0.085450 -0.634803
O32   O     O_R   0.103840 0.219370 0.914550 -0.641887
O33   O     O_R   0.603840 0.719370 0.585450 -0.653036
O34   O     O_R   0.603840 0.280630 0.414550 -0.653126
O35   O     O_R   0.603840 0.280630 0.585450 -0.640253
O36   O     O_R   0.603840 0.719370 0.414550 -0.641666
O37   O     O_R   0.310730 0.133160 0.000000 -0.649474
O38   O     O_R   0.310730 0.866840 0.000000 -0.656057
O39   O     O_R   0.810730 0.633160 0.500000 -0.638851
O40   O     O_R   0.810730 0.366840 0.500000 -0.652944
O41   O     O_R   0.249970 0.366860 0.060720 -0.661351
O42   O     O_R   0.249970 0.633140 0.939280 -0.662744
O43   O     O_R   0.249970 0.633140 0.060720 -0.639874
O44   O     O_R   0.249970 0.366860 0.939280 -0.644139
O45   O     O_R   0.749970 0.866860 0.560720 -0.663270
O46   O     O_R   0.749970 0.133140 0.439280 -0.661482
O47   O     O_R   0.749970 0.133140 0.560720 -0.643665
O48   O     O_R   0.749970 0.866860 0.439280 -0.642788
O49   O     O_R   0.189290 0.133150 0.000000 -0.655903
O50   O     O_R   0.189290 0.866850 0.000000 -0.637818
O51   O     O_R   0.689290 0.633150 0.500000 -0.655076
O52   O     O_R   0.689290 0.366850 0.500000 -0.651539
C1    C     C_R   0.393364 0.253189 0.137419 0.810663
C2    C     C_R   0.393284 0.746769 0.862532 0.810876
C3    C     C_R   0.387156 0.753088 0.143528 0.806921
C4    C     C_R   0.387382 0.246869 0.856597 0.816036
C5    C     C_R   0.893239 0.752933 0.637730 0.804649
C6    C     C_R   0.893308 0.246778 0.362549 0.810867
C7    C     C_R   0.887139 0.253050 0.643543 0.813296
C8    C     C_R   0.890982 0.750393 0.360347 0.804617
C9    C     C_R   0.114197 0.246223 0.855879 0.883873
C10   C     C_R   0.113475 0.754263 0.143179 0.851591
C11   C     C_R   0.106348 0.745647 0.863830 0.867859
C12   C     C_R   0.106283 0.254230 0.136242 0.867964
C13   C     C_R   0.614231 0.746143 0.355867 0.882421
C14   C     C_R   0.614300 0.254146 0.644152 0.879445
C15   C     C_R   0.606196 0.245741 0.363872 0.867331
C16   C     C_R   0.606326 0.754211 0.636301 0.868958
C17   C     C_R   0.249902 0.109123 0.008120 0.829603
C18   C     C_R   0.250138 0.890837 0.991680 0.830692
C19   C     C_R   0.749916 0.609191 0.508457 0.832882
C20   C     C_R   0.750085 0.390904 0.491997 0.830457
C21   C     C_R   0.249950 0.391385 0.999978 0.757250
C22   C     C_R   0.249942 0.608621 0.999814 0.759078
C23   C     C_R   0.749940 0.891378 0.500183 0.754709
C24   C     C_R   0.749938 0.108614 0.500020 0.757317
C25   C     C_3   0.180994 0.470182 0.039264 -0.394221
C26   C     C_3   0.249906 0.529593 0.919720 -0.392898
C27   C     C_3   0.180971 0.530176 0.039101 -0.387840
C28   C     C_3   0.249910 0.470029 0.919845 -0.378657
C29   C     C_3   0.749781 0.970407 0.580266 -0.392785
C30   C     C_3   0.681031 0.029945 0.460605 -0.395305
C31   C     C_3   0.749784 0.029969 0.580143 -0.379057
C32   C     C_3   0.681013 0.969951 0.460763 -0.387713
H1    H     H_    0.179573 0.456079 0.096799 0.176354
H2    H     H_    0.299012 0.543693 0.889774 0.171524
H3    H     H_    0.179491 0.544672 0.096572 0.182770
H4    H     H_    0.299015 0.455672 0.889919 0.178262
H5    H     H_    0.798845 0.956217 0.610297 0.171317
H6    H     H_    0.679688 0.044053 0.403068 0.175954
H7    H     H_    0.798848 0.044233 0.610152 0.178191
H8    H     H_    0.679615 0.955457 0.403287 0.183103
H9    H     H_    0.130819 0.455627 0.011531 0.168666
H10   H     H_    0.200785 0.543789 0.889784 0.175545
H11   H     H_    0.130791 0.544596 0.011275 0.168474
H12   H     H_    0.200790 0.455762 0.889932 0.180766
H13   H     H_    0.700618 0.956304 0.610116 0.175492
H14   H     H_    0.630816 0.044593 0.488253 0.168181
H15   H     H_    0.700623 0.044331 0.609972 0.180758
H16   H     H_    0.630793 0.955623 0.488497 0.167148
H17   H     H_    0.116433 0.917803 0.924157 0.149051
H18   H     H_    0.109912 0.081513 0.064759 0.159584
H19   H     H_    0.614828 0.418130 0.427373 0.156840
H20   H     H_    0.611063 0.581984 0.567725 0.159047
H21   H     H_    0.320333 0.455954 0.096791 0.174430
H22   H     H_    0.369073 0.544373 0.011270 0.156370
H23   H     H_    0.320408 0.544541 0.096571 0.182723
H24   H     H_    0.369053 0.455412 0.011516 0.157690
H25   H     H_    0.869075 0.955400 0.488918 0.155095
H26   H     H_    0.820445 0.043913 0.403318 0.174661
H27   H     H_    0.869051 0.044361 0.488674 0.157521
H28   H     H_    0.820523 0.955324 0.403538 0.182209
C33   C     C_3   0.318886 0.470057 0.039256 -0.401444
C34   C     C_3   0.318903 0.530047 0.039098 -0.391963
C35   C     C_3   0.818943 0.969821 0.461008 -0.393420
C36   C     C_3   0.818923 0.029811 0.460850 -0.400344
C37   C     C_3   0.249934 0.449112 0.999639 0.194510
C38   C     C_3   0.249930 0.550908 0.999411 0.193042
C39   C     C_3   0.749917 0.949091 0.500577 0.195720
C40   C     C_3   0.749916 0.050887 0.500351 0.194657
H29   H     H_    0.945788 0.096346 0.885939 0.128345
H30   H     H_    0.895792 0.864450 0.074725 0.121332
H31   H     H_    0.880133 0.834420 0.950493 0.123988
H32   H     H_    0.885738 0.157365 0.053001 0.126946
H33   H     H_    0.442882 0.598314 0.388994 0.129394
H34   H     H_    0.434912 0.397229 0.604936 0.127927
H35   H     H_    0.386540 0.344663 0.445674 0.126690
H36   H     H_    0.385020 0.658658 0.552194 0.126639
C41   C     C_R   0.132613 0.302619 0.713078 -0.103898
C42   C     C_R   0.155901 0.743744 0.299631 -0.131349
C43   C     C_R   0.101572 0.664247 0.745165 -0.099264
C44   C     C_R   0.101729 0.334203 0.256595 -0.102154
C45   C     C_R   0.633432 0.801532 0.212547 -0.105851
C46   C     C_R   0.637069 0.203905 0.790107 -0.103074
C47   C     C_R   0.600705 0.164829 0.244958 -0.101792
C48   C     C_R   0.602496 0.833665 0.757459 -0.102508
C49   C     C_R   0.130786 0.345110 0.666115 -0.166576
C50   C     C_R   0.173671 0.734860 0.372596 -0.151993
C51   C     C_R   0.119421 0.641663 0.678132 -0.161358
C52   C     C_R   0.120216 0.355921 0.324068 -0.160705
C53   C     C_R   0.632154 0.843831 0.165214 -0.169905
C54   C     C_R   0.638751 0.163250 0.840162 -0.161057
C55   C     C_R   0.618907 0.142361 0.177878 -0.162971
C56   C     C_R   0.621178 0.854961 0.825146 -0.163363
C57   C     C_R   0.565861 0.862098 0.138723 -0.162627
C58   C     C_R   0.573775 0.143718 0.867914 -0.166422
C59   C     C_R   0.590265 0.162652 0.113651 -0.158747
C60   C     C_R   0.592029 0.834199 0.888792 -0.157244
C61   C     C_R   0.064233 0.363150 0.639957 -0.162327
C62   C     C_R   0.119265 0.735403 0.425472 -0.158610
C63   C     C_R   0.089976 0.661619 0.614126 -0.168689
C64   C     C_R   0.091298 0.335317 0.387924 -0.156993
C65   C     C_R   0.501641 0.835415 0.154590 -0.113414
C66   C     C_R   0.507756 0.167732 0.850497 -0.115107
C67   C     C_R   0.538703 0.202439 0.117026 -0.116791
C68   C     C_R   0.539545 0.795182 0.884298 -0.116717
C69   C     C_R   0.000356 0.336007 0.655671 -0.112468
C70   C     C_R   0.046589 0.743328 0.405396 -0.146437
C71   C     C_R   0.038149 0.701227 0.617775 -0.126603
C72   C     C_R   0.039207 0.296014 0.383830 -0.117267
C73   C     C_R   0.502843 0.789350 0.196961 0.070500
C74   C     C_R   0.505765 0.212555 0.805536 0.070730
C75   C     C_R   0.514351 0.222421 0.185313 0.067670
C76   C     C_R   0.514908 0.776406 0.815469 0.067587
C77   C     C_R   0.002211 0.289721 0.697535 0.069193
C78   C     C_R   0.026035 0.748756 0.330934 0.083546
C79   C     C_R   0.014061 0.721395 0.685966 0.071913
C80   C     C_R   0.014679 0.276811 0.315194 0.068089
C81   C     C_R   0.067385 0.277269 0.734641 0.065468
C82   C     C_R   0.082368 0.750831 0.277691 0.079222
C83   C     C_R   0.053589 0.707452 0.749101 0.063576
C84   C     C_R   0.053733 0.291125 0.251973 0.062498
C85   C     C_R   0.567847 0.776682 0.234254 0.065653
C86   C     C_R   0.569901 0.226033 0.767391 0.065154
C87   C     C_R   0.553200 0.208299 0.248796 0.063014
C88   C     C_R   0.554118 0.790818 0.752394 0.062452
C89   C     C_R   0.441016 0.756547 0.204372 -0.208171
C90   C     C_R   0.441852 0.243320 0.796272 -0.205827
C91   C     C_R   0.453801 0.256652 0.191662 -0.209615
C92   C     C_R   0.453640 0.743084 0.808238 -0.209536
C93   C     C_R   0.940898 0.256413 0.704479 -0.205842
C94   C     C_R   0.951639 0.754215 0.307769 -0.182642
C95   C     C_R   0.953208 0.755591 0.692679 -0.208779
C96   C     C_R   0.953705 0.243164 0.308279 -0.209163
C97   C     C_R   0.439795 0.719039 0.261316 0.055305
C98   C     C_R   0.438595 0.279310 0.737561 0.052913
C99   C     C_R   0.443446 0.285076 0.257828 0.050084
C100  C     C_R   0.442775 0.715523 0.741421 0.049750
C101  C     C_R   0.940301 0.218391 0.760813 0.053934
C102  C     C_R   0.936671 0.771602 0.235807 0.040481
C103  C     C_R   0.941955 0.782769 0.759845 0.047683
C104  C     C_R   0.943069 0.215285 0.241705 0.049826
C105  C     C_R   0.006535 0.204465 0.795131 0.062027
C106  C     C_R   0.995102 0.788859 0.192871 0.075335
C107  C     C_R   0.979243 0.766220 0.823169 0.062532
C108  C     C_R   0.980017 0.231419 0.177892 0.062761
C109  C     C_R   0.505782 0.704818 0.295846 0.063457
C110  C     C_R   0.503756 0.294450 0.702372 0.065633
C111  C     C_R   0.480131 0.269095 0.321902 0.062674
C112  C     C_R   0.479899 0.731753 0.677758 0.062219
C113  C     C_R   0.065671 0.239727 0.791312 -0.164510
C114  C     C_R   0.064386 0.765594 0.205574 -0.164300
C115  C     C_R   0.043404 0.736484 0.814258 -0.158910
C116  C     C_R   0.043360 0.262425 0.186313 -0.162168
C117  C     C_R   0.565575 0.739537 0.291416 -0.166858
C118  C     C_R   0.565431 0.261390 0.708337 -0.164803
C119  C     C_R   0.543148 0.237582 0.313977 -0.162609
C120  C     C_R   0.543497 0.762446 0.686465 -0.162374
C121  C     C_R   0.374368 0.695984 0.286470 -0.118828
C122  C     C_R   0.371893 0.299989 0.711481 -0.109629
C123  C     C_R   0.398826 0.329913 0.262032 -0.117901
C124  C     C_R   0.397274 0.671268 0.736136 -0.118922
C125  C     C_R   0.875318 0.194468 0.785545 -0.112993
C126  C     C_R   0.865308 0.775304 0.206339 -0.109186
C127  C     C_R   0.895352 0.826460 0.766356 -0.119879
C128  C     C_R   0.897958 0.170811 0.236829 -0.117788
C129  C     C_R   0.375959 0.654489 0.335095 -0.170961
C130  C     C_R   0.371179 0.340457 0.661132 -0.164242
C131  C     C_R   0.381483 0.352299 0.329332 -0.156126
C132  C     C_R   0.379557 0.649855 0.668332 -0.156710
C133  C     C_R   0.877775 0.152388 0.833153 -0.168496
C134  C     C_R   0.851904 0.806237 0.145363 -0.147333
C135  C     C_R   0.876211 0.846130 0.834879 -0.156600
C136  C     C_R   0.880419 0.149023 0.169217 -0.153737
C137  C     C_R   0.944747 0.131884 0.854348 -0.268682
C138  C     C_R   0.908399 0.835501 0.115706 -0.298644
C139  C     C_R   0.901023 0.821757 0.897954 -0.254074
C140  C     C_R   0.905031 0.172100 0.105195 -0.253155
C141  C     C_R   0.442536 0.633512 0.356644 -0.269620
C142  C     C_R   0.436545 0.362725 0.638701 -0.275653
C143  C     C_R   0.405739 0.329450 0.393702 -0.254493
C144  C     C_R   0.404417 0.673085 0.604520 -0.255748
C145  C     C_R   0.009854 0.156231 0.833523 0.038203
C146  C     C_R   0.980388 0.828283 0.140044 0.022791
C147  C     C_R   0.951026 0.780690 0.893119 0.045825
C148  C     C_R   0.952817 0.214472 0.108348 0.044842
C149  C     C_R   0.508131 0.656907 0.335121 0.037315
C150  C     C_R   0.503416 0.341548 0.661147 0.035275
C151  C     C_R   0.453011 0.286677 0.391172 0.044857
C152  C     C_R   0.452611 0.715208 0.608053 0.046650
H37   H     H_    0.185721 0.288977 0.730294 0.151044
H38   H     H_    0.200888 0.748532 0.262101 0.142184
H39   H     H_    0.123886 0.646361 0.793754 0.161706
H40   H     H_    0.123645 0.352643 0.208288 0.161383
H41   H     H_    0.686388 0.787736 0.230099 0.154267
H42   H     H_    0.688854 0.218717 0.770967 0.146863
H43   H     H_    0.622493 0.146728 0.293626 0.160419
H44   H     H_    0.624548 0.852291 0.709363 0.161528
H45   H     H_    0.180914 0.364702 0.651288 0.123864
H46   H     H_    0.230265 0.730053 0.388623 0.132691
H47   H     H_    0.157233 0.609328 0.675815 0.127987
H48   H     H_    0.158138 0.388103 0.326820 0.129119
H49   H     H_    0.682500 0.863167 0.150425 0.129434
H50   H     H_    0.690378 0.146100 0.856037 0.122660
H51   H     H_    0.656444 0.109861 0.175702 0.128096
H52   H     H_    0.659395 0.886954 0.828218 0.127221
H53   H     H_    0.564223 0.896520 0.104885 0.132862
H54   H     H_    0.574505 0.110331 0.903779 0.131371
H55   H     H_    0.607009 0.146988 0.061159 0.132325
H56   H     H_    0.609028 0.848961 0.941703 0.133424
H57   H     H_    0.062142 0.397705 0.606414 0.132898
H58   H     H_    0.133735 0.731198 0.482610 0.136408
H59   H     H_    0.106356 0.645863 0.561586 0.134575
H60   H     H_    0.108193 0.350403 0.440687 0.134011
H61   H     H_    0.451180 0.852365 0.135241 0.165961
H62   H     H_    0.458628 0.149464 0.870594 0.169931
H63   H     H_    0.520098 0.218236 0.065537 0.162736
H64   H     H_    0.520302 0.779030 0.935311 0.161597
H65   H     H_    0.949644 0.352676 0.636481 0.166525
H66   H     H_    0.008263 0.747657 0.449566 0.145156
H67   H     H_    0.019199 0.716739 0.566554 0.147308
H68   H     H_    0.020234 0.279977 0.435013 0.161902
H69   H     H_    0.321412 0.710974 0.271325 0.149715
H70   H     H_    0.319854 0.283871 0.727526 0.148067
H71   H     H_    0.379355 0.349495 0.213561 0.156062
H72   H     H_    0.377437 0.651291 0.784084 0.157047
H73   H     H_    0.822040 0.209221 0.770949 0.150357
H74   H     H_    0.819506 0.755126 0.230452 0.144572
H75   H     H_    0.875413 0.847192 0.719078 0.157579
H76   H     H_    0.878285 0.150989 0.284978 0.156929
H77   H     H_    0.827599 0.134222 0.851091 0.131863
H78   H     H_    0.796860 0.810315 0.124448 0.135808
H79   H     H_    0.839485 0.879010 0.839011 0.133336
H80   H     H_    0.845188 0.115331 0.166428 0.134944
H81   H     H_    0.325353 0.637112 0.353477 0.141982
H82   H     H_    0.319694 0.356128 0.642060 0.131912
H83   H     H_    0.346631 0.386272 0.331622 0.134534
H84   H     H_    0.344025 0.616335 0.665242 0.134593
H85   H     H_    0.996812 0.040625 0.025052 0.132955
H86   H     H_    0.000126 0.959750 0.951566 0.130390
H87   H     H_    0.497169 0.540638 0.531171 0.135758
H88   H     H_    0.499092 0.459555 0.458089 0.136228
C153  C     C_R   0.383210 0.047058 0.041615 -0.110862
C154  C     C_R   0.386105 0.953003 0.967280 -0.111051
C155  C     C_R   0.883172 0.547148 0.542580 -0.105286
C156  C     C_R   0.885878 0.453167 0.468041 -0.111660
C157  C     C_R   0.449917 0.023021 0.026885 -0.164604
C158  C     C_R   0.451461 0.977049 0.986965 -0.169260
C159  C     C_R   0.949818 0.522986 0.527996 -0.150579
C160  C     C_R   0.951279 0.477069 0.487940 -0.166775
C161  C     C_R   0.317713 0.974621 0.987864 0.077669
C162  C     C_R   0.316635 0.025271 0.016287 0.078422
C163  C     C_R   0.817517 0.474764 0.488800 0.078959
C164  C     C_R   0.816586 0.525391 0.517293 0.077540
C165  C     C_R   0.250740 0.947378 0.980782 -0.223925
C166  C     C_R   0.249408 0.052528 0.018520 -0.222952
C167  C     C_R   0.750466 0.447536 0.481919 -0.220737
C168  C     C_R   0.749467 0.552685 0.519678 -0.224341
C169  C     C_R   0.183609 0.974679 0.982616 0.096161
C170  C     C_R   0.182439 0.025276 0.011182 0.086034
C171  C     C_R   0.683238 0.474816 0.484889 0.088113
C172  C     C_R   0.682474 0.525436 0.513406 0.089131
C173  C     C_R   0.117264 0.953000 0.956606 -0.110747
C174  C     C_R   0.113932 0.046826 0.031506 -0.118576
C175  C     C_R   0.616362 0.453143 0.460167 -0.124042
C176  C     C_R   0.614378 0.547071 0.534852 -0.124861
C177  C     C_R   0.050523 0.977254 0.970465 -0.182849
C178  C     C_R   0.048703 0.022998 0.010886 -0.181538
C179  C     C_R   0.549844 0.477177 0.475778 -0.189773
C180  C     C_R   0.548785 0.523040 0.515957 -0.192675
H89   H     H_    0.384314 0.082166 0.074239 0.159857
H90   H     H_    0.389901 0.918174 0.934290 0.163576
H91   H     H_    0.884278 0.582328 0.575065 0.158276
H92   H     H_    0.889653 0.418456 0.434809 0.164108
H93   H     H_    0.500451 0.040700 0.045094 0.133524
H94   H     H_    0.503264 0.959463 0.972364 0.131838
H95   H     H_    0.000375 0.540565 0.546329 0.136398
H96   H     H_    0.003049 0.459434 0.473335 0.132690
C181  C     C_2   0.078736 0.126638 0.844664 0.427896
H97   H     H_    0.080063 0.094502 0.882918 0.075756
O53   O     O_2   0.133698 0.136361 0.809356 -0.598012
C182  C     C_2   0.034462 0.868606 0.119530 0.471760
H98   H     H_    0.024132 0.893440 0.072789 0.047137
O54   O     O_2   0.089576 0.875730 0.155979 -0.572385
C183  C     C_2   0.964499 0.749859 0.960417 0.415939
H99   H     H_    0.950766 0.765847 0.013472 0.075333
O55   O     O_2   0.987932 0.705493 0.957237 -0.598227
C184  C     C_2   0.965108 0.243293 0.039074 0.431951
H100  H     H_    0.953676 0.224738 0.986818 0.064998
O56   O     O_2   0.985287 0.288464 0.039545 -0.598092
C185  C     C_2   0.576360 0.626609 0.346508 0.432329
H101  H     H_    0.577085 0.594773 0.385288 0.076618
O57   O     O_2   0.631425 0.635438 0.310886 -0.595064
C186  C     C_2   0.569830 0.373498 0.648777 0.435850
H102  H     H_    0.568798 0.404577 0.608790 0.073831
O58   O     O_2   0.625279 0.366854 0.684818 -0.594843
C187  C     C_2   0.464753 0.258123 0.460784 0.432167
H103  H     H_    0.453227 0.276992 0.512796 0.066894
O59   O     O_2   0.484568 0.212833 0.460855 -0.597600
C188  C     C_2   0.465277 0.744219 0.539006 0.426640
H104  H     H_    0.453736 0.725907 0.486604 0.064551
O60   O     O_2   0.485863 0.789295 0.539824 -0.599418

loop_
_geom_bond_atom_site_label_1
_geom_bond_atom_site_label_2
_geom_bond_distance
_ccdc_geom_bond_type
C185  H101  1.085362 S    
C63   H59   1.082598 S    
C94   C102  1.416301 A    
C109  C149  1.430050 A    
C172  C176  1.418528 A    
C99   C123  1.415185 A    
C75   C91   1.419267 A    
C177  C178  1.388571 A    
C97   C121  1.414156 A    
O26   C7    1.289477 A    
C73   C89   1.419365 A    
C66   C74   1.419395 A    
C99   C111  1.411044 A    
C4    C90   1.487927 S    
O30   C11   1.290764 A    
C22   C38   1.486554 S    
C30   H14   1.113041 S    
C91   C99   1.423154 A    
C136  C140  1.388670 A    
C89   C97   1.421988 A    
C153  H89   1.081404 S    
Zn12  O26   1.931691 S    
C110  C118  1.416951 A    
C51   C63   1.386948 A    
H34   C142  1.083768 S    
C169  C173  1.417750 A    
C92   C100  1.423565 A    
C43   C51   1.392135 A    
C76   C92   1.418375 A    
C32   C39   1.551267 S    
C29   H5    1.113612 S    
C96   C104  1.423288 A    
C34   C38   1.551212 S    
C44   H40   1.080702 S    
O11   C7    1.285650 A    
C45   H41   1.080319 S    
C42   C82   1.415173 A    
O34   C15   1.288430 A    
C135  H79   1.082735 S    
C55   H51   1.082608 S    
C163  C167  1.419002 A    
C62   C70   1.393911 A    
C41   H37   1.079686 S    
C137  C145  1.400000 A    
Zn14  O30   1.930579 S    
Zn1   O44   1.939863 S    
C25   H1    1.113137 S    
C153  C157  1.393373 A    
Zn2   O43   1.939863 S    
C108  C116  1.416180 A    
C141  C149  1.400332 A    
Zn5   O48   1.939863 S    
H32   C140  1.083857 S    
Zn6   O47   1.939863 S    
C112  C120  1.416024 A    
Zn7   O46   1.943018 S    
C46   C86   1.416352 A    
C11   C115  1.483130 S    
C42   C50   1.391051 A    
C104  C108  1.411247 A    
C155  C164  1.417969 A    
Zn12  O4    1.948069 S    
Zn1   O13   1.931942 S    
C156  C163  1.419031 A    
C71   H67   1.075516 S    
C98   C110  1.410269 A    
C26   C28   1.534211 S    
C72   H68   1.080623 S    
Zn4   O16   1.933504 S    
C57   H53   1.082807 S    
C104  C128  1.415214 A    
C9    C113  1.484838 S    
C33   C37   1.550510 S    
C6    C96   1.486846 S    
C28   H4    1.113586 S    
C152  C188  1.486205 S    
C87   C119  1.418785 A    
C13   C117  1.484890 S    
C64   H60   1.082814 S    
C71   C79   1.417642 A    
C154  C158  1.393678 A    
C72   C80   1.418795 A    
C14   C118  1.485260 S    
C44   C84   1.418088 A    
C45   C85   1.417735 A    
C30   H6    1.113152 S    
Zn10  O22   1.931691 S    
C105  C113  1.415274 A    
C48   C88   1.418272 A    
O25   C8    1.277623 A    
Zn13  O29   1.930332 S    
C129  C141  1.389039 A    
Zn6   O4    1.947478 S    
Zn10  O2    1.948069 S    
C182  H98   1.084777 S    
C31   C40   1.555202 S    
O29   C12   1.289527 A    
C167  C171  1.416461 A    
Zn15  O33   1.930332 S    
C18   C165  1.470631 S    
C179  C180  1.388603 A    
C80   C84   1.408168 A    
C75   C87   1.408228 A    
C26   H2    1.113607 S    
C41   C81   1.417373 A    
C135  C139  1.389512 A    
O48   C23   1.277044 A    
C130  C142  1.389234 A    
C171  C175  1.418367 A    
C155  C159  1.393315 A    
C132  C144  1.388624 A    
C101  C125  1.414419 A    
C183  H99   1.080916 S    
C164  C168  1.414567 A    
Zn16  O35   1.932711 S    
C77   C93   1.418903 A    
C70   C78   1.418024 A    
C82   C114  1.410677 A    
Zn7   O10   1.933460 S    
C123  H71   1.080349 S    
O33   C16   1.289986 A    
C25   C37   1.550518 S    
C86   C118  1.416136 A    
Zn8   O20   1.933504 S    
O40   C20   1.278617 A    
C52   C64   1.387919 A    
C70   H66   1.074149 S    
C1    C91   1.486794 S    
H85   C178  1.082653 S    
C102  C106  1.399488 A    
C188  H104  1.086181 S    
C80   C96   1.418731 A    
Zn5   O17   1.931942 S    
H33   C141  1.083788 S    
H31   C139  1.081883 S    
C65   H61   1.080405 S    
C57   C65   1.392796 A    
C53   H49   1.082271 S    
C25   C27   1.545298 S    
C129  H81   1.082633 S    
C103  C107  1.409399 A    
C67   C75   1.418942 A    
C169  C170  1.402249 A    
C61   H57   1.082796 S    
C65   C73   1.418867 A    
C186  H102  1.085504 S    
C27   H3    1.113033 S    
C32   H8    1.113067 S    
Zn8   O3    1.941190 S    
C21   C37   1.486919 S    
O38   C18   1.277626 A    
H22   C34   1.113043 S    
O5    C1    1.282999 A    
C47   C55   1.393173 A    
O32   C9    1.291364 A    
C153  C162  1.418340 A    
H25   C35   1.113054 S    
C52   H48   1.082608 S    
H26   C36   1.113123 S    
C150  C186  1.485978 S    
C36   C40   1.550504 S    
Zn15  O51   1.941070 S    
C111  C151  1.430695 A    
Zn11  O28   1.930326 S    
Zn12  O40   1.941028 S    
C20   C167  1.470923 S    
H17   C173  1.081480 S    
C121  H69   1.078682 S    
H23   C34   1.113073 S    
C42   H38   1.078459 S    
C181  O53   1.221108 D    
C29   C39   1.553550 S    
C155  H91   1.081551 S    
H28   C35   1.113058 S    
O8    C4    1.288715 A    
C63   C71   1.393163 A    
C33   C34   1.545195 S    
C64   C72   1.392972 A    
C49   C61   1.387789 A    
C145  C181  1.486056 S    
O50   C18   1.283027 A    
O37   C17   1.282903 A    
C154  C161  1.418882 A    
C107  C115  1.409717 A    
C100  C112  1.411263 A    
Zn1   O1    1.947480 S    
C122  C130  1.392303 A    
C133  C137  1.388885 A    
Zn2   O14   1.931475 S    
C15   C119  1.484363 S    
C58   H54   1.082800 S    
C68   C76   1.418778 A    
C166  C170  1.418758 A    
C45   C53   1.393203 A    
H29   C137  1.083789 S    
C157  H93   1.082744 S    
O9    C5    1.284072 A    
C43   H39   1.080871 S    
O36   C13   1.290531 A    
C60   C68   1.392951 A    
O13   C9    1.279845 A    
Zn1   O8    1.931433 S    
C185  O57   1.221141 D    
C184  H100  1.086189 S    
Zn2   O7    1.931899 S    
C173  C177  1.393445 A    
Zn3   O6    1.933460 S    
O18   C14   1.283388 A    
O31   C10   1.268101 A    
C106  C146  1.428316 A    
C25   H9    1.113039 S    
C110  C150  1.429914 A    
C93   C101  1.422815 A    
C32   H16   1.113050 S    
C98   C122  1.413847 A    
C59   H55   1.082811 S    
Zn15  O3    1.947768 S    
C74   C90   1.421875 A    
Zn11  O3    1.945622 S    
O41   C21   1.278342 A    
C56   C60   1.387895 A    
C66   H62   1.079833 S    
Zn16  O34   1.930579 S    
C149  C185  1.486030 S    
C31   H15   1.113578 S    
C74   C86   1.408904 A    
C3    C89   1.487361 S    
Zn2   O2    1.947478 S    
C90   C98   1.420892 A    
C78   C82   1.417996 A    
H87   C180  1.082652 S    
O10   C6    1.283130 A    
C109  C117  1.416206 A    
C170  C174  1.418821 A    
C148  C184  1.486199 S    
C187  H103  1.085980 S    
C108  C148  1.430861 A    
C59   C67   1.393068 A    
C47   H43   1.080854 S    
C48   H44   1.080619 S    
C84   C116  1.419257 A    
C69   C77   1.418831 A    
C159  C160  1.388727 A    
C112  C152  1.430938 A    
Zn8   O9    1.932471 S    
C24   C40   1.486942 S    
C131  H83   1.082665 S    
C132  H84   1.082687 S    
C133  H77   1.082065 S    
C19   C168  1.470535 S    
C7    C93   1.487240 S    
H20   C176  1.081136 S    
C56   H52   1.082629 S    
C162  C166  1.415725 A    
C138  C146  1.402081 A    
O7    C3    1.286559 A    
C88   C120  1.419692 A    
C95   C103  1.424954 A    
C16   C120  1.484340 S    
O19   C15   1.277466 A    
Zn13  O49   1.941070 S    
C142  C150  1.400489 A    
C43   C83   1.418040 A    
C26   H10   1.113650 S    
C27   C38   1.551211 S    
Zn6   O18   1.931475 S    
Zn10  O23   1.930083 S    
C49   H45   1.082126 S    
C79   C83   1.408124 A    
C58   C66   1.393317 A    
C168  C172  1.417434 A    
C182  O54   1.221668 D    
C130  H82   1.082109 S    
Zn15  O36   1.931944 S    
O15   C11   1.273744 A    
O42   C22   1.274956 A    
C97   C109  1.410266 A    
C28   C37   1.555237 S    
C81   C113  1.419107 A    
C46   H42   1.080264 S    
Zn4   O1    1.941190 S    
O17   C13   1.280818 A    
C30   C32   1.545324 S    
Zn9   O37   1.942257 S    
C35   C36   1.545207 S    
O12   C8    1.285503 A    
H86   C177  1.082649 S    
C53   C57   1.387702 A    
Zn11  O39   1.942257 S    
C46   C54   1.392637 A    
C60   H56   1.082815 S    
H21   C33   1.113134 S    
C183  O55   1.221155 D    
Zn5   O3    1.947480 S    
Zn13  O1    1.947768 S    
C31   H7    1.113597 S    
C54   H50   1.081971 S    
C121  C129  1.392126 A    
C139  C147  1.400045 A    
C171  C172  1.402391 A    
C8    C94   1.470989 S    
C10   C114  1.478840 S    
C157  C158  1.388644 A    
C136  H80   1.082669 S    
H35   C143  1.083868 S    
H24   C33   1.113038 S    
Zn9   O24   1.930326 S    
O28   C5    1.286762 A    
C159  H95   1.082720 S    
C17   C166  1.470749 S    
C163  C164  1.402408 A    
Zn3   O42   1.943018 S    
C161  C165  1.418291 A    
C23   C39   1.486535 S    
Zn7   O4    1.941192 S    
O21   C4    1.285377 A    
C50   C62   1.386736 A    
C44   C52   1.393205 A    
C175  C179  1.393507 A    
C105  C145  1.429837 A    
C143  C151  1.400259 A    
C48   C56   1.393256 A    
C102  C126  1.415083 A    
Zn14  O2    1.945321 S    
C78   C94   1.431885 A    
C186  O58   1.221177 D    
C160  H96   1.082741 S    
C83   C115  1.415330 A    
O44   C21   1.273879 A    
C28   H12   1.113590 S    
C146  C182  1.484200 S    
Zn12  O27   1.930083 S    
C35   C39   1.551171 S    
C85   C117  1.419019 A    
O16   C12   1.277704 A    
C61   C69   1.392837 A    
C30   C40   1.550573 S    
H19   C175  1.081248 S    
Zn3   O2    1.941192 S    
C127  C135  1.392941 A    
H27   C36   1.113033 S    
C122  H70   1.079941 S    
O46   C24   1.278315 A    
Zn4   O41   1.943017 S    
Zn16  O52   1.942299 S    
C100  C124  1.415326 A    
H88   C179  1.082665 S    
C151  C187  1.486210 S    
H30   C138  1.082809 S    
Zn16  O4    1.945321 S    
Zn8   O45   1.943017 S    
C41   C49   1.393104 A    
O27   C6    1.288024 A    
C47   C87   1.417949 A    
O39   C19   1.282561 A    
C187  O59   1.221105 D    
C67   H63   1.080531 S    
C158  H94   1.082731 S    
C131  C143  1.388810 A    
C29   C31   1.534175 S    
C156  H92   1.080976 S    
C73   C85   1.408644 A    
O24   C1    1.286896 A    
C76   C88   1.408097 A    
C77   C81   1.408352 A    
C79   C95   1.423564 A    
C156  C160  1.393726 A    
O43   C22   1.277091 A    
O14   C10   1.296966 A    
O47   C24   1.273915 A    
Zn3   O15   1.932514 S    
C127  H75   1.079854 S    
C128  H76   1.080225 S    
Zn5   O12   1.931433 S    
Zn6   O11   1.931899 S    
C101  C105  1.410444 A    
Zn9   O21   1.932461 S    
Zn14  O50   1.942299 S    
C124  H72   1.080154 S    
C125  H73   1.079285 S    
O35   C14   1.286691 A    
H18   C174  1.080953 S    
C134  H78   1.081911 S    
Zn9   O1    1.945622 S    
C184  O56   1.221100 D    
H36   C144  1.083876 S    
O52   C20   1.282331 A    
C55   C59   1.387960 A    
C126  C134  1.392920 A    
C29   H13   1.113633 S    
C154  H90   1.081061 S    
O22   C3    1.288658 A    
C140  C148  1.400207 A    
Zn7   O19   1.932514 S    
C176  C180  1.393618 A    
C50   H46   1.082798 S    
C111  C119  1.416061 A    
C12   C116  1.484466 S    
Zn13  O32   1.931944 S    
C144  C152  1.400188 A    
C2    C92   1.486691 S    
O49   C17   1.277880 A    
Zn14  O31   1.932711 S    
C123  C131  1.392188 A    
C134  C138  1.390821 A    
O51   C19   1.277997 A    
C106  C114  1.420528 A    
C126  H74   1.081088 S    
C27   H11   1.113062 S    
Zn4   O5    1.932471 S    
C103  C127  1.415582 A    
C147  C183  1.485814 S    
O20   C16   1.277152 A    
C165  C169  1.414560 A    
C5    C95   1.488019 S    
C26   C38   1.553572 S    
O23   C2    1.288434 A    
O6    C2    1.282605 A    
Zn11  O25   1.932461 S    
C161  C162  1.402528 A    
Zn10  O38   1.941028 S    
C188  O60   1.221097 D    
C124  C132  1.392083 A    
C54   C58   1.387819 A    
C68   H64   1.080693 S    
C69   H65   1.080504 S    
C174  C178  1.393675 A    
C128  C136  1.392070 A    
C107  C147  1.425952 A    
C181  H97   1.085191 S    
C125  C133  1.392445 A    
C62   H58   1.082139 S    
C51   H47   1.082619 S    
O45   C23   1.274989 A    
