data_mof_unit_51266.cif
_audit_creation_date              2012-10-26T19:09:53-0400
_audit_creation_method            fapswitch 2.2
_symmetry_space_group_name_H-M    P1
_symmetry_Int_Tables_number       1
_space_group_crystal_system       triclinic
_cell_length_a                    15.582047
_cell_length_b                    16.061995
_cell_length_c                    9.85777
_cell_angle_alpha                 90.99094
_cell_angle_beta                  90.201943
_cell_angle_gamma                 89.753043
_cell_volume                      2466.78387504

loop_
_atom_site_label
_atom_site_type_symbol
_atom_type_description
_atom_site_fract_x
_atom_site_fract_y
_atom_site_fract_z
_atom_type_partial_charge
C1    C     C_R   0.115619 0.377177 0.499020 0.702078
C2    C     C_R   0.877594 0.617212 0.500162 0.612630
C3    C     C_R   0.381457 0.879572 0.499131 0.653347
C4    C     C_R   0.377406 0.116953 0.500064 0.611237
C5    C     C_3   0.778095 0.294088 0.650179 0.411721
C6    C     C_3   0.849033 0.224133 0.442675 0.359090
C7    C     C_3   0.845143 0.773389 0.526991 0.328187
C8    C     C_3   0.756464 0.687201 0.354992 0.395366
C9    C     C_3   0.281555 0.790885 0.647727 0.422488
C10   C     C_3   0.348822 0.723617 0.436420 0.362061
C11   C     C_3   0.345647 0.273124 0.525409 0.325201
C12   C     C_R   0.120026 0.619594 0.500500 0.618619
C13   C     C_3   0.256290 0.186407 0.354144 0.398954
C14   C     C_3   0.225940 0.709395 0.648970 0.401899
C15   C     C_3   0.271592 0.659462 0.413619 0.428980
C16   C     C_3   0.272870 0.343198 0.532731 0.380232
C17   C     C_3   0.187935 0.261066 0.351016 0.402364
C18   C     C_3   0.723422 0.211672 0.651619 0.398510
C19   C     C_3   0.772645 0.159056 0.419349 0.424917
C20   C     C_3   0.771956 0.842967 0.533889 0.379068
C21   C     C_3   0.686962 0.760878 0.352295 0.402909
C22   C     C_3   0.731010 0.336691 0.411109 0.392841
C23   C     C_R   0.615053 0.876783 0.499226 0.698773
C24   C     C_3   0.731555 0.666191 0.609120 0.345629
C25   C     C_3   0.230946 0.837411 0.412972 0.396737
C26   C     C_3   0.231540 0.166791 0.608913 0.345124
C27   C     C_3   0.811353 0.310711 0.499588 0.085896
C28   C     C_3   0.804141 0.684225 0.499648 0.051286
C29   C     C_3   0.312371 0.809760 0.497578 0.085896
C30   C     C_3   0.304177 0.184050 0.498976 0.047227
C31   C     C_3   0.190243 0.689115 0.499889 0.037313
C32   C     C_3   0.181767 0.304914 0.496864 0.091383
C33   C     C_3   0.690055 0.189284 0.501518 0.044902
C34   C     C_R   0.620064 0.119558 0.500817 0.627397
C35   C     C_3   0.680973 0.804401 0.497784 0.093006
C36   C     C_3   0.155069 0.772961 0.434789 0.310744
C37   C     C_3   0.156990 0.234575 0.601099 0.369303
C38   C     C_3   0.655321 0.272036 0.432074 0.312381
C39   C     C_3   0.656283 0.733379 0.601135 0.370011
C40   C     C_3   0.941737 0.565666 0.084278 0.470826
C41   C     C_3   0.954280 0.573729 0.919666 0.433226
C42   C     C_3   0.977666 0.415349 0.078795 0.453518
C43   C     C_3   0.961268 0.421632 0.914894 0.482975
C44   C     C_3   0.443534 0.067224 0.085231 0.491539
C45   C     C_3   0.088556 0.522706 0.082725 0.489167
C46   C     C_3   0.457511 0.076141 0.920511 0.442618
C47   C     C_3   0.475203 0.916782 0.079934 0.450240
C48   C     C_3   0.458385 0.923454 0.915855 0.453351
C49   C     C_3   0.091509 0.498466 0.924149 0.494189
C50   C     C_3   0.589336 0.020425 0.081949 0.483248
C51   C     C_3   0.591521 0.995848 0.923345 0.493994
C52   C     C_R   0.880780 0.380187 0.499525 0.653766
Cl1   Cl    Cl    0.718109 0.382029 0.720147 -0.437044
Cl2   Cl    Cl    0.168879 0.555928 0.844908 -0.300483
Cl3   Cl    Cl    0.177688 0.481320 0.173884 -0.267481
Cl4   Cl    Cl    0.152815 0.404521 0.901757 -0.384841
Cl5   Cl    Cl    0.622996 0.127614 0.099763 -0.319887
Cl6   Cl    Cl    0.670902 0.050706 0.841927 -0.285127
Cl7   Cl    Cl    0.677812 0.978390 0.172660 -0.267632
Cl8   Cl    Cl    0.648614 0.899668 0.902611 -0.396547
Cl9   Cl    Cl    0.911552 0.233086 0.290486 -0.458355
Cl10  Cl    Cl    0.911930 0.776521 0.677407 -0.587765
Cl11  Cl    Cl    0.713950 0.586074 0.306796 -0.542040
Cl12  Cl    Cl    0.222679 0.877970 0.722911 -0.420239
Cl13  Cl    Cl    0.409203 0.733953 0.282595 -0.472572
Cl14  Cl    Cl    0.413283 0.275924 0.675318 -0.585820
Cl15  Cl    Cl    0.211918 0.085405 0.308372 -0.525957
Cl16  Cl    Cl    0.117947 0.631289 0.100387 -0.317711
Cu1   Cu    Cu3+1 0.000100 0.500000 0.642410 1.237727
Cu2   Cu    Cu3+1 0.000100 0.500000 0.357590 1.287849
Cu3   Cu    Cu3+1 0.500100 0.000000 0.642410 1.249567
Cu4   Cu    Cu3+1 0.500100 1.000000 0.357590 1.299315
H1    H     H_    0.826503 0.278853 0.830357 0.380058
H2    H     H_    0.339883 0.559451 0.388590 0.369802
H3    H     H_    0.342242 0.434843 0.471670 0.376160
H4    H     H_    0.200843 0.301817 0.165323 0.397709
H5    H     H_    0.792191 0.152174 0.789536 0.405123
H6    H     H_    0.842523 0.059899 0.401083 0.366516
H7    H     H_    0.841309 0.934387 0.472699 0.374988
H8    H     H_    0.695781 0.803870 0.167390 0.398960
H9    H     H_    0.106539 0.733399 0.713288 0.398342
H10   H     H_    0.253018 0.702455 0.228230 0.419988
H11   H     H_    0.271936 0.346325 0.733363 0.388990
H12   H     H_    0.936206 0.143861 0.501342 0.379622
H13   H     H_    0.089808 0.180801 0.331454 0.412408
H14   H     H_    0.610113 0.253050 0.719737 0.401583
H15   H     H_    0.756745 0.199004 0.231464 0.422642
H16   H     H_    0.769370 0.845794 0.734276 0.388565
H17   H     H_    0.590220 0.678865 0.329650 0.411577
H18   H     H_    0.651290 0.431263 0.399027 0.393811
H19   H     H_    0.711370 0.368532 0.221292 0.369724
H20   H     H_    0.774686 0.719663 0.780172 0.370537
H21   H     H_    0.740788 0.544728 0.607861 0.403991
H22   H     H_    0.151500 0.932443 0.407298 0.393674
H23   H     H_    0.935745 0.839427 0.440451 0.367162
H24   H     H_    0.208586 0.871473 0.225037 0.366533
H25   H     H_    0.276176 0.220365 0.778711 0.375845
H26   H     H_    0.239529 0.045256 0.609886 0.405409
H27   H     H_    0.046077 0.769691 0.523005 0.367522
H28   H     H_    0.080850 0.805280 0.283685 0.371447
H29   H     H_    0.122120 0.226594 0.791906 0.378041
H30   H     H_    0.061800 0.157018 0.628270 0.393702
H31   H     H_    0.546148 0.267639 0.519203 0.369954
H32   H     H_    0.583249 0.301764 0.276920 0.372628
H33   H     H_    0.620797 0.724046 0.791234 0.377683
H34   H     H_    0.788275 0.702792 0.166406 0.337426
H35   H     H_    0.561428 0.654868 0.626314 0.395315
H36   H     H_    0.928117 0.687243 0.098828 0.356619
H37   H     H_    0.963896 0.694912 0.893467 0.393665
H38   H     H_    0.026404 0.301638 0.091047 0.398208
H39   H     H_    0.971656 0.300884 0.887571 0.361940
H40   H     H_    0.431532 0.188489 0.101864 0.367212
H41   H     H_    0.474921 0.197322 0.897722 0.394646
H42   H     H_    0.520250 0.801763 0.094245 0.395817
H43   H     H_    0.467977 0.802072 0.893007 0.340280
H44   H     H_    0.816909 0.586570 0.073801 0.383845
H45   H     H_    0.333224 0.766407 0.822137 0.336963
H46   H     H_    0.854368 0.539458 0.803740 0.409834
H47   H     H_    0.860120 0.417260 0.159302 0.407813
H48   H     H_    0.836601 0.443516 0.953175 0.356856
H49   H     H_    0.320479 0.036505 0.044952 0.365420
H50   H     H_    0.352935 0.047386 0.812223 0.419474
H51   H     H_    0.351285 0.917604 0.133472 0.379967
H52   H     H_    0.342172 0.877054 0.929327 0.363813
H53   H     H_    0.436662 0.642054 0.488530 0.380209
H54   H     H_    0.435755 0.338626 0.436984 0.370187
H55   H     H_    0.288639 0.193050 0.163582 0.367885
H56   H     H_    0.295267 0.645446 0.782110 0.402484
N1    N     N_3   0.001260 0.500000 0.143650 -0.274658
N2    N     N_3   0.001260 0.500000 0.856350 -0.274786
N3    N     N_3   0.501260 1.000000 0.143650 -0.267805
N4    N     N_3   0.501260 1.000000 0.856350 -0.258522
O1    O     O_R   0.091250 0.408820 0.620260 -0.388127
O2    O     O_R   0.908940 0.408800 0.379740 -0.441829
O3    O     O_R   0.908940 0.591200 0.620260 -0.491925
O4    O     O_R   0.908940 0.591200 0.379740 -0.378981
O5    O     O_R   0.408940 0.908800 0.620260 -0.423357
O6    O     O_R   0.408940 0.908800 0.379740 -0.414272
O7    O     O_R   0.408940 0.091200 0.620260 -0.487783
O8    O     O_R   0.408940 0.091200 0.379740 -0.376450
O9    O     O_3   0.848875 0.283324 0.736484 -0.570340
O10   O     O_3   0.906998 0.193778 0.539963 -0.577467
O11   O     O_3   0.901312 0.789266 0.418373 -0.584547
O12   O     O_R   0.091250 0.408820 0.379740 -0.400147
O13   O     O_3   0.817579 0.703584 0.255792 -0.557793
O14   O     O_3   0.353908 0.778557 0.729779 -0.588813
O15   O     O_3   0.407891 0.691297 0.530341 -0.575272
O16   O     O_3   0.401172 0.288437 0.415783 -0.587115
O17   O     O_3   0.317041 0.201076 0.253252 -0.546885
O18   O     O_3   0.279310 0.641726 0.684923 -0.525031
O19   O     O_3   0.296780 0.579973 0.455462 -0.561787
O20   O     O_3   0.291189 0.404472 0.437227 -0.533859
O21   O     O_3   0.217392 0.320140 0.258552 -0.509259
O22   O     O_3   0.777895 0.145942 0.691796 -0.517016
O23   O     O_R   0.091250 0.591180 0.620260 -0.441905
O24   O     O_3   0.797818 0.080468 0.465174 -0.561650
O25   O     O_3   0.790116 0.904278 0.438413 -0.531510
O26   O     O_3   0.715352 0.820405 0.260016 -0.515407
O27   O     O_3   0.162733 0.718309 0.751183 -0.546783
O28   O     O_3   0.250121 0.649448 0.276019 -0.539603
O29   O     O_3   0.270090 0.385965 0.659067 -0.553784
O30   O     O_3   0.105199 0.237456 0.304673 -0.605291
O31   O     O_3   0.657899 0.218068 0.750413 -0.554750
O32   O     O_3   0.753016 0.146796 0.281378 -0.538151
O33   O     O_3   0.768906 0.885669 0.660260 -0.552936
O34   O     O_R   0.091250 0.591180 0.379740 -0.391980
O35   O     O_3   0.604115 0.736577 0.306860 -0.606974
O36   O     O_3   0.704904 0.417961 0.449057 -0.582706
O37   O     O_3   0.755581 0.338242 0.274039 -0.653057
O38   O     O_3   0.765433 0.663830 0.741100 -0.623196
O39   O     O_3   0.696607 0.586715 0.584174 -0.572799
O40   O     O_3   0.205890 0.918337 0.454576 -0.583544
O41   O     O_3   0.253736 0.840847 0.275245 -0.652369
O42   O     O_3   0.265130 0.164547 0.740898 -0.625536
O43   O     O_3   0.195923 0.087518 0.584788 -0.575931
O44   O     O_3   0.093962 0.809606 0.521197 -0.660982
O45   O     O_R   0.591250 0.908820 0.620260 -0.392567
O46   O     O_3   0.114360 0.755293 0.309947 -0.593750
O47   O     O_3   0.141429 0.270496 0.729243 -0.614704
O48   O     O_3   0.079722 0.197505 0.558908 -0.628470
O49   O     O_3   0.592317 0.309287 0.514029 -0.672649
O50   O     O_3   0.616885 0.252507 0.306187 -0.590949
O51   O     O_3   0.639600 0.768502 0.729215 -0.615271
O52   O     O_3   0.579559 0.695698 0.557619 -0.622995
O53   O     O_3   0.956739 0.642669 0.150195 -0.512201
O54   O     O_3   0.001697 0.645358 0.887886 -0.566340
O55   O     O_3   0.045678 0.359853 0.106101 -0.571459
O56   O     O_R   0.591250 0.908820 0.379740 -0.401363
O57   O     O_3   0.996536 0.351589 0.847780 -0.514894
O58   O     O_3   0.461898 0.143659 0.150346 -0.507681
O59   O     O_3   0.509266 0.145388 0.890928 -0.559359
O60   O     O_3   0.541534 0.859416 0.107082 -0.575462
O61   O     O_3   0.489163 0.852037 0.846511 -0.522061
O62   O     O_3   0.856483 0.546318 0.115662 -0.677047
O63   O     O_3   0.872172 0.585061 0.864561 -0.652408
O64   O     O_3   0.905347 0.377749 0.135825 -0.581278
O65   O     O_3   0.873182 0.416732 0.884162 -0.638552
O66   O     O_3   0.357740 0.052048 0.122150 -0.620736
O67   O     O_R   0.591250 0.091180 0.620260 -0.424918
O68   O     O_3   0.377194 0.094024 0.864473 -0.631327
O69   O     O_3   0.402696 0.883233 0.142130 -0.586449
O70   O     O_3   0.369882 0.926252 0.890966 -0.698113
O71   O     O_R   0.591250 0.091180 0.379740 -0.397049
O72   O     O_R   0.908940 0.408800 0.620260 -0.425179

loop_
_geom_bond_atom_site_label_1
_geom_bond_atom_site_label_2
_ccdc_geom_bond_type
C42   O55   S    
H32   O50   S    
C40   N1    S    
C44   O66   S    
H9    O27   S    
C15   O28   S    
C48   O61   S    
C9    Cl12  S    
H30   O48   S    
C21   O26   S    
C9    O14   S    
C8    O13   S    
C14   C31   S    
C17   O21   S    
H40   O58   S    
C7    O11   S    
Cu3   O5    S    
C40   O62   S    
C44   N3    S    
H23   O11   S    
C6    C19   S    
Cu1   O23   S    
H34   O13   S    
C50   Cl7   S    
C6    Cl9   S    
C5    Cl1   S    
C10   C15   S    
Cu2   O34   S    
C12   O34   A    
C23   O56   A    
C11   O16   S    
C26   O42   S    
C49   Cl2   S    
C22   C38   S    
C48   O70   S    
H4    O21   S    
C24   C39   S    
C52   O2    A    
C47   O69   S    
H47   O64   S    
C18   O31   S    
C47   O60   S    
C3    C29   S    
C24   O39   S    
H17   O35   S    
H22   O40   S    
Cu3   N4    S    
C5    C27   S    
C20   C35   S    
C46   O68   S    
C34   O67   A    
Cu4   O56   S    
H27   O44   S    
C47   C48   S    
C11   C30   S    
H20   O38   S    
Cu1   N2    S    
C3    O5    A    
C45   C49   S    
C6    O10   S    
C24   O38   S    
C46   O59   S    
C39   O52   S    
C18   O22   S    
C11   Cl14  S    
C9    C29   S    
C10   O15   S    
H44   O62   S    
Cu4   O6    S    
H15   O32   S    
H43   O61   S    
H28   O46   S    
Cu1   O3    S    
Cu2   O4    S    
C19   O24   S    
C1    O1    A    
C15   O19   S    
H3    O20   S    
C44   C46   S    
C8    C21   S    
Cu3   O67   S    
C25   C29   S    
C37   O47   S    
C44   O58   S    
H38   O55   S    
H42   O60   S    
H24   O41   S    
H51   O69   S    
C13   C30   S    
C36   O46   S    
C43   O65   S    
H53   O15   S    
H16   O33   S    
C3    O6    A    
H54   O16   S    
H1    O9    S    
C40   O53   S    
C8    Cl11  S    
H13   O30   S    
Cu2   N1    S    
C2    O4    A    
C7    C28   S    
H52   O70   S    
H45   O14   S    
C52   O72   A    
C35   C39   S    
C9    C14   S    
C7    Cl10  S    
H29   O47   S    
H5    O22   S    
C4    O8    A    
H10   O28   S    
C11   C16   S    
H36   O53   S    
C5    O9    S    
C6    C27   S    
H12   O10   S    
C34   O71   A    
C14   O18   S    
C45   Cl16  S    
C50   C51   S    
C17   O30   S    
C16   O20   S    
C51   Cl6   S    
C32   C37   S    
H33   O51   S    
C42   O64   S    
H46   O63   S    
C38   O49   S    
C45   Cl3   S    
Cu4   O71   S    
C25   O40   S    
H56   O18   S    
C40   C41   S    
H39   O57   S    
C23   C35   S    
C22   C27   S    
C12   C31   S    
C19   C33   S    
C16   O29   S    
H2    O19   S    
C36   O44   S    
H48   O65   S    
C42   C43   S    
C12   O23   A    
C27   C52   S    
Cu4   N3    S    
C13   Cl15  S    
C10   Cl13  S    
C37   O48   S    
H21   O39   S    
Cu1   O1    S    
H25   O42   S    
H18   O36   S    
H31   O49   S    
C50   Cl5   S    
C43   N2    S    
C24   C28   S    
H14   O31   S    
C21   O35   S    
H7    O25   S    
Cu3   O7    S    
C51   N4    S    
C26   C37   S    
C15   C31   S    
C21   C35   S    
H41   O59   S    
H37   O54   S    
C16   C32   S    
C49   Cl4   S    
C49   N2    S    
C14   O27   S    
Cu2   O12   S    
C2    O3    A    
C38   O50   S    
C13   C17   S    
H35   O52   S    
C20   O25   S    
Cu3   O45   S    
C22   O36   S    
Cu3   Cu4   S    
C41   O63   S    
C1    O12   A    
H55   O17   S    
C4    O7    A    
C46   N4    S    
H26   O43   S    
C10   C29   S    
H6    O24   S    
C41   N2    S    
C26   O43   S    
C5    C18   S    
C8    C28   S    
C45   N1    S    
C33   C34   S    
C41   O54   S    
C42   N1    S    
C19   O32   S    
C1    C32   S    
H11   O29   S    
Cu1   Cu2   S    
C18   C33   S    
C39   O51   S    
H49   O66   S    
C23   O45   A    
C22   O37   S    
C50   N3    S    
C25   C36   S    
C13   O17   S    
C25   O41   S    
Cu4   O8    S    
C43   O57   S    
Cu1   O72   S    
C7    C20   S    
C47   N3    S    
Cu2   O2    S    
C17   C32   S    
C31   C36   S    
C48   N4    S    
C33   C38   S    
C2    C28   S    
C51   Cl8   S    
H50   O68   S    
H8    O26   S    
C4    C30   S    
H19   O37   S    
C26   C30   S    
C20   O33   S    
