data_mof_unit_52561.cif
_audit_creation_date              2012-12-11T15:12:16-0500
_audit_creation_method            fapswitch 2.2
_symmetry_space_group_name_H-M    P1
_symmetry_Int_Tables_number       1
_space_group_crystal_system       triclinic
_cell_length_a                    30.988855
_cell_length_b                    22.363988
_cell_length_c                    18.068144
_cell_angle_alpha                 89.11708
_cell_angle_beta                  124.094503
_cell_angle_gamma                 91.025464
_cell_volume                      10367.6372274

loop_
_atom_site_label
_atom_site_type_symbol
_atom_type_description
_atom_site_fract_x
_atom_site_fract_y
_atom_site_fract_z
_atom_type_partial_charge
C1    C     C_R   0.537103 0.606520 0.715662 0.019854
C2    C     C_R   0.245517 0.638526 0.513821 0.130191
C3    C     C_R   0.316014 0.322389 0.943576 0.128161
C4    C     C_R   0.857530 0.299725 0.095911 0.126822
C5    C     C_R   0.184833 0.817470 0.055964 0.133205
C6    C     C_R   0.144435 0.297210 0.904950 0.129732
C7    C     C_R   0.816030 0.822377 0.943580 0.128160
C8    C     C_R   0.292070 0.802290 0.132339 0.107678
C9    C     C_R   0.764349 0.345822 0.063836 0.084967
C10   C     C_R   0.708765 0.804967 0.866152 0.095406
C11   C     C_R   0.236391 0.348252 0.934422 0.087916
C12   C     C_R   0.792076 0.302301 0.132348 0.107675
C13   C     C_R   0.266329 0.259329 0.421483 0.144855
C14   C     C_R   0.264345 0.845814 0.063832 0.084964
C15   C     C_R   0.208753 0.304973 0.866165 0.095427
C16   C     C_R   0.736400 0.848255 0.934396 0.087921
C17   C     C_R   0.789926 0.374266 0.028080 -0.231881
C18   C     C_R   0.268258 0.777878 0.173797 -0.331477
C19   C     C_R   0.210822 0.374663 0.970120 -0.238466
C20   C     C_R   0.732520 0.782712 0.824611 -0.299908
C21   C     C_R   0.289923 0.874262 0.028081 -0.231870
C22   C     C_R   0.768266 0.277895 0.173814 -0.331463
C23   C     C_R   0.710825 0.874680 0.970074 -0.238365
C24   C     C_R   0.780405 0.627684 0.561094 0.120646
C25   C     C_R   0.232501 0.282734 0.824604 -0.299854
C26   C     C_R   0.836132 0.351996 0.043495 -0.094973
C27   C     C_R   0.215340 0.785912 0.137542 -0.072898
C28   C     C_R   0.165262 0.349709 0.956284 -0.091314
C29   C     C_R   0.785632 0.791603 0.861761 -0.087667
C30   C     C_R   0.336129 0.851993 0.043495 -0.094997
C31   C     C_R   0.715348 0.285926 0.137557 -0.072894
C32   C     C_R   0.665262 0.849732 0.956235 -0.091662
C33   C     C_R   0.285611 0.291628 0.861746 -0.087713
C34   C     C_R   0.597504 0.569546 0.424849 -0.040863
C35   C     C_R   0.209649 0.799214 0.457190 0.123620
C36   C     C_R   0.415207 0.398957 0.577152 -0.058608
C37   C     C_R   0.402612 0.574997 0.573436 -0.010163
C38   C     C_R   0.575278 0.391290 0.423399 -0.088548
C39   C     C_R   0.097487 0.069539 0.424826 -0.040915
C40   C     C_R   0.915251 0.898874 0.577132 -0.058390
C41   C     C_R   0.902615 0.075006 0.573437 -0.010196
C42   C     C_R   0.075280 0.891291 0.423399 -0.088558
C43   C     C_R   0.389764 0.602939 0.278389 -0.013505
C44   C     C_R   0.616232 0.413829 0.742433 0.025083
C45   C     C_R   0.611040 0.602821 0.721330 -0.030822
C46   C     C_R   0.745507 0.138531 0.513785 0.130173
C47   C     C_R   0.383584 0.414008 0.257308 0.031957
C48   C     C_R   0.889765 0.102943 0.278393 -0.013555
C49   C     C_R   0.116232 0.913832 0.742435 0.025089
C50   C     C_R   0.111039 0.102822 0.721327 -0.030762
C51   C     C_R   0.883580 0.914026 0.257291 0.031612
C52   C     C_R   0.584743 0.636055 0.749064 -0.088115
C53   C     C_R   0.403485 0.399431 0.206576 -0.066568
C54   C     C_R   0.417084 0.637370 0.251959 -0.085925
C55   C     C_R   0.596377 0.398057 0.793499 -0.065748
C56   C     C_R   0.084745 0.136050 0.749073 -0.088079
C57   C     C_R   0.766563 0.758912 0.421251 0.144467
C58   C     C_R   0.903482 0.899446 0.206563 -0.066500
C59   C     C_R   0.917086 0.137375 0.251965 -0.085910
C60   C     C_R   0.096377 0.898061 0.793501 -0.065762
C61   C     C_R   0.647906 0.578003 0.495522 0.014344
C62   C     C_R   0.372020 0.372603 0.504627 0.016596
C63   C     C_R   0.353923 0.585472 0.500026 -0.020832
C64   C     C_R   0.614572 0.361819 0.495962 0.036689
C65   C     C_R   0.147885 0.077998 0.495476 0.014254
C66   C     C_R   0.872099 0.872463 0.504589 0.016678
C67   C     C_R   0.853928 0.085487 0.500026 -0.020779
C68   C     C_R   0.280322 0.127774 0.560891 0.120699
C69   C     C_R   0.114576 0.861822 0.495962 0.036690
C70   C     C_R   0.644227 0.261626 0.510896 -0.161144
C71   C     C_R   0.314310 0.679551 0.469444 -0.159252
C72   C     C_R   0.366723 0.279160 0.572053 -0.151131
C73   C     C_R   0.680157 0.612533 0.406286 -0.117083
C74   C     C_R   0.144243 0.761630 0.510936 -0.161157
C75   C     C_R   0.814322 0.179571 0.469463 -0.159294
C76   C     C_R   0.866799 0.779039 0.572113 -0.151162
C77   C     C_R   0.180028 0.112742 0.406199 -0.117309
C78   C     C_R   0.646609 0.320774 0.489773 -0.027088
C79   C     C_R   0.709355 0.238884 0.482615 0.012827
C80   C     C_R   0.316348 0.621481 0.498690 -0.004852
C81   C     C_R   0.341226 0.323392 0.505992 -0.009087
C82   C     C_R   0.692346 0.588104 0.487560 -0.026854
C83   C     C_R   0.146610 0.820772 0.489774 -0.027090
C84   C     C_R   0.816353 0.121497 0.498691 -0.004884
C85   C     C_R   0.841327 0.823173 0.505885 -0.009494
C86   C     C_R   0.192283 0.088173 0.487437 -0.026881
C87   C     C_R   0.679567 0.341243 0.464548 -0.081489
C88   C     C_R   0.281727 0.598785 0.518620 -0.100221
C89   C     C_R   0.288424 0.316672 0.436020 -0.139495
C90   C     C_R   0.244224 0.698671 0.485548 0.018852
C91   C     C_R   0.744704 0.587626 0.562050 -0.075527
C92   C     C_R   0.179555 0.841232 0.464516 -0.081425
C93   C     C_R   0.781723 0.098795 0.518595 -0.100035
C94   C     C_R   0.788582 0.816302 0.435700 -0.139130
C95   C     C_R   0.244655 0.087668 0.561857 -0.075620
C96   C     C_2   0.499745 0.620606 0.737945 0.444123
C97   C     C_2   0.483123 0.438915 0.215000 0.412279
C98   C     C_2   0.502837 0.623266 0.265565 0.444896
C99   C     C_2   0.517512 0.436055 0.785782 0.430017
C100  C     C_2   0.999753 0.120585 0.737975 0.444117
C101  C     C_R   0.290021 0.216754 0.491804 0.001018
C102  C     C_2   0.983128 0.938918 0.215004 0.412211
C103  C     C_2   0.002834 0.123268 0.265559 0.444855
C104  C     C_2   0.017503 0.936048 0.785771 0.430008
C105  C     C_2   0.332375 0.599699 0.228082 0.410294
C106  C     C_2   0.671016 0.411228 0.771813 0.419688
C107  C     C_2   0.668250 0.601008 0.768936 0.449749
C108  C     C_2   0.328636 0.410065 0.226925 0.416845
C109  C     C_2   0.832377 0.099710 0.228090 0.410309
C110  C     C_2   0.171017 0.911234 0.771816 0.419648
C111  C     C_2   0.168248 0.101021 0.768907 0.449728
C112  C     C_R   0.454786 0.419611 0.255503 -0.044703
C113  C     C_R   0.762173 0.664825 0.485220 0.000934
C114  C     C_2   0.828626 0.910113 0.226886 0.417106
C115  C     C_2   0.685111 0.406784 0.453533 0.475577
C116  C     C_2   0.283419 0.533918 0.540181 0.499918
C117  C     C_2   0.256080 0.370636 0.388004 0.572750
C118  C     C_2   0.759421 0.547392 0.638842 0.516255
C119  C     C_2   0.185091 0.906768 0.453467 0.475425
C120  C     C_2   0.783412 0.033926 0.540145 0.499775
C121  C     C_2   0.756213 0.870211 0.387452 0.572398
C122  C     C_2   0.259409 0.047381 0.638614 0.516491
C123  C     C_2   0.310954 0.803455 0.405583 0.497338
C124  C     C_R   0.209356 0.738876 0.482624 0.012811
C125  C     C_2   0.638181 0.133605 0.552276 0.548535
C126  C     C_2   0.653227 0.671411 0.235699 0.541318
C127  C     C_2   0.413855 0.192238 0.726449 0.557871
C128  C     C_2   0.810980 0.303483 0.405639 0.497358
C129  C     C_2   0.138230 0.633624 0.552407 0.548608
C130  C     C_2   0.152784 0.172167 0.235797 0.541326
C131  C     C_2   0.913817 0.692373 0.726809 0.557858
C132  C     C_2   0.859304 0.384168 0.000947 0.555888
C133  C     C_2   0.193828 0.758486 0.185958 0.487289
C134  C     C_2   0.142321 0.379171 0.999580 0.546288
C135  C     C_R   0.744224 0.198682 0.485539 0.018834
C136  C     C_2   0.807512 0.765348 0.814554 0.542127
C137  C     C_2   0.359301 0.884167 0.000949 0.555909
C138  C     C_2   0.693837 0.258507 0.185979 0.487371
C139  C     C_2   0.642317 0.879207 0.999515 0.546906
C140  C     C_2   0.307484 0.265391 0.814517 0.542301
C141  C     C_R   0.790187 0.716488 0.491787 0.000907
C142  C     C_R   0.262017 0.165063 0.485139 0.000900
C143  C     C_R   0.675266 0.219380 0.507373 0.100875
C144  C     C_R   0.278867 0.719146 0.462502 0.081441
C145  C     C_R   0.339886 0.227695 0.570224 0.109943
C146  C     C_R   0.713970 0.652693 0.404323 0.107778
C147  C     C_R   0.175281 0.719381 0.507417 0.100862
C148  C     C_R   0.464193 0.607708 0.285397 0.008794
C149  C     C_R   0.778878 0.219164 0.462520 0.081442
C150  C     C_R   0.839977 0.727565 0.570311 0.109885
C151  C     C_R   0.213763 0.153038 0.404281 0.107641
C152  C     C_R   0.740279 0.316532 0.425734 -0.179262
C153  C     C_R   0.211593 0.620258 0.538304 -0.243975
C154  C     C_R   0.222328 0.242808 0.338010 -0.210654
C155  C     C_R   0.832107 0.635315 0.635042 -0.239949
C156  C     C_R   0.240256 0.816507 0.425681 -0.179233
C157  C     C_R   0.711567 0.120252 0.538229 -0.244057
C158  C     C_R   0.722691 0.742199 0.337732 -0.210462
C159  C     C_R   0.545185 0.418135 0.744627 -0.045827
C160  C     C_R   0.332067 0.135307 0.634740 -0.239825
C161  C     C_R   0.276420 0.778189 0.431356 -0.086806
C162  C     C_R   0.675145 0.159065 0.532084 -0.086444
C163  C     C_R   0.697398 0.687890 0.327256 -0.088722
C164  C     C_R   0.361873 0.185270 0.641239 -0.086183
C165  C     C_R   0.776440 0.278213 0.431399 -0.086809
C166  C     C_R   0.175174 0.659073 0.532166 -0.086472
C167  C     C_R   0.197065 0.188454 0.327358 -0.088262
C168  C     C_R   0.861908 0.685268 0.641490 -0.086153
C169  C     C_R   0.398392 0.694003 0.199046 0.137943
C170  C     C_R   0.037106 0.106514 0.715672 0.019775
C171  C     C_R   0.625695 0.374728 0.887201 0.120871
C172  C     C_R   0.604405 0.691594 0.803171 0.140818
C173  C     C_R   0.374499 0.377096 0.113085 0.127045
C174  C     C_R   0.898395 0.194008 0.199054 0.137956
C175  C     C_R   0.125693 0.874729 0.887200 0.120904
C176  C     C_R   0.104407 0.191583 0.803192 0.140751
C177  C     C_R   0.874503 0.877106 0.113074 0.127015
C178  C     C_R   0.393130 0.764422 0.091033 -0.119482
C179  C     C_R   0.630260 0.309546 0.999975 -0.106605
C180  C     C_R   0.610284 0.759061 0.912222 -0.119009
C181  C     C_R   0.954786 0.919616 0.255501 -0.044642
C182  C     C_R   0.370394 0.314631 0.000655 -0.109889
C183  C     C_R   0.893133 0.264425 0.091037 -0.119495
C184  C     C_R   0.130254 0.809543 0.999967 -0.106659
C185  C     C_R   0.110292 0.259032 0.912265 -0.118908
C186  C     C_R   0.870408 0.814620 0.000672 -0.109861
C187  C     C_R   0.410869 0.710609 0.138121 -0.108799
C188  C     C_R   0.601786 0.334839 0.914503 -0.224337
C189  C     C_R   0.593103 0.705281 0.865896 -0.100077
C190  C     C_R   0.398469 0.338591 0.086449 -0.219558
C191  C     C_R   0.910871 0.210612 0.138127 -0.108817
C192  C     C_R   0.964194 0.107710 0.285399 0.008824
C193  C     C_R   0.101781 0.834841 0.914498 -0.224382
C194  C     C_R   0.093113 0.205255 0.865932 -0.099951
C195  C     C_R   0.898478 0.838591 0.086459 -0.219594
C196  C     C_R   0.365743 0.731153 0.208315 -0.230452
C197  C     C_R   0.678584 0.388546 0.947641 -0.120929
C198  C     C_R   0.636017 0.731106 0.792252 -0.236450
C199  C     C_R   0.322079 0.391021 0.051840 -0.134478
C200  C     C_R   0.865747 0.231161 0.208324 -0.230438
C201  C     C_R   0.178582 0.888545 0.947642 -0.120962
C202  C     C_R   0.136009 0.231107 0.792265 -0.236407
C203  C     C_R   0.045184 0.918136 0.744626 -0.045938
C204  C     C_R   0.822085 0.891034 0.051812 -0.134441
C205  C     C_R   0.339497 0.779319 0.148961 0.073161
C206  C     C_R   0.710019 0.353401 0.025124 0.051626
C207  C     C_R   0.661885 0.779492 0.850790 0.072020
C208  C     C_R   0.290764 0.356921 0.973740 0.057069
C209  C     C_R   0.839502 0.279328 0.148969 0.073157
C210  C     C_R   0.210015 0.853395 0.025121 0.051610
C211  C     C_R   0.161877 0.279489 0.850811 0.072003
C212  C     C_R   0.790775 0.856923 0.973722 0.057037
C213  C     C_R   0.646645 0.574296 0.570603 -0.141127
C214  C     C_R   0.709661 0.299230 0.457217 0.123619
C215  C     C_R   0.364658 0.398898 0.428862 -0.152221
C216  C     C_R   0.354449 0.576709 0.426623 -0.133853
C217  C     C_R   0.629434 0.393119 0.571592 -0.146654
C218  C     C_R   0.146646 0.074286 0.570580 -0.141036
C219  C     C_R   0.864718 0.898821 0.428847 -0.152456
C220  C     C_R   0.854451 0.076719 0.426622 -0.133802
C221  C     C_R   0.129436 0.893120 0.571592 -0.146638
C222  C     C_R   0.357526 0.799720 0.095906 0.126803
C223  C     C_R   0.684839 0.317478 0.055972 0.133198
C224  C     C_R   0.644436 0.797228 0.904913 0.129806
H1    H     H_    0.695033 0.424326 0.930396 0.125413
H2    H     H_    0.433555 0.681962 0.125124 0.133758
H3    H     H_    0.787074 0.728800 0.768146 0.033113
H4    H     H_    0.334882 0.912007 0.942369 0.044798
H5    H     H_    0.714107 0.221782 0.232417 0.014867
H6    H     H_    0.666607 0.907574 0.057203 0.043625
H7    H     H_    0.287042 0.228851 0.768093 0.033062
H8    H     H_    0.438862 0.326247 0.132444 0.134286
H9    H     H_    0.571511 0.674507 0.880465 0.131057
H10   H     H_    0.061162 0.822283 0.869188 0.147029
H11   H     H_    0.933556 0.181964 0.125127 0.133757
H12   H     H_    0.938869 0.826246 0.132467 0.134281
H13   H     H_    0.071529 0.174470 0.880505 0.131101
H14   H     H_    0.404057 0.775142 0.045073 0.172814
H15   H     H_    0.609902 0.278892 0.017416 0.179167
H16   H     H_    0.600141 0.767646 0.959357 0.168393
H17   H     H_    0.359652 0.719874 0.259963 0.121895
H18   H     H_    0.390756 0.284984 0.983768 0.177869
H19   H     H_    0.904059 0.275143 0.045076 0.172800
H20   H     H_    0.109894 0.778888 0.017403 0.179148
H21   H     H_    0.100155 0.267604 0.959412 0.168335
H22   H     H_    0.890774 0.784965 0.983804 0.177863
H23   H     H_    0.773526 0.412569 0.984329 0.145308
H24   H     H_    0.289387 0.749998 0.232613 0.120433
H25   H     H_    0.226947 0.413104 0.013078 0.141366
H26   H     H_    0.711274 0.755485 0.765534 0.127662
H27   H     H_    0.273525 0.912567 0.984336 0.145300
H28   H     H_    0.305793 0.425799 0.069018 0.123013
H29   H     H_    0.789397 0.250022 0.232636 0.120428
H30   H     H_    0.726948 0.913127 0.013020 0.141399
H31   H     H_    0.211250 0.255517 0.765518 0.127666
H32   H     H_    0.680023 0.572664 0.638089 0.162526
H33   H     H_    0.333057 0.388922 0.362278 0.105191
H34   H     H_    0.320698 0.576754 0.359061 0.163698
H35   H     H_    0.663753 0.384441 0.636336 0.133021
H36   H     H_    0.180037 0.072653 0.638058 0.162461
H37   H     H_    0.833162 0.888807 0.362257 0.105489
H38   H     H_    0.820700 0.076765 0.359062 0.163729
H39   H     H_    0.641435 0.721762 0.739722 0.116980
H40   H     H_    0.163753 0.884441 0.636339 0.133032
H41   H     H_    0.586431 0.556193 0.359414 0.128580
H42   H     H_    0.430945 0.389516 0.646369 0.148507
H43   H     H_    0.411626 0.569144 0.639906 0.111802
H44   H     H_    0.557717 0.379940 0.354376 0.138139
H45   H     H_    0.086407 0.056183 0.359387 0.128626
H46   H     H_    0.931004 0.889401 0.646347 0.148388
H47   H     H_    0.911627 0.069155 0.639906 0.111820
H48   H     H_    0.057717 0.879940 0.354377 0.138121
H49   H     H_    0.619388 0.250229 0.533568 0.183205
H50   H     H_    0.195032 0.924325 0.930401 0.125410
H51   H     H_    0.340560 0.692512 0.450357 0.181871
H52   H     H_    0.407664 0.285030 0.623207 0.163603
H53   H     H_    0.640738 0.610127 0.348149 0.163065
H54   H     H_    0.119415 0.750241 0.533631 0.183205
H55   H     H_    0.840581 0.192536 0.450394 0.181878
H56   H     H_    0.907703 0.785005 0.623408 0.163569
H57   H     H_    0.140598 0.110350 0.348115 0.163158
H58   H     H_    0.737676 0.361005 0.399094 0.164518
H59   H     H_    0.212875 0.575430 0.562594 0.175032
H60   H     H_    0.208568 0.271208 0.279961 0.167958
H61   H     H_    0.859658 0.219884 0.259974 0.121880
H62   H     H_    0.849251 0.604231 0.690549 0.185501
H63   H     H_    0.237643 0.860973 0.399014 0.164502
H64   H     H_    0.712838 0.075417 0.562491 0.175027
H65   H     H_    0.709055 0.770391 0.279523 0.168874
H66   H     H_    0.349251 0.104119 0.690123 0.185468
H67   H     H_    0.488193 0.586450 0.766833 0.064395
H68   H     H_    0.469027 0.426880 0.147142 0.054909
H69   H     H_    0.514362 0.590097 0.237007 0.060898
H70   H     H_    0.529605 0.419880 0.851428 0.057633
H71   H     H_    0.988201 0.086416 0.766846 0.064374
H72   H     H_    0.805797 0.925821 0.068971 0.123058
H73   H     H_    0.969033 0.926885 0.147146 0.054924
H74   H     H_    0.014349 0.090103 0.236981 0.060950
H75   H     H_    0.029612 0.919899 0.851435 0.057637
H76   H     H_    0.308482 0.637725 0.190905 0.037509
H77   H     H_    0.687375 0.446251 0.752422 0.093980
H78   H     H_    0.692362 0.639973 0.802441 0.034393
H79   H     H_    0.311797 0.444887 0.243597 0.092675
H80   H     H_    0.808486 0.137741 0.190928 0.037515
H81   H     H_    0.187374 0.946258 0.752425 0.093996
H82   H     H_    0.192355 0.139993 0.802389 0.034348
H83   H     H_    0.141420 0.221774 0.739725 0.116989
H84   H     H_    0.811809 0.944919 0.243626 0.092879
H85   H     H_    0.651091 0.434605 0.414201 0.051153
H86   H     H_    0.320663 0.511861 0.582036 0.022706
H87   H     H_    0.273832 0.414808 0.402330 0.031206
H88   H     H_    0.741446 0.503326 0.626145 0.065517
H89   H     H_    0.151065 0.934585 0.414139 0.051141
H90   H     H_    0.820657 0.011874 0.582030 0.022816
H91   H     H_    0.773856 0.914486 0.402681 0.031967
H92   H     H_    0.241393 0.003339 0.625895 0.065517
H93   H     H_    0.294951 0.834052 0.349108 0.028871
H94   H     H_    0.561168 0.322277 0.869194 0.147111
H95   H     H_    0.650809 0.097943 0.601480 0.018254
H96   H     H_    0.633426 0.705936 0.184832 0.031019
H97   H     H_    0.435759 0.152674 0.762780 0.021852
H98   H     H_    0.794981 0.334084 0.349169 0.028884
H99   H     H_    0.150874 0.597982 0.601641 0.018262
H100  H     H_    0.132867 0.206805 0.185207 0.031400
H101  H     H_    0.935749 0.652864 0.763330 0.021780
H102  H     H_    0.834884 0.412006 0.942364 0.044787
H103  H     H_    0.214095 0.721755 0.232385 0.014879
H104  H     H_    0.166611 0.407534 0.057271 0.043175
N1    N     N_R   0.532970 0.559900 0.665210 -0.072695
N2    N     N_R   0.402100 0.440070 0.454470 -0.050802
N3    N     N_R   0.402100 0.559930 0.454470 -0.043425
N4    N     N_R   0.597900 0.440070 0.545530 -0.058233
N5    N     N_R   0.097900 0.059930 0.545530 -0.044132
N6    N     N_R   0.902100 0.940070 0.454470 -0.050831
N7    N     N_R   0.902100 0.059930 0.454470 -0.043443
N8    N     N_R   0.097900 0.940070 0.545530 -0.058230
N9    N     N_R   0.567170 0.559950 0.454460 -0.047416
N10   N     N_R   0.432830 0.440050 0.545540 -0.035569
N11   N     N_R   0.432830 0.559950 0.545540 -0.048563
N12   N     N_R   0.467030 0.440100 0.334790 -0.047543
N13   N     N_R   0.567170 0.440050 0.454460 -0.033009
N14   N     N_R   0.067170 0.059950 0.454460 -0.047405
N15   N     N_R   0.932830 0.940050 0.545540 -0.035537
N16   N     N_R   0.932830 0.059950 0.545540 -0.048570
N17   N     N_R   0.067170 0.940050 0.454460 -0.033003
N18   N     N_R   0.421470 0.559970 0.334770 -0.052543
N19   N     N_R   0.578530 0.440030 0.665230 -0.083967
N20   N     N_R   0.578530 0.559970 0.665230 -0.053273
N21   N     N_R   0.421470 0.440030 0.334770 -0.083841
N22   N     N_R   0.921470 0.059970 0.334770 -0.052551
N23   N     N_R   0.467030 0.559900 0.334790 -0.076144
N24   N     N_R   0.078530 0.940030 0.665230 -0.083966
N25   N     N_R   0.078530 0.059970 0.665230 -0.053280
N26   N     N_R   0.921470 0.940030 0.334770 -0.083830
N27   N     N_R   0.532970 0.440100 0.665210 -0.048959
N28   N     N_R   0.032970 0.059900 0.665210 -0.072724
N29   N     N_R   0.967030 0.940100 0.334790 -0.047529
N30   N     N_R   0.967030 0.059900 0.334790 -0.076144
N31   N     N_R   0.032970 0.940100 0.665210 -0.048962
N32   N     N_R   0.597900 0.559930 0.545530 -0.044149
Ni1   Ni    Ni4+2 0.483030 0.500000 0.604430 0.265652
Ni2   Ni    Ni4+2 0.516970 0.500000 0.395570 0.261539
Ni3   Ni    Ni4+2 0.983030 0.000000 0.604430 0.265660
Ni4   Ni    Ni4+2 0.016970 0.000000 0.395570 0.261533
Ni5   Ni    Ni4+2 0.587400 0.500000 0.604430 0.239406
Ni6   Ni    Ni4+2 0.412600 0.500000 0.395570 0.242590
Ni7   Ni    Ni4+2 0.087400 0.000000 0.604430 0.239412
Ni8   Ni    Ni4+2 0.912600 0.000000 0.395570 0.242614
O1    O     O_2   0.481902 0.670813 0.725025 -0.540909
O2    O     O_2   0.697441 0.367685 0.812423 -0.591401
O3    O     O_2   0.689781 0.553996 0.777058 -0.619229
O4    O     O_2   0.302301 0.365938 0.187325 -0.589827
O5    O     O_2   0.810531 0.052452 0.222044 -0.631692
O6    O     O_2   0.197442 0.867692 0.812427 -0.591398
O7    O     O_2   0.189783 0.054012 0.777029 -0.619281
O8    O     O_2   0.802267 0.866013 0.187224 -0.589701
O9    O     O_2   0.728125 0.430571 0.491522 -0.590926
O10   O     O_2   0.243564 0.503807 0.506816 -0.555986
O11   O     O_2   0.208723 0.367502 0.336881 -0.549989
O12   O     O_2   0.521862 0.470765 0.256142 -0.626409
O13   O     O_2   0.788186 0.564082 0.716042 -0.580806
O14   O     O_2   0.228104 0.930559 0.491423 -0.590958
O15   O     O_2   0.743557 0.003809 0.506738 -0.556542
O16   O     O_2   0.708956 0.866895 0.334979 -0.551206
O17   O     O_2   0.288256 0.064005 0.715827 -0.580743
O18   O     O_2   0.357770 0.794415 0.450399 -0.546120
O19   O     O_2   0.592694 0.148893 0.510445 -0.564334
O20   O     O_2   0.640254 0.619269 0.214669 -0.575531
O21   O     O_2   0.431255 0.241168 0.760082 -0.567208
O22   O     O_2   0.857796 0.294440 0.450462 -0.546109
O23   O     O_2   0.521821 0.673518 0.280292 -0.551951
O24   O     O_2   0.092740 0.648900 0.510589 -0.564329
O25   O     O_2   0.139848 0.120067 0.214440 -0.575654
O26   O     O_2   0.931115 0.741359 0.760312 -0.566996
O27   O     O_2   0.905989 0.382706 0.033118 -0.547542
O28   O     O_2   0.155218 0.778484 0.178699 -0.575832
O29   O     O_2   0.095894 0.374822 0.969015 -0.550154
O30   O     O_2   0.846780 0.785987 0.823034 -0.550782
O31   O     O_2   0.405986 0.882705 0.033121 -0.547507
O32   O     O_2   0.655225 0.278504 0.178712 -0.575797
O33   O     O_2   0.595888 0.874866 0.968940 -0.550069
O34   O     O_2   0.481931 0.471681 0.748148 -0.630561
O35   O     O_2   0.346751 0.286035 0.822996 -0.550913
O36   O     O_2   0.981914 0.170791 0.725088 -0.540914
O37   O     O_2   0.021868 0.970766 0.256151 -0.626455
O38   O     O_2   0.021825 0.173517 0.280301 -0.552026
O39   O     O_2   0.981895 0.971637 0.748103 -0.630486
O40   O     O_2   0.310534 0.552440 0.222049 -0.631757

loop_
_geom_bond_atom_site_label_1
_geom_bond_atom_site_label_2
_ccdc_geom_bond_type
C111  H82   S    
C217  H35   S    
C7    C29   A    
C153  C166  A    
C153  H59   S    
C218  N5    A    
C7    C186  A    
C154  H60   S    
C74   C83   A    
C66   C85   S    
C7    C212  A    
C30   C222  A    
C5    C210  A    
C49   C60   A    
C183  H19   S    
C14   C21   A    
C35   C124  A    
C92   C119  S    
C137  H4    S    
C61   C82   S    
C123  O18   D    
N32   Ni5   S    
C184  C193  A    
C219  N6    A    
C2    C90   A    
C71   C80   A    
C11   C15   A    
C130  C167  S    
C127  O21   D    
C10   C20   A    
N12   Ni2   S    
C93   C120  S    
C87   C115  S    
C174  C191  A    
C47   C53   A    
C1    N1    A    
N29   Ni4   S    
C70   H49   S    
C39   C65   A    
C54   C169  S    
C197  C206  A    
C102  H73   S    
C100  H71   S    
C36   C62   A    
C37   C63   A    
C152  C165  A    
C130  H100  S    
N27   Ni1   S    
C124  C147  A    
N14   Ni4   S    
C68   C95   A    
C76   H56   S    
C100  C170  S    
C74   C147  A    
C169  C187  A    
C133  O28   D    
C41   C67   A    
C97   C112  S    
C179  C188  A    
C73   H53   S    
C130  O25   D    
C152  C214  A    
C34   C61   A    
C82   C91   A    
C120  H90   S    
C113  C146  A    
C66   C219  A    
C43   C54   A    
C20   H26   S    
C107  O3    D    
C204  C212  A    
C177  C204  A    
C203  N31   A    
C44   N19   A    
C116  O10   D    
C95   C122  S    
C62   C81   S    
C154  C167  A    
N18   Ni6   S    
C193  H10   S    
N9    Ni2   S    
C67   C220  A    
C136  O30   D    
C177  C195  A    
C110  H81   S    
C106  H77   S    
C36   N10   A    
C160  H66   S    
C40   H46   S    
C122  O17   D    
C200  C209  A    
C45   C52   A    
C196  H17   S    
N19   Ni5   S    
C207  C224  A    
C80   C88   A    
C10   C16   A    
C44   C55   A    
N3    N11   A    
C151  C167  A    
C180  C224  A    
C69   C221  A    
C84   C93   A    
C42   H48   S    
C8    C205  A    
C3    C182  A    
C50   C56   A    
C13   C154  A    
C86   C95   A    
C4    C209  A    
C140  H7    S    
C75   H55   S    
C3    C33   A    
N6    Ni8   S    
C182  C190  A    
C68   C160  A    
C157  C162  A    
C175  C193  A    
N9    N32   A    
C78   C87   A    
C103  H74   S    
C127  C164  S    
C99   C159  S    
C123  H93   S    
C205  C222  A    
C125  C162  S    
C202  C211  A    
C99   H70   S    
C52   C172  S    
C53   C173  S    
N18   N23   A    
C101  C145  A    
C70   C143  A    
C129  C166  S    
C56   C176  S    
C58   C181  A    
C115  O9    D    
C115  H85   S    
C12   C209  A    
C180  C189  A    
C198  H39   S    
C123  C161  S    
C75   C84   A    
C15   C25   A    
C72   C145  A    
C12   C22   A    
N5    Ni7   S    
N10   Ni1   S    
C41   N16   A    
C139  O33   D    
C50   N25   A    
C5    C27   A    
C79   C143  A    
C172  C198  A    
C63   C216  A    
C189  H9    S    
C215  N2    A    
C42   N17   A    
C108  O4    D    
C132  H102  S    
C117  O11   D    
C109  H80   S    
C192  N30   A    
C61   C213  A    
C100  O36   D    
C152  H58   S    
C141  C150  A    
C157  H64   S    
C63   C80   S    
C51   C114  S    
C176  C202  A    
C149  C165  A    
C180  H16   S    
C6    C211  A    
C39   N14   A    
C114  O8    D    
C200  H61   S    
N11   Ni1   S    
C181  N29   A    
C94   C121  S    
C101  C142  A    
C71   H51   S    
C76   C150  A    
C110  O6    D    
C184  H20   S    
C19   C28   A    
C158  C163  A    
C106  O2    D    
C40   N15   A    
C89   C117  S    
C156  C161  A    
C16   C23   A    
C57   C94   A    
C128  C165  S    
C98   H69   S    
C126  C163  S    
C186  H22   S    
C155  H62   S    
C107  H78   S    
C104  O39   D    
C48   C59   A    
C54   C148  A    
C74   H54   S    
N28   Ni3   S    
C56   C170  A    
C198  C207  A    
C64   C78   S    
N19   N27   A    
C202  H83   S    
N2    Ni6   S    
C34   N9    A    
C170  N28   A    
C218  H36   S    
C215  H33   S    
C137  O31   D    
C213  N32   A    
C75   C149  A    
C76   C85   A    
N17   Ni4   S    
C199  C208  A    
C87   C214  A    
C113  C141  A    
C41   H47   S    
C127  H97   S    
C4    C183  A    
C9    C12   A    
C38   N13   A    
C199  H28   S    
C217  N4    A    
N15   Ni3   S    
C47   C108  S    
C30   C137  S    
C77   H57   S    
C156  H63   S    
C90   C144  A    
C39   H45   S    
C25   C33   A    
C49   C110  S    
C57   C158  A    
C117  H87   S    
C118  H88   S    
C144  C161  A    
C173  C199  A    
C129  O24   D    
C62   C215  A    
C34   H41   S    
C185  C194  A    
C59   C174  S    
C25   H31   S    
C65   C86   S    
C133  H103  S    
C11   C19   A    
C171  C188  A    
C28   C134  S    
C160  C164  A    
C129  H99   S    
C99   O34   D    
C9    C206  A    
N20   Ni5   S    
C17   H23   S    
C191  H11   S    
C173  C190  A    
C22   H29   S    
C179  H15   S    
C68   C142  A    
C32   C224  A    
C46   C135  A    
C79   C214  A    
C105  H76   S    
C126  O20   D    
C38   C64   A    
C72   C81   A    
N21   Ni6   S    
C81   C89   A    
C35   C92   A    
C221  H40   S    
C55   C159  A    
C131  O26   D    
C40   C66   A    
C134  H104  S    
C59   C192  A    
C147  C166  A    
C23   H30   S    
C112  N12   A    
C55   C171  S    
C131  H101  S    
C49   N24   A    
N24   Ni7   S    
N26   Ni8   S    
C102  O37   D    
C27   C133  S    
C119  O14   D    
C116  H86   S    
C19   H25   S    
C8    C18   A    
C104  C203  S    
C159  N27   A    
N1    Ni1   S    
C155  C168  A    
C120  O15   D    
C51   C58   A    
C31   C138  S    
C48   N22   A    
C32   C139  S    
C178  C187  A    
C64   C217  A    
C145  C164  A    
C136  H3    S    
C97   O12   D    
C77   C86   A    
C17   C26   A    
C73   C82   A    
C178  H14   S    
N25   N28   A    
C111  O7    D    
C187  H2    S    
C45   N20   A    
C103  O38   D    
C72   H52   S    
C102  C181  S    
C90   C124  A    
C220  H38   S    
N1    N20   A    
C4    C26   A    
C44   C106  S    
C172  C189  A    
C79   C135  A    
C21   C30   A    
C174  C200  A    
C57   C141  A    
C23   C32   A    
C125  H95   S    
C220  N7    A    
C126  H96   S    
C98   C148  S    
C140  O35   D    
C148  N23   A    
N12   N21   A    
C96   O1    D    
C1    C52   A    
C108  H79   S    
C18   H24   S    
C29   C136  S    
N22   N30   A    
C121  O16   D    
C60   C175  S    
C213  H32   S    
N31   Ni3   S    
C158  H65   S    
C176  C194  A    
C221  N8    A    
N4    N13   A    
C71   C144  A    
C197  H1    S    
N6    N15   A    
C142  C151  A    
C128  O22   D    
C70   C78   A    
C125  O19   D    
C219  H37   S    
C96   H67   S    
C216  H34   S    
C77   C151  A    
C47   N21   A    
C83   C92   A    
C6    C185  A    
N7    Ni8   S    
C3    C208  A    
C1    C96   S    
C37   H43   S    
C65   C218  A    
N25   Ni7   S    
C33   C140  S    
C196  C205  A    
C43   C105  S    
N8    N17   A    
C105  O40   D    
C38   H44   S    
C50   C111  S    
C15   C211  A    
N4    Ni5   S    
C119  H89   S    
C204  H72   S    
C58   C177  S    
C143  C162  A    
C114  H84   S    
C24   C155  A    
C201  H50   S    
C48   C109  S    
C150  C168  A    
C67   C84   S    
C216  N3    A    
C138  O32   D    
C134  O29   D    
N2    N10   A    
C182  H18   S    
N7    N16   A    
C169  C196  A    
C20   C29   A    
C6    C28   A    
C91   C118  S    
C22   C31   A    
C14   C210  A    
C186  C195  A    
C16   C212  A    
C35   C156  A    
C175  C201  A    
C188  H94   S    
N16   Ni3   S    
C37   N11   A    
C135  C149  A    
C46   C157  A    
C42   C69   A    
C179  C223  A    
C132  O27   D    
C88   C116  S    
C10   C207  A    
C69   C83   S    
N23   Ni2   S    
C85   C94   A    
C60   C203  A    
C206  C223  A    
C109  O5    D    
N30   Ni4   S    
C31   C223  A    
C53   C112  A    
C9    C17   A    
C131  C168  S    
C2    C153  A    
C2    C88   A    
C11   C208  A    
C13   C101  A    
N13   Ni2   S    
C24   C91   A    
C201  C210  A    
C26   C132  S    
C185  H21   S    
N3    Ni6   S    
C8    C14   A    
C5    C184  A    
C13   C89   A    
C36   H42   S    
C138  H5    S    
C18   C27   A    
C183  C191  A    
C21   H27   S    
C118  O13   D    
C121  H91   S    
N26   N29   A    
C146  C163  A    
C122  H92   S    
C73   C146  A    
C97   H68   S    
C51   N26   A    
C171  C197  A    
C46   C93   A    
C104  H75   S    
N8    Ni7   S    
N22   Ni8   S    
C128  H98   S    
C139  H6    S    
C190  H8    S    
C194  H13   S    
C195  H12   S    
C43   N18   A    
C45   C107  S    
C24   C113  A    
N5    N14   A    
N24   N31   A    
C178  C222  A    
C103  C192  S    
C98   O23   D    
