data_mof_unit_56730.cif
_audit_creation_date              2012-12-10T20:43:26-0500
_audit_creation_method            fapswitch 2.2
_symmetry_space_group_name_H-M    P1
_symmetry_Int_Tables_number       1
_space_group_crystal_system       triclinic
_cell_length_a                    18.667582
_cell_length_b                    18.698317
_cell_length_c                    18.667381
_cell_angle_alpha                 109.29416
_cell_angle_beta                  109.235324
_cell_angle_gamma                 109.248546
_cell_volume                      5054.90091683

loop_
_atom_site_label
_atom_site_type_symbol
_atom_type_description
_atom_site_fract_x
_atom_site_fract_y
_atom_site_fract_z
_atom_type_partial_charge
C1    C     C_R   0.381626 0.502513 0.380343 0.867489
C2    C     C_R   0.798860 0.795814 0.833917 0.045462
C3    C     C_R   0.971108 0.740506 0.960300 -0.064121
C4    C     C_R   0.956574 0.724889 0.023817 -0.101313
C5    C     C_R   0.019264 0.780613 0.112440 0.142869
C6    C     C_R   0.292527 0.538200 0.981554 -0.225126
C7    C     C_R   0.213475 0.472588 0.905010 0.615175
C8    C     C_R   0.169859 0.390688 0.897269 -0.006888
C9    C     C_R   0.211315 0.372318 0.961020 -0.293892
C10   C     C_R   0.290443 0.437358 0.036165 -0.119973
C11   C     C_R   0.330342 0.520632 0.047052 -0.176100
C12   C     C_R   0.079903 0.256793 0.754611 -0.256367
C13   C     C_R   0.828064 0.814129 0.576189 -0.266145
C14   C     C_R   0.999574 0.185935 0.686006 -0.085294
C15   C     C_R   0.920850 0.177322 0.682906 -0.001506
C16   C     C_R   0.923575 0.242649 0.747964 -0.251028
C17   C     C_R   0.003809 0.314768 0.815904 -0.093580
C18   C     C_R   0.083230 0.321815 0.820708 0.080053
C19   C     C_R   0.787863 0.087173 0.535620 -0.100844
C20   C     C_R   0.715514 0.006494 0.469143 -0.076971
C21   C     C_R   0.691124 0.936128 0.484286 -0.042174
C22   C     C_R   0.737270 0.946822 0.566393 -0.100500
C23   C     C_R   0.810659 0.026797 0.632535 -0.140447
C24   C     C_R   0.813502 0.809575 0.496016 -0.057292
C25   C     C_R   0.836952 0.097028 0.617016 0.107971
C26   C     C_R   0.734564 0.744016 0.418187 0.000182
C27   C     C_R   0.674959 0.680459 0.422883 -0.256132
C28   C     C_R   0.689614 0.685503 0.502963 -0.068850
C29   C     C_R   0.765099 0.754472 0.581277 -0.010778
C30   C     C_R   0.628725 0.728775 0.281751 -0.168802
C31   C     C_R   0.603588 0.719538 0.198462 -0.125931
C32   C     C_R   0.659254 0.719482 0.163547 -0.112619
C33   C     C_R   0.622248 0.619904 0.502090 0.872303
C34   C     C_R   0.740353 0.729350 0.212198 -0.133546
C35   C     C_R   0.766030 0.739692 0.295850 -0.091923
C36   C     C_R   0.710508 0.739058 0.331514 0.126527
C37   C     C_R   0.428144 0.778409 0.543046 -0.234994
C38   C     C_R   0.379894 0.692217 0.476046 -0.126874
C39   C     C_R   0.380109 0.670153 0.396752 0.104438
C40   C     C_R   0.423474 0.737483 0.383248 -0.262852
C41   C     C_R   0.464756 0.825543 0.446812 -0.057633
C42   C     C_R   0.472179 0.845984 0.530240 -0.034384
C43   C     C_R   0.253642 0.574987 0.250899 -0.261281
C44   C     C_R   0.616402 0.496331 0.619788 0.877140
C45   C     C_R   0.184537 0.494472 0.182214 -0.062039
C46   C     C_R   0.175873 0.416219 0.181577 0.079110
C47   C     C_R   0.243537 0.421771 0.247511 -0.234054
C48   C     C_R   0.313946 0.502880 0.315812 -0.074909
C49   C     C_R   0.317055 0.581098 0.320667 0.004313
C50   C     C_R   0.054252 0.277685 0.145794 -0.240640
C51   C     C_R   0.975467 0.198997 0.086595 0.504931
C52   C     C_R   0.936585 0.172543 0.996616 -0.083260
C53   C     C_R   0.981674 0.222198 0.967849 -0.240521
C54   C     C_R   0.060415 0.299484 0.027296 -0.154959
C55   C     C_R   0.378674 0.380486 0.499293 0.904409
C56   C     C_R   0.096483 0.329437 0.116944 0.056073
C57   C     C_R   0.256938 0.545037 0.579091 -0.166184
C58   C     C_R   0.268517 0.475114 0.579003 -0.117439
C59   C     C_R   0.228391 0.397850 0.500428 0.093119
C60   C     C_R   0.176130 0.391095 0.422061 -0.183393
C61   C     C_R   0.163469 0.460698 0.420630 0.600017
C62   C     C_R   0.204457 0.538280 0.501141 -0.249532
C63   C     C_R   0.175775 0.256767 0.499021 0.470420
C64   C     C_R   0.186209 0.185259 0.498473 -0.212934
C65   C     C_R   0.261410 0.180838 0.502314 -0.016516
C66   C     C_R   0.801605 0.860470 0.810833 -0.173744
C67   C     C_R   0.323667 0.246744 0.502919 -0.226334
C68   C     C_R   0.312614 0.316119 0.500951 -0.150095
C69   C     C_R   0.239687 0.323054 0.500573 -0.101247
C70   C     C_R   0.352313 0.121523 0.565347 -0.144115
C71   C     C_R   0.370014 0.053285 0.558883 -0.103847
C72   C     C_R   0.311624 0.969911 0.487141 -0.027503
C73   C     C_R   0.234795 0.954328 0.422386 -0.093667
C74   C     C_R   0.216919 0.022517 0.428757 -0.158525
C75   C     C_R   0.275494 0.106663 0.500203 0.145600
C76   C     C_R   0.516699 0.555426 0.806775 -0.038493
C77   C     C_R   0.791651 0.847159 0.729239 -0.182662
C78   C     C_R   0.588866 0.558665 0.797245 -0.131570
C79   C     C_R   0.595364 0.483345 0.765631 -0.011427
C80   C     C_R   0.530020 0.404096 0.745350 -0.243866
C81   C     C_R   0.457195 0.398478 0.754838 0.604346
C82   C     C_R   0.451262 0.475525 0.786063 -0.328631
C83   C     C_R   0.737700 0.487808 0.816787 -0.210274
C84   C     C_R   0.813241 0.497961 0.811370 -0.104335
C85   C     C_R   0.823054 0.507109 0.742657 0.012873
C86   C     C_R   0.754490 0.501291 0.678065 -0.265680
C87   C     C_R   0.680783 0.494021 0.685078 -0.086725
C88   C     C_R   0.778557 0.768727 0.668851 0.134865
C89   C     C_R   0.671786 0.488195 0.755089 0.046740
C90   C     C_R   0.947609 0.603581 0.737320 -0.256100
C91   C     C_R   0.019328 0.619927 0.724146 -0.275765
C92   C     C_R   0.049199 0.559036 0.710850 0.637273
C93   C     C_R   0.003935 0.480945 0.708591 -0.137167
C94   C     C_R   0.932208 0.464778 0.722242 -0.208091
C95   C     C_R   0.903671 0.526115 0.736663 0.150818
C96   C     C_R   0.998630 0.878254 0.380101 0.915915
C97   C     C_R   0.879789 0.877726 0.497895 0.859856
C98   C     C_R   0.999691 0.119893 0.619964 0.869944
C99   C     C_R   0.778947 0.705301 0.692826 -0.149132
C100  C     C_R   0.120073 0.118344 0.498047 0.909725
C101  C     C_R   0.002113 0.380148 0.881456 0.848241
C102  C     C_R   0.119573 0.496745 0.117243 0.850001
C103  C     C_R   0.998543 0.620015 0.118768 0.890214
C104  C     C_R   0.879929 0.499091 0.878602 0.856805
C105  C     C_R   0.040874 0.740670 0.533806 0.481425
C106  C     C_R   0.053782 0.754917 0.468381 0.514519
C107  C     C_R   0.981502 0.717015 0.385268 -0.070349
C108  C     C_R   0.899551 0.656188 0.365339 -0.284478
C109  C     C_R   0.887546 0.639485 0.429242 -0.190491
C110  C     C_R   0.788615 0.718623 0.774558 -0.207283
C111  C     C_R   0.957643 0.681851 0.513301 -0.280427
C112  C     C_R   0.987832 0.672247 0.249197 -0.259933
C113  C     C_R   0.996096 0.686017 0.182709 -0.153418
C114  C     C_R   0.005462 0.763118 0.180289 -0.120075
C115  C     C_R   0.003039 0.825094 0.244895 0.422135
C116  C     C_R   0.998724 0.812163 0.313826 -0.178215
C117  C     C_R   0.991314 0.735644 0.316575 0.023101
C118  C     C_R   0.095836 0.852962 0.136482 -0.082266
C119  C     C_R   0.109525 0.868873 0.072709 -0.167371
C120  C     C_R   0.047292 0.812513 0.984631 -0.146167
H1    H     H_    0.639499 0.711627 0.098795 0.144434
H2    H     H_    0.783243 0.728520 0.185036 0.122186
H3    H     H_    0.829334 0.748771 0.332994 0.109025
H4    H     H_    0.429716 0.792492 0.604865 0.176633
H5    H     H_    0.340701 0.642977 0.485710 0.156033
H6    H     H_    0.417941 0.720809 0.319546 0.184016
H7    H     H_    0.254870 0.634058 0.252701 0.161137
H8    H     H_    0.240223 0.362559 0.247051 0.140308
H9    H     H_    0.810291 0.920844 0.855466 0.198529
H10   H     H_    0.080833 0.299659 0.214745 0.183075
H11   H     H_    0.954674 0.202965 0.899310 0.208193
H12   H     H_    0.090785 0.338491 0.003629 0.132714
H13   H     H_    0.196951 0.594118 0.505228 0.127504
H14   H     H_    0.288722 0.604794 0.639886 0.161028
H15   H     H_    0.308882 0.481090 0.640070 0.140543
H16   H     H_    0.144798 0.330966 0.361662 0.134643
H17   H     H_    0.792918 0.897717 0.712834 0.142256
H18   H     H_    0.381072 0.243642 0.504062 0.161019
H19   H     H_    0.399203 0.186190 0.620237 0.175026
H20   H     H_    0.429700 0.065366 0.608789 0.177201
H21   H     H_    0.326630 0.917801 0.481240 0.130225
H22   H     H_    0.189987 0.889798 0.366550 0.140515
H23   H     H_    0.159025 0.010777 0.377071 0.170490
H24   H     H_    0.396879 0.474743 0.795249 0.157904
H25   H     H_    0.639658 0.619546 0.812727 0.221378
H26   H     H_    0.771175 0.645509 0.647864 0.106893
H27   H     H_    0.535610 0.345993 0.721710 0.153074
H28   H     H_    0.731489 0.482754 0.870939 0.162654
H29   H     H_    0.760231 0.506380 0.623717 0.157265
H30   H     H_    0.925134 0.650728 0.746356 0.146948
H31   H     H_    0.049912 0.679091 0.722425 0.155766
H32   H     H_    0.024130 0.432198 0.695639 0.173360
H33   H     H_    0.897727 0.403741 0.719430 0.135944
H34   H     H_    0.947644 0.668003 0.562216 0.167943
H35   H     H_    0.787561 0.668496 0.791344 0.171383
H36   H     H_    0.844474 0.622421 0.300275 0.178571
H37   H     H_    0.823710 0.593617 0.413560 0.181996
H38   H     H_    0.981557 0.612795 0.250178 0.165614
H39   H     H_    0.145036 0.896577 0.204473 0.139014
H40   H     H_    0.168633 0.924615 0.091556 0.138518
H41   H     H_    0.058161 0.824466 0.935217 0.129112
H42   H     H_    0.923443 0.696569 0.892200 0.133400
H43   H     H_    0.887246 0.866924 0.635794 0.156378
H44   H     H_    0.896976 0.669037 0.004033 0.121185
H45   H     H_    0.391265 0.571183 0.105645 0.148965
H46   H     H_    0.324929 0.602511 0.989840 0.148425
H47   H     H_    0.181500 0.307789 0.953126 0.163258
H48   H     H_    0.320630 0.423250 0.086139 0.153911
H49   H     H_    0.140098 0.260873 0.757034 0.138148
H50   H     H_    0.863150 0.236846 0.746185 0.174340
H51   H     H_    0.807848 0.140721 0.522674 0.128917
H52   H     H_    0.679264 0.998158 0.405540 0.130901
H53   H     H_    0.615027 0.627870 0.363877 0.151656
H54   H     H_    0.636539 0.873140 0.432535 0.143021
H55   H     H_    0.716850 0.892479 0.577941 0.141678
H56   H     H_    0.848236 0.033483 0.694956 0.151486
H57   H     H_    0.584291 0.727734 0.307347 0.132407
H58   H     H_    0.540676 0.711802 0.160759 0.139426
O1    O     O_R   0.408360 0.551710 0.460090 -0.627352
O2    O     O_R   0.948280 0.908380 0.356650 -0.609941
O3    O     O_R   0.960110 0.908350 0.551690 -0.646692
O4    O     O_R   0.856660 0.908370 0.448270 -0.616368
O5    O     O_R   0.051720 0.091580 0.643310 -0.634500
O6    O     O_R   0.948270 0.091600 0.539890 -0.613318
O7    O     O_R   0.143340 0.091590 0.551680 -0.629338
O8    O     O_R   0.039890 0.091610 0.448270 -0.564303
O9    O     O_R   0.051730 0.460050 0.908360 -0.591582
O10   O     O_R   0.948290 0.356630 0.908390 -0.620655
O11   O     O_R   0.143340 0.551690 0.091580 -0.620639
O12   O     O_R   0.408400 0.448280 0.356670 -0.625085
O13   O     O_R   0.039900 0.448270 0.091610 -0.610126
O14   O     O_R   0.051710 0.643320 0.091560 -0.614876
O15   O     O_R   0.948270 0.539900 0.091590 -0.625630
O16   O     O_R   0.960100 0.551680 0.908340 -0.610305
O17   O     O_R   0.856660 0.448270 0.908370 -0.620281
O18   O     O_R   0.591600 0.643340 0.551710 -0.600748
O19   O     O_R   0.591630 0.539900 0.448290 -0.627808
O20   O     O_R   0.591600 0.551720 0.643330 -0.616431
O21   O     O_R   0.591640 0.448290 0.539910 -0.622709
O22   O     O_R   0.408370 0.460100 0.551710 -0.621414
O23   O     O_R   0.408400 0.356660 0.448290 -0.625523
O24   O     O_R   0.051730 0.908360 0.460060 -0.592900
Zn1   Zn    Zn3+2 0.499980 0.569060 0.569060 0.987514
Zn2   Zn    Zn3+2 0.500020 0.430940 0.430940 0.956395
Zn3   Zn    Zn3+2 0.069070 0.999960 0.569030 0.967305
Zn4   Zn    Zn3+2 0.930930 0.999990 0.430930 0.997577
Zn5   Zn    Zn3+2 0.069070 0.569030 0.999960 0.994636
Zn6   Zn    Zn3+2 0.930930 0.430930 0.000000 0.985527
C121  C     C_2   0.805023 0.808073 0.918832 0.909525
O25   O     O_2   0.819794 0.877639 0.972746 -0.625857
O26   O     O_R   0.792546 0.739533 0.936984 -0.852638
H59   H     H_    0.794872 0.754517 0.995355 0.331467
C122  C     C_2   0.526110 0.935882 0.605436 0.925963
O27   O     O_2   0.503449 0.958992 0.659458 -0.640496
O28   O     O_R   0.604749 0.993113 0.616761 -0.773949
H60   H     H_    0.636256 0.051874 0.671183 0.353715
C123  C     C_2   0.488170 0.892304 0.419326 0.906591
O29   O     O_2   0.498221 0.964363 0.460436 -0.611018
O30   O     O_R   0.493387 0.870790 0.342623 -0.848328
H61   H     H_    0.507640 0.920635 0.329581 0.341349
O31   O     O_3   0.933239 0.152120 0.117752 -0.558247
C124  C     C_3   0.975687 0.106827 0.140792 -0.197465
H62   H     H_    0.042603 0.152386 0.197501 0.123781
H63   H     H_    0.977696 0.063587 0.084583 0.158081
H64   H     H_    0.938294 0.064852 0.160255 0.206874
C125  C     C_2   0.848679 0.095369 0.932040 0.906173
O32   O     O_2   0.804598 0.055089 0.955848 -0.544855
O33   O     O_R   0.815165 0.069397 0.843242 -0.848565
H65   H     H_    0.754414 0.016921 0.805727 0.347388
O34   O     O_3   0.109236 0.446664 0.339200 -0.609677
C126  C     C_3   0.106920 0.521520 0.339998 -0.321025
H66   H     H_    0.173263 0.575305 0.366500 0.149190
H67   H     H_    0.074059 0.541964 0.376196 0.167418
H68   H     H_    0.067809 0.505251 0.271839 0.210234
O35   O     O_3   0.100766 0.259551 0.492949 -0.579913
C127  C     C_3   0.111816 0.297913 0.577498 -0.253414
H69   H     H_    0.166769 0.365664 0.618135 0.137707
H70   H     H_    0.122123 0.259363 0.610197 0.118983
H71   H     H_    0.051793 0.300162 0.572462 0.203171
C128  C     C_2   0.510137 0.635793 0.838283 0.897287
O36   O     O_2   0.446680 0.633342 0.845433 -0.684531
O37   O     O_R   0.576630 0.714839 0.859726 -0.800797
H72   H     H_    0.564671 0.764835 0.880259 0.356704
O38   O     O_3   0.397047 0.316690 0.734755 -0.615764
C129  C     C_3   0.319295 0.311401 0.732845 -0.335973
H73   H     H_    0.288197 0.332027 0.687765 0.142183
H74   H     H_    0.331245 0.349532 0.799599 0.167780
H75   H     H_    0.272797 0.242513 0.707846 0.216373
O39   O     O_3   0.117075 0.569666 0.692470 -0.625994
C130  C     C_3   0.188360 0.655150 0.748486 -0.312678
H76   H     H_    0.200703 0.681202 0.816911 0.164877
H77   H     H_    0.178746 0.699072 0.722945 0.201929
H78   H     H_    0.247885 0.654089 0.750146 0.194342
O40   O     O_3   0.111472 0.779500 0.615718 -0.609614
C131  C     C_3   0.105877 0.844655 0.674970 -0.293417
H79   H     H_    0.048707 0.816309 0.683410 0.142714
H80   H     H_    0.103583 0.893849 0.654517 0.185441
H81   H     H_    0.165164 0.879027 0.739513 0.183695
O41   O     O_3   0.136649 0.808474 0.487038 -0.569928
C132  C     C_3   0.176543 0.757201 0.471089 -0.308253
H82   H     H_    0.144660 0.711296 0.400180 0.138813
H83   H     H_    0.176434 0.721056 0.508010 0.170935
H84   H     H_    0.245625 0.800453 0.493462 0.196177
O42   O     O_3   0.013695 0.902865 0.246631 -0.643706
C133  C     C_3   0.936358 0.889128 0.182559 -0.224107
H85   H     H_    0.931764 0.949312 0.206329 0.191349
H86   H     H_    0.875973 0.835209 0.168634 0.134252
H87   H     H_    0.939181 0.877496 0.121585 0.187236
O43   O     O_3   0.177929 0.488074 0.838005 -0.617987
C134  C     C_3   0.230410 0.494761 0.798122 -0.355228
H88   H     H_    0.245291 0.440289 0.782953 0.125556
H89   H     H_    0.291537 0.558484 0.839297 0.218115
H90   H     H_    0.194562 0.490982 0.735413 0.237657

loop_
_geom_bond_atom_site_label_1
_geom_bond_atom_site_label_2
_ccdc_geom_bond_type
C119  H40   S    
C74   H23   S    
C6    H46   S    
C44   O20   A    
C93   C94   A    
C51   C52   A    
C129  H73   S    
C5    C114  S    
C61   O34   S    
C41   C42   A    
C100  O8    A    
C35   C36   A    
C90   H30   S    
C109  H37   S    
C27   H53   S    
C131  H80   S    
C81   C82   A    
C57   C58   A    
C47   H8    S    
C122  O27   D    
C116  C117  A    
O16   Zn5   S    
C97   O3    A    
O39   C130  S    
C37   C38   A    
C115  O42   S    
C112  H38   S    
C129  H75   S    
C12   C18   A    
C62   H13   S    
C13   C29   A    
C28   C29   A    
C103  C113  S    
C77   H17   S    
C109  C111  A    
C85   C86   A    
C112  C117  A    
C15   C25   S    
C102  O13   A    
C106  C107  A    
C130  H77   S    
C15   C16   A    
C55   O23   A    
C22   H55   S    
C131  H79   S    
C37   C42   A    
C102  O11   A    
O6    Zn4   S    
C108  C109  A    
O19   Zn2   S    
C130  H76   S    
C34   C35   A    
C73   C74   A    
C98   O5    A    
C67   H18   S    
C17   C101  S    
C118  C119  A    
C128  O36   D    
C29   C88   S    
C110  H35   S    
C50   H10   S    
C78   H25   S    
C68   C69   A    
C104  O17   A    
C80   H27   S    
C2    C110  A    
O17   Zn6   S    
C47   C48   A    
C33   O18   A    
C8    C9    A    
C65   C67   A    
O24   Zn3   S    
C107  C108  A    
C4    H44   S    
C55   O22   A    
C14   C98   S    
C70   C71   A    
C53   H11   S    
C44   C87   S    
C9    C10   A    
C60   H16   S    
C61   C62   A    
C3    H42   S    
C79   C80   A    
C19   H51   S    
C66   H9    S    
C1    O12   A    
C130  H78   S    
C105  C111  A    
C131  H81   S    
C59   C60   A    
C34   H2    S    
O15   Zn6   S    
O43   C134  S    
C134  H90   S    
C118  H39   S    
O34   C126  S    
C105  O40   S    
C132  H84   S    
O2    Zn4   S    
O33   H65   S    
C111  H34   S    
C13   H43   S    
C73   H22   S    
C122  O28   S    
O38   C129  S    
C72   H21   S    
C83   C89   A    
C121  O25   D    
C54   C56   A    
C74   C75   A    
O8    Zn4   S    
C31   H58   S    
C67   C68   A    
C63   C69   A    
C7    C8    A    
C84   C85   A    
C77   C88   A    
C72   C73   A    
C82   H24   S    
C127  H69   S    
C3    C120  A    
C114  C115  A    
C76   C82   A    
C6    C11   A    
C134  H88   S    
C16   H50   S    
C55   C68   S    
C78   C79   A    
C16   C17   A    
C7    O43   S    
C23   H56   S    
C124  H64   S    
C57   C62   A    
C58   C59   A    
C92   O39   S    
C99   C110  A    
C83   H28   S    
C8    C18   S    
C3    C4    A    
C24   C97   S    
C13   C24   A    
C60   C61   A    
O4    Zn4   S    
C32   C34   A    
O3    Zn3   S    
O28   H60   S    
O26   H59   S    
O40   C131  S    
C1    O1    A    
O7    Zn3   S    
O31   C124  S    
C43   C45   A    
C83   C84   A    
C108  H36   S    
C33   O19   A    
C30   C31   A    
O35   C127  S    
C40   H6    S    
C128  O37   S    
C17   C18   A    
C26   C27   A    
C50   C51   A    
C96   O2    A    
O18   Zn1   S    
C124  H63   S    
C133  H86   S    
C12   H49   S    
C71   H20   S    
C51   O31   S    
C120  H41   S    
C59   C69   S    
C132  H83   S    
C48   C49   A    
C20   H52   S    
C99   H26   S    
O1    Zn1   S    
C28   C33   S    
C125  O32   D    
C125  O33   S    
C10   C11   A    
C126  H67   S    
C106  O41   S    
C84   C104  S    
O23   Zn2   S    
C134  H89   S    
C57   H14   S    
C86   H29   S    
C43   H7    S    
O41   C132  S    
C101  O10   A    
O20   Zn1   S    
C38   H5    S    
C52   C53   A    
C81   O38   S    
C97   O4    A    
C113  C114  A    
C133  H85   S    
C52   C125  S    
O30   H61   S    
C66   C77   A    
C26   C36   S    
C46   C47   A    
O10   Zn6   S    
C2    C121  S    
O37   H72   S    
C86   C87   A    
C32   H1    S    
C31   C32   A    
C43   C49   A    
C14   C15   A    
C76   C78   A    
C80   C81   A    
C2    C66   A    
C46   C56   S    
C41   C123  S    
C119  C120  A    
C39   C49   S    
C1    C48   S    
C53   C54   A    
C6    C7    A    
C58   H15   S    
C123  O30   S    
C54   H12   S    
C105  C106  A    
C65   C75   S    
C127  H71   S    
C30   C36   A    
C5    C118  A    
C76   C128  S    
C64   C65   A    
C19   C20   A    
C129  H74   S    
C100  O7    A    
O42   C133  S    
C64   C100  S    
C96   O24   A    
C42   C122  S    
C101  O9    A    
C132  H82   S    
C91   H31   S    
C85   C95   S    
C24   C26   A    
O12   Zn2   S    
C90   C91   A    
C38   C39   A    
O21   Zn2   S    
O11   Zn5   S    
C94   H33   S    
O5    Zn3   S    
C4    C5    A    
C123  O29   D    
C35   H3    S    
C92   C93   A    
C121  O26   S    
C30   H57   S    
C127  H70   S    
C93   H32   S    
C126  H68   S    
C112  C113  A    
O13   Zn6   S    
C23   C25   A    
C98   O6    A    
C94   C95   A    
C19   C25   A    
C133  H87   S    
C50   C56   A    
O14   Zn5   S    
C79   C89   S    
C88   C99   A    
C45   C102  S    
C63   O35   S    
C63   C64   A    
C39   C40   A    
C45   C46   A    
C12   C14   A    
C70   H19   S    
C71   C72   A    
C20   C21   A    
C70   C75   A    
C44   O21   A    
C10   H48   S    
C21   H54   S    
C37   H4    S    
O9    Zn5   S    
C126  H66   S    
C11   H45   S    
C87   C89   A    
C104  O16   A    
C22   C23   A    
C96   C116  S    
C9    H47   S    
C40   C41   A    
C103  O14   A    
C103  O15   A    
O22   Zn1   S    
C21   C22   A    
C124  H62   S    
C107  C117  S    
C90   C95   A    
C91   C92   A    
C115  C116  A    
C27   C28   A    
