data_mof_unit_32326.cif
_audit_creation_date              2012-12-10T18:46:20-0500
_audit_creation_method            fapswitch 2.2
_symmetry_space_group_name_H-M    P1
_symmetry_Int_Tables_number       1
_space_group_crystal_system       triclinic
_cell_length_a                    9.847
_cell_length_b                    10.706232
_cell_length_c                    13.093135
_cell_angle_alpha                 90.158161
_cell_angle_beta                  69.766921
_cell_angle_gamma                 90.024584
_cell_volume                      1295.15344407

loop_
_atom_site_label
_atom_site_type_symbol
_atom_type_description
_atom_site_fract_x
_atom_site_fract_y
_atom_site_fract_z
_atom_type_partial_charge
C1    C     C_R   0.500080 0.740094 0.499967 0.870129
C2    C     C_R   0.366766 0.484978 0.822962 -0.124199
C3    C     C_R   0.604380 0.936181 0.529959 -0.191740
C4    C     C_R   0.419562 0.494012 0.704472 0.858858
C5    C     C_R   0.604260 0.064180 0.530048 -0.202578
C6    C     C_R   0.499979 0.127486 0.499951 -0.010495
C7    C     C_R   0.395812 0.063843 0.469778 -0.191302
C8    C     C_R   0.395916 0.935842 0.469709 -0.198886
C9    C     C_R   0.500163 0.872530 0.499843 -0.015566
C10   C     C_R   0.960994 0.427244 0.428226 -0.088523
C11   C     C_R   0.104822 0.427237 0.428267 -0.075929
C12   C     C_R   0.432386 0.478354 0.984627 0.088932
C13   C     C_R   0.038973 0.572716 0.571812 -0.083673
C14   C     C_R   0.895153 0.572735 0.571761 -0.059403
C15   C     C_R   0.499964 0.259908 0.499953 0.856077
C16   C     C_R   0.580469 0.500502 0.295597 0.890225
C17   C     C_R   0.762941 0.353627 0.025552 -0.202817
C18   C     C_R   0.631048 0.483402 0.178612 -0.069397
C19   C     C_R   0.230848 0.534615 0.883807 -0.190741
C20   C     C_R   0.191519 0.547416 0.996073 -0.152016
C21   C     C_R   0.292193 0.521713 0.046261 -0.197710
C22   C     C_3   0.474150 0.656495 0.153526 -0.929040
C23   C     C_R   0.459481 0.441275 0.876355 0.085760
C24   C     C_R   0.544201 0.464362 0.028406 0.058266
C25   C     C_R   0.661773 0.382765 0.975917 0.132329
C26   C     C_R   0.675518 0.330153 0.875351 -0.243233
C27   C     C_R   0.577609 0.361414 0.824726 -0.200354
C28   C     C_R   0.544708 0.529298 0.121884 0.133965
C29   C     C_R   0.743396 0.399129 0.129186 -0.259634
H1    H     H_    0.811856 0.364769 0.172341 0.161611
H2    H     H_    0.851340 0.289655 0.987313 0.148441
H3    H     H_    0.156449 0.565505 0.844470 0.154919
H4    H     H_    0.258022 0.532654 0.133504 0.155149
H5    H     H_    0.085100 0.582166 0.043666 0.151031
H6    H     H_    0.684656 0.887375 0.554278 0.151697
H7    H     H_    0.548501 0.719895 0.176273 0.232704
H8    H     H_    0.452949 0.701881 0.084420 0.249141
H9    H     H_    0.371957 0.649537 0.224166 0.254472
H10   H     H_    0.592171 0.318645 0.746658 0.166794
H11   H     H_    0.684440 0.113259 0.554447 0.152271
H12   H     H_    0.315545 0.112657 0.445455 0.152195
H13   H     H_    0.315713 0.886764 0.445341 0.156640
H14   H     H_    0.932864 0.369124 0.370806 0.123409
H15   H     H_    0.185559 0.368975 0.370883 0.128717
H16   H     H_    0.067109 0.630855 0.629214 0.123553
H17   H     H_    0.814432 0.631038 0.629105 0.130640
H18   H     H_    0.763745 0.266915 0.834723 0.148733
N1    N     N_R   0.142790 0.500030 0.500030 -0.077110
N2    N     N_R   0.857180 0.499940 0.500010 -0.077433
O1    O     O_R   0.385370 0.683250 0.500010 -0.623145
O2    O     O_R   0.614700 0.683220 0.500010 -0.620552
O3    O     O_R   0.328400 0.499990 0.653620 -0.610892
O4    O     O_R   0.557730 0.499960 0.653620 -0.614069
O5    O     O_R   0.385300 0.316780 0.499990 -0.621337
O6    O     O_R   0.614630 0.316750 0.499990 -0.630789
O7    O     O_R   0.442270 0.500040 0.346380 -0.609687
O8    O     O_R   0.671600 0.500010 0.346380 -0.618126
Zn1   Zn    Zn3+2 0.346870 0.500020 0.500000 0.937931
Zn2   Zn    Zn3+2 0.653130 0.499980 0.500000 0.935786

loop_
_geom_bond_atom_site_label_1
_geom_bond_atom_site_label_2
_ccdc_geom_bond_type
C13   N1    A    
C2    C4    S    
C16   O7    A    
N1    Zn1   S    
C6    C7    A    
C3    C9    A    
O6    Zn2   S    
C4    O4    A    
C22   H7    S    
C1    O1    A    
C12   C24   A    
C19   C20   A    
N2    Zn2   S    
C3    H6    S    
C8    H13   S    
C17   C25   A    
C22   H8    S    
C11   N1    A    
C20   H5    S    
C11   H15   S    
C14   H17   S    
C18   C29   A    
C22   C28   S    
C13   C14   A    
C24   C25   A    
C13   H16   S    
C1    O2    A    
C12   C23   A    
C26   C27   A    
C29   H1    S    
O3    Zn1   S    
C26   H18   S    
C4    O3    A    
C19   H3    S    
C25   C26   A    
O7    Zn1   S    
O2    Zn2   S    
C23   C27   A    
C16   O8    A    
C7    H12   S    
O4    Zn2   S    
C5    C6    A    
C17   H2    S    
O8    Zn2   S    
C14   N2    A    
C21   H4    S    
C10   C11   A    
O1    Zn1   S    
C15   O5    A    
C17   C29   A    
C7    C8    A    
C18   C28   A    
C20   C21   A    
C16   C18   S    
O5    Zn1   S    
C5    H11   S    
C2    C23   A    
C10   H14   S    
C6    C15   S    
C2    C19   A    
C10   N2    A    
C12   C21   A    
C1    C9    S    
C24   C28   A    
C27   H10   S    
C8    C9    A    
C3    C5    A    
C22   H9    S    
C15   O6    A    
