data_mof_unit_53085.cif
_audit_creation_date              2012-12-10T17:31:17-0500
_audit_creation_method            fapswitch 2.2
_symmetry_space_group_name_H-M    P1
_symmetry_Int_Tables_number       1
_space_group_crystal_system       triclinic
_cell_length_a                    18.571495
_cell_length_b                    19.077722
_cell_length_c                    12.496851
_cell_angle_alpha                 89.983634
_cell_angle_beta                  130.684452
_cell_angle_gamma                 90.09464
_cell_volume                      3357.53579804

loop_
_atom_site_label
_atom_site_type_symbol
_atom_type_description
_atom_site_fract_x
_atom_site_fract_y
_atom_site_fract_z
_atom_type_partial_charge
C1    C     C_R   0.611363 0.897020 0.650651 0.799190
C2    C     C_R   0.611514 0.102922 0.650634 0.801106
C3    C     C_R   0.111364 0.397021 0.650652 0.799191
C4    C     C_R   0.111507 0.602926 0.650625 0.801120
C5    C     C_R   0.245516 0.771195 0.041704 0.079612
C6    C     C_R   0.245641 0.229218 0.043289 0.077694
C7    C     C_R   0.745537 0.271184 0.041732 0.079610
C8    C     C_R   0.745644 0.729222 0.043300 0.077699
C9    C     C_R   0.662699 0.263079 0.024231 0.145360
C10   C     C_R   0.662753 0.736779 0.025735 0.144599
C11   C     C_R   0.162675 0.763093 0.024201 0.145339
C12   C     C_R   0.162761 0.236789 0.025748 0.144616
C13   C     C_R   0.583486 0.229171 0.905756 -0.245432
C14   C     C_R   0.583998 0.771410 0.908524 -0.246930
C15   C     C_R   0.083462 0.729183 0.905724 -0.245446
C16   C     C_R   0.084005 0.271420 0.908537 -0.246918
C17   C     C_R   0.586113 0.201189 0.806412 -0.183878
C18   C     C_R   0.586574 0.799887 0.809456 -0.187867
C19   C     C_R   0.086089 0.701198 0.806381 -0.183871
C20   C     C_R   0.086576 0.299888 0.809458 -0.187854
C21   C     C_R   0.318634 0.813751 0.153337 -0.262130
C22   C     C_R   0.318817 0.186753 0.154753 -0.264598
C23   C     C_R   0.818651 0.313744 0.153358 -0.262131
C24   C     C_R   0.818831 0.686771 0.154789 -0.264607
C25   C     C_R   0.234114 0.828812 0.239808 0.002612
C26   C     C_R   0.233142 0.169312 0.238964 0.004005
C27   C     C_R   0.734134 0.328796 0.239836 0.002610
C28   C     C_R   0.733108 0.669272 0.238909 0.004010
C29   C     C_R   0.676381 0.163411 0.734712 -0.180022
C30   C     C_R   0.675817 0.836441 0.735044 -0.180384
C31   C     C_R   0.176358 0.663424 0.734683 -0.180038
C32   C     C_R   0.175823 0.336447 0.735050 -0.180384
C33   C     C_R   0.689485 0.992614 0.292687 -0.240842
C34   C     C_R   0.189491 0.492692 0.292691 -0.240840
C35   C     C_R   0.339460 0.001444 0.621760 0.016037
C36   C     C_R   0.839460 0.501420 0.621761 0.015993
C37   C     C_R   0.301698 0.995869 0.687474 -0.237810
C38   C     C_R   0.801701 0.495829 0.687478 -0.237782
C39   C     C_R   0.384196 0.099884 0.343834 0.772601
C40   C     C_R   0.384294 0.899934 0.343914 0.771830
C41   C     C_R   0.884194 0.599882 0.343832 0.772598
C42   C     C_R   0.884299 0.399931 0.343919 0.771850
C43   C     C_R   0.360127 0.986555 0.832628 0.395280
C44   C     C_R   0.860135 0.486521 0.832634 0.395290
C45   C     C_R   0.460241 0.992781 0.918520 -0.166123
C46   C     C_R   0.960246 0.492775 0.918523 -0.166126
C47   C     C_R   0.497267 0.996737 0.846092 0.170930
C48   C     C_R   0.997270 0.496745 0.846093 0.170928
C49   C     C_R   0.524940 0.994615 0.071915 -0.025910
C50   C     C_R   0.024944 0.494623 0.071918 -0.025906
C51   C     C_R   0.623126 0.991754 0.146633 0.016976
C52   C     C_R   0.123132 0.491808 0.146638 0.016969
C53   C     C_R   0.657669 0.990053 0.077892 -0.345686
C54   C     C_R   0.157677 0.490120 0.077899 -0.345691
C55   C     C_R   0.598859 0.995626 0.932596 0.469359
C56   C     C_R   0.098862 0.495654 0.932598 0.469368
C57   C     C_R   0.498948 0.001504 0.157157 -0.062445
C58   C     C_R   0.998946 0.501486 0.157157 -0.062427
C59   C     C_R   0.660934 0.995936 0.369645 0.628780
C60   C     C_R   0.160938 0.495986 0.369647 0.628780
C61   C     C_R   0.658659 0.289973 0.124014 -0.245127
C62   C     C_R   0.657982 0.708431 0.123885 -0.248924
C63   C     C_R   0.158636 0.789991 0.123981 -0.245137
C64   C     C_R   0.158007 0.208462 0.123930 -0.248891
C65   C     C_R   0.312663 0.845195 0.249022 -0.108155
C66   C     C_R   0.312368 0.154300 0.249200 -0.108789
C67   C     C_R   0.812677 0.345187 0.249040 -0.108152
C68   C     C_R   0.812362 0.654293 0.249198 -0.108769
C69   C     C_R   0.752642 0.179052 0.737803 0.007752
C70   C     C_R   0.750903 0.819495 0.736288 0.006435
C71   C     C_R   0.252604 0.679080 0.737749 0.007738
C72   C     C_R   0.250923 0.319516 0.736318 0.006425
C73   C     C_R   0.331431 0.715206 0.854103 -0.201380
C74   C     C_R   0.329841 0.283603 0.852596 -0.202848
C75   C     C_R   0.831468 0.215178 0.854159 -0.201386
C76   C     C_R   0.829820 0.783578 0.852560 -0.202892
C77   C     C_R   0.332186 0.742003 0.957870 -0.215240
C78   C     C_R   0.331521 0.257997 0.957925 -0.208501
C79   C     C_R   0.832214 0.241985 0.957911 -0.215273
C80   C     C_R   0.831512 0.757986 0.957910 -0.208445
C81   C     C_R   0.750561 0.238453 0.944032 0.092740
C82   C     C_R   0.750471 0.762102 0.945419 0.088865
C83   C     C_R   0.250538 0.738465 0.944002 0.092725
C84   C     C_R   0.250470 0.262101 0.945413 0.088859
C85   C     C_R   0.670771 0.200230 0.828252 0.080768
C86   C     C_R   0.670771 0.800418 0.830016 0.080670
C87   C     C_R   0.170748 0.700241 0.828224 0.080769
C88   C     C_R   0.170771 0.300417 0.830012 0.080664
Cu1   Cu    Cu3+1 0.526340 0.000000 0.421010 0.941970
Cu2   Cu    Cu3+1 0.026340 0.500000 0.421010 0.941963
Cu3   Cu    Cu3+1 0.473640 1.000000 0.578990 0.967181
Cu4   Cu    Cu3+1 0.973640 0.500000 0.578990 0.967170
H1    H     H_    0.734030 0.987513 0.140226 0.132587
H2    H     H_    0.234039 0.487608 0.140236 0.132582
H3    H     H_    0.765054 0.990670 0.348898 0.150346
H4    H     H_    0.265062 0.490788 0.348902 0.150343
H5    H     H_    0.426543 0.009864 0.111180 0.198573
H6    H     H_    0.926537 0.509814 0.111179 0.198588
H7    H     H_    0.292159 0.004415 0.507931 0.168072
H8    H     H_    0.792157 0.504380 0.507931 0.168105
H9    H     H_    0.225384 0.993882 0.623381 0.169368
H10   H     H_    0.725389 0.493820 0.623388 0.169384
H11   H     H_    0.518230 0.225510 0.887943 0.127037
H12   H     H_    0.518982 0.775087 0.891273 0.126101
H13   H     H_    0.018204 0.725522 0.887908 0.127065
H14   H     H_    0.018994 0.275105 0.891299 0.126103
H15   H     H_    0.596506 0.279423 0.112525 0.126515
H16   H     H_    0.595420 0.718006 0.111704 0.127908
H17   H     H_    0.096480 0.779446 0.112488 0.126532
H18   H     H_    0.095460 0.218056 0.111778 0.127863
H19   H     H_    0.380160 0.825474 0.165247 0.153122
H20   H     H_    0.380908 0.175931 0.167773 0.155821
H21   H     H_    0.880172 0.325474 0.165261 0.153125
H22   H     H_    0.880947 0.675977 0.167863 0.155790
H23   H     H_    0.397256 0.767075 0.045183 0.121840
H24   H     H_    0.396521 0.232838 0.044725 0.126338
H25   H     H_    0.897284 0.267054 0.045228 0.121837
H26   H     H_    0.896508 0.732817 0.044695 0.126328
H27   H     H_    0.393060 0.724229 0.864190 0.118903
H28   H     H_    0.390574 0.273347 0.861038 0.118222
H29   H     H_    0.893105 0.224191 0.864261 0.118926
H30   H     H_    0.890537 0.773302 0.860974 0.118207
H31   H     H_    0.520011 0.181506 0.710981 0.156098
H32   H     H_    0.520483 0.819782 0.714767 0.157981
H33   H     H_    0.019986 0.681515 0.710945 0.156086
H34   H     H_    0.020485 0.319785 0.714772 0.157989
N1    N     N_R   0.566260 0.000000 0.302220 -0.245292
N2    N     N_R   0.066260 0.500000 0.302220 -0.245297
N3    N     N_R   0.434410 0.000000 0.697680 -0.197319
N4    N     N_R   0.934410 0.500000 0.697680 -0.197328
O1    O     O_R   0.608610 0.924520 0.551740 -0.595050
O2    O     O_R   0.608610 0.075480 0.551740 -0.603520
O3    O     O_R   0.108610 0.424520 0.551740 -0.595139
O4    O     O_R   0.108610 0.575480 0.551740 -0.603468
O5    O     O_R   0.564110 0.924510 0.685150 -0.516965
O6    O     O_R   0.564110 0.075490 0.685150 -0.510235
O7    O     O_R   0.064110 0.424510 0.685150 -0.516941
O8    O     O_R   0.064110 0.575490 0.685150 -0.510247
O9    O     O_R   0.435880 0.075470 0.314850 -0.581715
O10   O     O_R   0.435880 0.924530 0.314850 -0.579342
O11   O     O_R   0.935880 0.575470 0.314850 -0.581699
O12   O     O_R   0.935880 0.424530 0.314850 -0.579357
O13   O     O_R   0.391380 0.075460 0.448260 -0.593113
O14   O     O_R   0.391380 0.924540 0.448260 -0.590496
O15   O     O_R   0.891380 0.575460 0.448260 -0.593130
O16   O     O_R   0.891380 0.424540 0.448260 -0.590496
C89   C     C_R   0.229598 0.845678 0.351186 0.132335
C90   C     C_R   0.302382 0.822911 0.490063 -0.069510
C91   C     C_R   0.292675 0.828806 0.591399 -0.118062
C92   C     C_R   0.208032 0.853675 0.553327 -0.125167
C93   C     C_R   0.135448 0.877249 0.415946 -0.181326
C94   C     C_R   0.146344 0.873886 0.315438 -0.179428
H35   H     H_    0.365096 0.798297 0.518156 0.103606
H36   H     H_    0.349803 0.812311 0.698421 0.118265
H37   H     H_    0.199546 0.856021 0.631125 0.158659
H38   H     H_    0.070492 0.897658 0.387090 0.132749
H39   H     H_    0.088650 0.891043 0.208632 0.130642
C95   C     C_R   0.227073 0.150295 0.348079 0.130476
C96   C     C_R   0.143728 0.119965 0.309080 -0.182114
C97   C     C_R   0.130925 0.114267 0.407292 -0.176637
C98   C     C_R   0.201447 0.138028 0.545420 -0.130495
C99   C     C_R   0.285982 0.165556 0.586535 -0.122254
C100  C     C_R   0.297944 0.173057 0.487823 -0.070883
H40   H     H_    0.087450 0.102813 0.201553 0.131566
H41   H     H_    0.065997 0.091985 0.375996 0.132795
H42   H     H_    0.191428 0.133899 0.621364 0.146144
H43   H     H_    0.341512 0.182394 0.694121 0.122314
H44   H     H_    0.360844 0.198967 0.518643 0.106227
C101  C     C_R   0.729622 0.345656 0.351220 0.132326
C102  C     C_R   0.802410 0.322884 0.490093 -0.069540
C103  C     C_R   0.792705 0.328767 0.591432 -0.118043
C104  C     C_R   0.708060 0.353628 0.553368 -0.125184
C105  C     C_R   0.635473 0.377207 0.415992 -0.181341
C106  C     C_R   0.646367 0.373857 0.315480 -0.179426
H45   H     H_    0.865122 0.298274 0.518176 0.103610
H46   H     H_    0.849834 0.312267 0.698450 0.118275
H47   H     H_    0.699576 0.355964 0.631168 0.158670
H48   H     H_    0.570516 0.397610 0.387141 0.132748
H49   H     H_    0.588670 0.391017 0.208678 0.130634
C107  C     C_R   0.726971 0.650188 0.347924 0.130471
C108  C     C_R   0.643615 0.619795 0.308780 -0.182086
C109  C     C_R   0.630691 0.614062 0.406852 -0.176560
C110  C     C_R   0.701102 0.637857 0.544985 -0.130615
C111  C     C_R   0.785659 0.665437 0.586257 -0.122349
C112  C     C_R   0.797749 0.672960 0.487689 -0.070973
H50   H     H_    0.587414 0.602628 0.201240 0.131583
H51   H     H_    0.565751 0.591734 0.375437 0.132789
H52   H     H_    0.690982 0.633709 0.620814 0.146078
H53   H     H_    0.841107 0.682296 0.693855 0.122454
H54   H     H_    0.860667 0.698901 0.518635 0.106324
O17   O     O_3   0.316439 0.964761 0.882912 -0.752025
H55   H     H_    0.354466 0.925193 0.948209 0.314194
O18   O     O_3   0.816458 0.464706 0.882922 -0.752027
H56   H     H_    0.854501 0.425142 0.948219 0.314181
O19   O     O_3   0.643599 0.000816 0.879145 -0.678629
H57   H     H_    0.713849 0.000166 0.953506 0.296034
O20   O     O_3   0.143601 0.500815 0.879139 -0.678626
H58   H     H_    0.213850 0.500174 0.953498 0.296031
C113  C     C_R   0.749395 0.165044 0.617228 0.120341
C114  C     C_R   0.668275 0.183508 0.478935 -0.055897
C115  C     C_R   0.667436 0.176418 0.366870 -0.116331
C116  C     C_R   0.748617 0.153466 0.391925 -0.131768
C117  C     C_R   0.829904 0.135616 0.528603 -0.114461
C118  C     C_R   0.830332 0.140940 0.640667 -0.123697
H59   H     H_    0.605984 0.204341 0.458163 0.108708
H60   H     H_    0.604283 0.189892 0.260982 0.114927
H61   H     H_    0.748310 0.149065 0.305270 0.138404
H62   H     H_    0.892595 0.117475 0.547714 0.126623
H63   H     H_    0.894064 0.126770 0.745707 0.124084
C119  C     C_R   0.745655 0.830957 0.613298 0.130935
C120  C     C_R   0.826435 0.852052 0.633208 -0.108014
C121  C     C_R   0.824134 0.854262 0.519166 -0.124313
C122  C     C_R   0.741114 0.836352 0.383952 -0.131030
C123  C     C_R   0.660035 0.816513 0.362279 -0.112596
C124  C     C_R   0.662727 0.812401 0.476433 -0.056670
H64   H     H_    0.891501 0.866273 0.737032 0.122068
H65   H     H_    0.886694 0.870054 0.535560 0.125411
H66   H     H_    0.739375 0.838569 0.295753 0.141718
H67   H     H_    0.595513 0.803090 0.257460 0.110966
H68   H     H_    0.600476 0.793701 0.458386 0.105411
C125  C     C_R   0.249329 0.665098 0.617139 0.120435
C126  C     C_R   0.168178 0.683551 0.478861 -0.055872
C127  C     C_R   0.167301 0.676479 0.366757 -0.116300
C128  C     C_R   0.248474 0.653558 0.391757 -0.131740
C129  C     C_R   0.329792 0.635724 0.528421 -0.114520
C130  C     C_R   0.330259 0.641029 0.640525 -0.123571
H69   H     H_    0.105890 0.704360 0.458130 0.108654
H70   H     H_    0.104124 0.689943 0.260881 0.114887
H71   H     H_    0.248137 0.649170 0.305072 0.138430
H72   H     H_    0.392479 0.617610 0.547490 0.126596
H73   H     H_    0.394015 0.626869 0.745552 0.124054
C131  C     C_R   0.245698 0.331002 0.613355 0.130896
C132  C     C_R   0.326482 0.352129 0.633302 -0.108098
C133  C     C_R   0.324205 0.354358 0.519282 -0.124209
C134  C     C_R   0.241204 0.336440 0.384056 -0.131030
C135  C     C_R   0.160120 0.316575 0.362346 -0.112621
C136  C     C_R   0.162790 0.312440 0.476478 -0.056620
H74   H     H_    0.391532 0.366355 0.737136 0.122065
H75   H     H_    0.386768 0.370173 0.535705 0.125414
H76   H     H_    0.239484 0.338670 0.295875 0.141685
H77   H     H_    0.095611 0.303150 0.257517 0.110966
H78   H     H_    0.100536 0.293718 0.458402 0.105427
O21   O     O_3   0.732058 0.995150 0.513846 -0.753498
H79   H     H_    0.705067 0.001400 0.558754 0.374096
O22   O     O_3   0.232065 0.495233 0.513849 -0.753521
H80   H     H_    0.205062 0.501386 0.558757 0.374108

loop_
_geom_bond_atom_site_label_1
_geom_bond_atom_site_label_2
_ccdc_geom_bond_type
C104  H47   S    
C55   O19   S    
C103  C104  A    
C58   N2    A    
C114  H59   S    
C73   H27   S    
C134  H76   S    
C14   C18   A    
C53   C55   A    
C83   C87   A    
C89   C90   A    
C58   H6    S    
C25   C63   A    
C92   H37   S    
C117  C118  A    
Cu4   O8    S    
C128  C129  A    
Cu3   O5    S    
C98   C99   A    
C112  H54   S    
C32   C72   A    
C108  C109  A    
C135  C136  A    
C120  C121  A    
C41   O11   A    
C44   O18   S    
C18   C86   A    
Cu1   O2    S    
C136  H78   S    
C47   N3    A    
C2    C29   S    
C8    C82   A    
C105  H48   S    
C4    O4    A    
C28   C68   A    
C34   H4    S    
C99   C100  A    
C19   C87   A    
C123  H67   S    
C1    C30   S    
C6    C12   A    
C104  C105  A    
Cu2   O4    S    
Cu1   Cu3   S    
C62   H16   S    
C121  H65   S    
C77   C83   A    
C59   N1    A    
C130  H73   S    
C6    C22   A    
C20   C88   A    
C71   C73   A    
C49   C57   A    
C111  C112  A    
C59   O21   S    
C115  C116  A    
C23   C67   A    
C26   C64   A    
C109  C110  A    
C22   C66   A    
C9    C13   A    
C27   C61   A    
C30   C70   A    
C15   C19   A    
Cu2   Cu4   S    
C17   H31   S    
Cu3   O6    S    
C12   C16   A    
C44   C46   A    
C114  C115  A    
Cu1   O9    S    
C118  H63   S    
C42   O12   A    
C2    O2    A    
C134  C135  A    
C95   C96   A    
C26   C95   S    
C3    O7    A    
C5    C83   A    
C45   C49   A    
C30   C86   A    
C132  C133  A    
C35   N3    A    
Cu3   O13   S    
C98   H42   S    
C48   C56   A    
C16   H14   S    
C133  H75   S    
C21   C65   A    
C31   C71   A    
C120  H64   S    
C93   C94   A    
C43   O17   S    
C60   O22   S    
C33   C59   A    
C91   H36   S    
O22   H80   S    
C115  H60   S    
C34   C60   A    
C48   N4    A    
C10   C62   A    
C11   C15   A    
C35   H7    S    
Cu4   O7    S    
C33   H3    S    
C28   C62   A    
C21   H19   S    
C52   C54   A    
C41   C68   S    
C29   C69   A    
C102  H45   S    
C45   C47   A    
C46   C48   A    
C6    C84   A    
C116  C117  A    
Cu4   O16   S    
O17   H55   S    
C26   C66   A    
C101  C102  A    
C76   C80   A    
C128  H71   S    
C60   N2    A    
C31   C87   A    
C90   C91   A    
C127  C128  A    
C36   H8    S    
C10   C14   A    
C80   H26   S    
C79   C81   A    
Cu2   O3    S    
C123  C124  A    
C49   C51   A    
C17   C85   A    
C105  C106  A    
C53   H1    S    
C125  C130  A    
C19   H33   S    
C2    O6    A    
C14   H12   S    
C99   H43   S    
C74   C78   A    
C3    O3    A    
C5    C21   A    
C50   C58   A    
C135  H77   S    
C63   H17   S    
C101  C106  A    
Cu4   N4    S    
C132  H74   S    
C110  C111  A    
C38   C44   A    
C125  C126  A    
C36   N4    A    
C23   H21   S    
C43   C45   A    
C39   O9    A    
C50   C52   A    
C96   C97   A    
C122  C123  A    
C16   C20   A    
Cu1   O10   S    
C57   H5    S    
C129  C130  A    
C25   C65   A    
C3    C32   S    
C25   C89   S    
C27   C67   A    
C93   H38   S    
C28   C107  S    
Cu2   O12   S    
Cu3   O14   S    
C95   C100  A    
C72   C74   A    
C7    C81   A    
C39   O13   A    
O18   H56   S    
C22   H20   S    
C116  H61   S    
C40   O14   A    
C70   C76   A    
C131  C136  A    
C70   C119  S    
C39   C66   S    
C9    C61   A    
C37   C43   A    
C13   H11   S    
C133  C134  A    
C102  C103  A    
C42   O16   A    
C107  C108  A    
C47   C55   A    
C56   O20   S    
Cu1   N1    S    
C42   C67   S    
C7    C9    A    
C12   C64   A    
C27   C101  S    
C94   H39   S    
O20   H58   S    
Cu2   N2    S    
C72   C131  S    
C35   C37   A    
Cu4   O15   S    
C75   H29   S    
C29   C85   A    
C78   H24   S    
C84   C88   A    
C1    O1    A    
Cu1   O1    S    
C57   N1    A    
C108  H50   S    
C54   C56   A    
C5    C11   A    
Cu3   N3    S    
C33   C51   A    
C74   H28   S    
C103  H46   S    
C46   C50   A    
C110  H52   S    
C34   C52   A    
C129  H72   S    
C92   C93   A    
C13   C17   A    
C40   C65   S    
C122  H66   S    
C76   H30   S    
C97   C98   A    
C15   H13   S    
C97   H41   S    
C89   C94   A    
C100  H44   S    
C38   H10   S    
C82   C86   A    
C91   C92   A    
C37   H9    S    
C127  H70   S    
C113  C118  A    
C126  H69   S    
C7    C23   A    
Cu2   O11   S    
C79   H25   S    
C36   C38   A    
C131  C132  A    
C8    C24   A    
C80   C82   A    
C20   H34   S    
C69   C75   A    
C117  H62   S    
C109  H51   S    
C126  C127  A    
C61   H15   S    
C54   H2    S    
C4    C31   S    
C71   C125  S    
C107  C112  A    
C24   C68   A    
C4    O8    A    
O19   H57   S    
C78   C84   A    
C113  C114  A    
C41   O15   A    
C121  C122  A    
C8    C10   A    
C119  C120  A    
C90   H35   S    
C1    O5    A    
C24   H22   S    
C69   C113  S    
C73   C77   A    
C96   H40   S    
C51   C53   A    
C119  C124  A    
C77   H23   S    
C11   C63   A    
C75   C79   A    
C106  H49   S    
C111  H53   S    
C40   O10   A    
C81   C85   A    
C124  H68   S    
O21   H79   S    
C18   H32   S    
C64   H18   S    
C32   C88   A    
