data_mof_unit_40507.cif
_audit_creation_date              2012-12-10T16:54:04-0500
_audit_creation_method            fapswitch 2.2
_symmetry_space_group_name_H-M    P1
_symmetry_Int_Tables_number       1
_space_group_crystal_system       triclinic
_cell_length_a                    9.795814
_cell_length_b                    10.924308
_cell_length_c                    13.455542
_cell_angle_alpha                 91.030135
_cell_angle_beta                  74.30628
_cell_angle_gamma                 88.792879
_cell_volume                      1385.50615145

loop_
_atom_site_label
_atom_site_type_symbol
_atom_type_description
_atom_site_fract_x
_atom_site_fract_y
_atom_site_fract_z
_atom_type_partial_charge
C1    C     C_R   0.498017 0.734456 0.501629 0.897250
C2    C     C_R   0.452508 0.456716 0.973487 0.096709
C3    C     C_R   0.497053 0.448597 0.864614 0.066316
C4    C     C_R   0.552249 0.489581 0.028417 0.070815
C5    C     C_R   0.699260 0.486957 0.975632 0.054161
C6    C     C_R   0.742281 0.446293 0.872846 -0.197083
C7    C     C_R   0.643368 0.429994 0.817623 -0.110523
C8    C     C_R   0.511281 0.529730 0.133019 -0.097604
C9    C     C_R   0.757538 0.527081 0.135538 -0.151584
C10   C     C_R   0.392538 0.452006 0.808544 -0.083187
C11   C     C_2   0.589990 0.063252 0.540190 0.018295
C12   C     C_R   0.426935 0.484977 0.698020 0.844314
C13   C     C_2   0.504742 0.132803 0.498715 -0.315136
C14   C     C_2   0.600716 0.930651 0.520636 -0.215374
C15   C     C_2   0.489670 0.866747 0.511113 -0.310895
C16   C     C_2   0.060211 0.588209 0.539215 0.067939
C17   C     C_2   0.902764 0.570493 0.559824 -0.015004
C18   C     C_R   0.500567 0.265615 0.502198 0.877542
C19   C     C_R   0.574156 0.509171 0.301465 0.775294
C20   C     C_R   0.799137 0.523680 0.027933 -0.032050
C21   C     C_R   0.614023 0.521300 0.188940 -0.172910
C22   C     C_R   0.252874 0.423254 0.860512 -0.165901
C23   C     C_R   0.216264 0.401186 0.966103 -0.082293
C24   C     C_R   0.312849 0.423282 0.023241 -0.056812
Cu1   Cu    Cu3+1 0.361370 0.499980 0.499980 0.984991
Cu2   Cu    Cu3+1 0.638630 0.500020 0.500020 0.998477
H1    H     H_    0.836543 0.539076 0.177581 0.219123
H2    H     H_    0.440999 0.091327 0.453289 0.140022
H3    H     H_    0.699527 0.883986 0.521346 0.205310
H4    H     H_    0.387230 0.910828 0.517445 0.168602
H5    H     H_    0.113594 0.415831 0.494168 0.184903
H6    H     H_    0.852902 0.427814 0.833687 0.142769
H7    H     H_    0.172679 0.415252 0.819145 0.142519
H8    H     H_    0.278736 0.411335 0.105886 0.141542
H9    H     H_    0.110348 0.372817 0.004864 0.139803
H10   H     H_    0.685182 0.396789 0.739350 0.208177
N1    N     N_2   0.152660 0.501340 0.501130 -0.319184
N2    N     N_2   0.846520 0.501370 0.501160 -0.283749
O1    O     O_R   0.382960 0.678040 0.499980 -0.580014
O2    O     O_R   0.617100 0.678080 0.500020 -0.522920
O3    O     O_R   0.325800 0.499940 0.650950 -0.551716
O4    O     O_R   0.559930 0.499980 0.650990 -0.572956
O5    O     O_R   0.382900 0.321920 0.499980 -0.594634
O6    O     O_R   0.617040 0.321960 0.500020 -0.575059
O7    O     O_R   0.440070 0.500020 0.349010 -0.596417
O8    O     O_R   0.674200 0.500060 0.349050 -0.590662
C25   C     C_2   0.104649 0.707686 0.570472 0.936023
O9    O     O_2   0.093802 0.798359 0.520966 -0.619109
O10   O     O_R   0.150688 0.717939 0.659907 -0.712240
H11   H     H_    0.175097 0.804928 0.674590 0.323800
C26   C     C_2   0.815807 0.633112 0.656687 0.846571
O11   O     O_2   0.860900 0.633775 0.732927 -0.633925
O12   O     O_R   0.693114 0.701459 0.660136 -0.718784
H12   H     H_    0.648324 0.741065 0.730493 0.331172
C27   C     C_2   0.930686 0.461262 0.401317 0.562471
H13   H     H_    0.916574 0.370131 0.373013 0.032424
O13   O     O_2   0.009475 0.530880 0.343831 -0.554206
C28   C     C_2   0.940713 0.569122 0.972764 0.362049
H14   H     H_    0.977093 0.566565 0.889298 0.126263
O14   O     O_2   0.016437 0.616715 0.020390 -0.485512
C29   C     C_2   0.380912 0.609322 0.174379 0.402539
H15   H     H_    0.343982 0.635938 0.255144 0.132076
O15   O     O_2   0.318738 0.655750 0.116534 -0.483921
C30   C     C_2   0.673127 0.111695 0.608649 0.403579
H16   H     H_    0.771883 0.065884 0.610314 0.073980
O16   O     O_2   0.627533 0.197138 0.668850 -0.576456

loop_
_geom_bond_atom_site_label_1
_geom_bond_atom_site_label_2
_ccdc_geom_bond_type
C6    H6    S    
C27   H13   S    
C19   O7    A    
C13   H2    S    
C6    C7    A    
C1    C15   S    
C12   O3    A    
C18   O6    A    
C17   C26   S    
C7    H10   S    
C8    C29   S    
C9    C20   A    
C2    C4    A    
C25   O9    D    
C16   N1    D    
C4    C8    A    
C9    C21   A    
C30   H16   S    
Cu1   O5    S    
C2    C3    A    
C28   H14   S    
C19   O8    A    
Cu2   O6    S    
C25   O10   S    
C3    C10   A    
O12   H12   S    
Cu1   O1    S    
C11   C13   D    
Cu2   O2    S    
C5    C6    A    
C10   C12   S    
C13   C18   S    
C16   C25   S    
C19   C21   S    
C8    C21   A    
C3    C7    A    
C17   N2    D    
C27   O13   D    
Cu2   O4    S    
C2    C24   A    
C29   H15   S    
C23   H9    S    
C5    C20   A    
Cu2   O8    S    
C14   H3    S    
C28   O14   D    
C26   O11   D    
Cu1   O7    S    
C4    C5    A    
C26   O12   S    
C9    H1    S    
C15   H4    S    
O10   H11   S    
Cu1   O3    S    
C11   C14   S    
C29   O15   D    
C22   H7    S    
C1    O1    A    
C14   C15   D    
Cu2   N2    S    
C12   O4    A    
C23   C24   A    
C1    O2    A    
Cu1   N1    S    
Cu1   Cu2   S    
C18   O5    A    
C20   C28   S    
C10   C22   A    
C22   C23   A    
C24   H8    S    
N2    C27   S    
H5    N1    S    
C16   C17   S    
C11   C30   S    
C30   O16   D    
