data_mof_unit_58916.cif
_audit_creation_date              2012-10-26T20:14:32-0400
_audit_creation_method            fapswitch 2.2
_symmetry_space_group_name_H-M    P1
_symmetry_Int_Tables_number       1
_space_group_crystal_system       triclinic
_cell_length_a                    7.799482
_cell_length_b                    9.086112
_cell_length_c                    17.093138
_cell_angle_alpha                 89.920165
_cell_angle_beta                  84.786999
_cell_angle_gamma                 89.994057
_cell_volume                      1206.32734446

loop_
_atom_site_label
_atom_site_type_symbol
_atom_type_description
_atom_site_fract_x
_atom_site_fract_y
_atom_site_fract_z
_atom_type_partial_charge
C1    C     C_R   0.499949 0.779908 0.500285 0.514213
C2    C     C_R   0.607194 0.410164 0.215651 0.186763
C3    C     C_R   0.489638 0.401542 0.862632 -0.134978
C4    C     C_R   0.621624 0.430319 0.134040 -0.137270
C5    C     C_R   0.415773 0.525722 0.900132 0.048449
C6    C     C_R   0.575358 0.564065 0.101432 -0.018941
C7    C     C_R   0.359496 0.644424 0.856526 0.240281
C8    C     C_R   0.518990 0.682927 0.150670 0.258792
C9    C     C_R   0.379567 0.638674 0.773700 0.177209
C10   C     C_R   0.501044 0.663257 0.232075 0.227080
C11   C     C_2   0.418462 0.538544 0.985670 0.306227
C12   C     C_R   0.499999 0.220087 0.500039 0.588686
C13   C     C_2   0.568221 0.570853 0.015968 0.241003
C14   C     C_3   0.745912 0.725016 0.939579 -0.029016
C15   C     C_3   0.851479 0.719646 0.859849 -0.236035
C16   C     C_3   0.883999 0.873646 0.826012 -0.446528
C17   C     C_3   0.162440 0.608533 0.051405 0.023456
C18   C     C_3   0.069060 0.583862 0.132938 -0.248338
C19   C     C_3   0.968518 0.720119 0.162130 -0.439215
C20   C     C_1   0.499953 0.934588 0.500234 -0.018544
C21   C     C_1   0.499981 0.065387 0.500146 0.000424
C22   C     C_R   0.475839 0.501230 0.650666 0.581951
C23   C     C_R   0.524119 0.502286 0.349343 0.582169
C24   C     C_R   0.456721 0.512434 0.736169 0.024273
C25   C     C_R   0.542636 0.525266 0.264517 -0.000022
C26   C     C_R   0.511514 0.394063 0.780568 0.186314
Cu1   Cu    Cu3+1 0.330920 0.500000 0.500000 1.067574
Cu2   Cu    Cu3+1 0.669080 0.500000 0.500000 1.082755
H1    H     H_    0.664610 0.340297 0.095567 0.140813
H2    H     H_    0.623303 0.783973 0.931624 0.154273
H3    H     H_    0.976573 0.664675 0.866258 0.211648
H4    H     H_    0.781072 0.654011 0.818219 0.180193
H5    H     H_    0.760061 0.927747 0.816085 0.155592
H6    H     H_    0.963681 0.865893 0.768943 0.199777
H7    H     H_    0.953535 0.941860 0.866774 0.161746
H8    H     H_    0.066612 0.610990 0.007182 0.194649
H9    H     H_    0.227607 0.717758 0.050936 0.184318
H10   H     H_    0.979888 0.489012 0.130781 0.184386
H11   H     H_    0.164244 0.556930 0.175399 0.198972
H12   H     H_    0.534427 0.312251 0.897656 0.131456
H13   H     H_    0.058234 0.812551 0.170490 0.201939
H14   H     H_    0.895014 0.695577 0.219351 0.168726
H15   H     H_    0.877213 0.753832 0.119356 0.156534
H16   H     H_    0.266490 0.844928 0.859444 0.376008
H17   H     H_    0.513359 0.825635 0.065204 0.302621
H18   H     H_    0.615707 0.199397 0.782080 0.325232
H19   H     H_    0.693490 0.209294 0.206556 0.342226
H20   H     H_    0.452866 0.762749 0.333487 0.319939
H21   H     H_    0.374806 0.754035 0.676752 0.332868
H22   H     H_    0.817454 0.788699 0.981561 0.139250
N1    N     N_1   0.923170 0.500000 0.500010 -0.070640
N2    N     N_1   0.076830 0.500000 0.499990 -0.069264
O1    O     O_R   0.357240 0.711600 0.500000 -0.509914
O2    O     O_3   0.479891 0.820315 0.122244 -0.653776
O3    O     O_3   0.585043 0.272333 0.742434 -0.678766
O4    O     O_3   0.650585 0.278102 0.248892 -0.662094
O5    O     O_3   0.444140 0.782973 0.277239 -0.629789
O6    O     O_3   0.326299 0.758685 0.732134 -0.722260
O7    O     O_3   0.721058 0.579675 0.967944 -0.602065
O8    O     O_3   0.277395 0.490443 0.034199 -0.584190
O9    O     O_R   0.642760 0.288400 0.500000 -0.478820
O10   O     O_R   0.642760 0.711600 0.500000 -0.507863
O11   O     O_R   0.357240 0.288400 0.500000 -0.490664
O12   O     O_R   0.340660 0.500000 0.613590 -0.503234
O13   O     O_R   0.659340 0.500000 0.386410 -0.484883
O14   O     O_R   0.626230 0.500000 0.613600 -0.478609
O15   O     O_R   0.373770 0.500000 0.386400 -0.502949
O16   O     O_3   0.293531 0.766918 0.896806 -0.762118

loop_
_geom_bond_atom_site_label_1
_geom_bond_atom_site_label_2
_ccdc_geom_bond_type
H18   O3    S    
H17   O2    S    
Cu2   O14   S    
C18   H11   S    
Cu1   O1    S    
C9    C24   A    
C15   H3    S    
C13   O7    S    
C17   H8    S    
C16   H5    S    
C2    C4    A    
C4    H1    S    
C19   H14   S    
C23   O15   A    
Cu2   O9    S    
C23   O13   A    
C17   C18   S    
C18   H10   S    
H20   O5    S    
C2    O4    S    
C11   O8    S    
C1    O10   A    
C6    C13   S    
C14   O7    S    
C11   C13   D    
C14   H22   S    
Cu1   O11   S    
C14   H2    S    
C6    C8    A    
C10   C25   A    
C4    C6    A    
C26   O3    S    
C19   H15   S    
C3    H12   S    
C5    C11   S    
C2    C25   A    
C5    C7    A    
C23   C25   S    
C16   H7    S    
Cu1   N2    S    
Cu2   N1    S    
C22   C24   S    
H16   O16   S    
Cu1   O15   S    
Cu1   O12   S    
C17   O8    S    
C22   O12   A    
C15   C16   S    
C15   H4    S    
C10   O5    S    
N1    N2    T    
C20   C21   T    
C8    C10   A    
C9    O6    S    
C8    O2    S    
Cu1   Cu2   S    
C7    C9    A    
C12   O11   A    
C1    O1    A    
C14   C15   S    
C18   C19   S    
C1    C20   S    
C17   H9    S    
C12   O9    A    
C16   H6    S    
C7    O16   S    
Cu2   O13   S    
C12   C21   S    
C3    C26   A    
C22   O14   A    
H21   O6    S    
C19   H13   S    
C24   C26   A    
H19   O4    S    
C3    C5    A    
Cu2   O10   S    
