data_mof_unit_51157.cif
_audit_creation_date              2012-12-10T17:50:16-0500
_audit_creation_method            fapswitch 2.2
_symmetry_space_group_name_H-M    P1
_symmetry_Int_Tables_number       1
_space_group_crystal_system       triclinic
_cell_length_a                    10.641801
_cell_length_b                    14.834517
_cell_length_c                    14.933717
_cell_angle_alpha                 63.848344
_cell_angle_beta                  105.482213
_cell_angle_gamma                 103.110974
_cell_volume                      2023.0883017

loop_
_atom_site_label
_atom_site_type_symbol
_atom_type_description
_atom_site_fract_x
_atom_site_fract_y
_atom_site_fract_z
_atom_type_partial_charge
C1    C     C_R   0.476688 0.120348 0.312309 0.800906
C2    C     C_R   0.515966 0.879394 0.687733 0.794078
C3    C     C_R   0.485129 0.295090 0.174877 -0.031200
C4    C     C_R   0.453248 0.706753 0.825116 -0.055792
C5    C     C_R   0.413353 0.366370 0.087811 0.006719
C6    C     C_R   0.449101 0.643624 0.929368 -0.003056
C7    C     C_R   0.315591 0.330312 0.021118 0.042903
C8    C     C_R   0.514745 0.682358 0.003791 0.051794
C9    C     C_R   0.437925 0.472378 0.062868 0.001241
C10   C     C_R   0.392541 0.540087 0.963099 -0.011247
C11   C     C_R   0.286798 0.503025 0.903185 -0.264152
C12   C     C_R   0.495083 0.512650 0.136124 -0.269373
C13   C     C_R   0.249484 0.398997 0.930144 0.479595
C14   C     C_R   0.532360 0.617418 0.107960 0.474606
C15   C     C_R   0.747609 0.298100 0.643176 -0.341883
C16   C     C_R   0.252892 0.700554 0.358084 -0.338015
C17   C     C_R   0.697263 0.208550 0.630614 0.160025
C18   C     C_R   0.301157 0.789835 0.371313 0.168422
C19   C     C_R   0.512335 0.283934 0.510780 0.094335
C20   C     C_R   0.491071 0.718000 0.486367 0.105431
C21   C     C_R   0.550119 0.372026 0.532666 -0.073061
C22   C     C_R   0.453554 0.629235 0.465222 -0.041264
C23   C     C_R   0.259753 0.000127 0.499868 0.833343
C24   C     C_R   0.740319 0.999729 0.500531 0.843481
C25   C     C_R   0.677036 0.380974 0.591325 0.153940
C26   C     C_R   0.325746 0.619100 0.407989 0.163193
C27   C     C_R   0.472479 0.453614 0.495266 0.069603
C28   C     C_R   0.531592 0.547673 0.502505 0.087361
C29   C     C_R   0.667128 0.557367 0.543392 -0.248404
C30   C     C_R   0.336895 0.443161 0.455142 -0.232472
C31   C     C_R   0.735480 0.474045 0.593633 -0.186549
C32   C     C_R   0.267901 0.525942 0.405655 -0.180446
C33   C     C_3   0.012107 0.017445 0.406042 -0.286085
C34   C     C_3   0.988153 0.982431 0.595370 -0.297576
C35   C     C_3   0.961037 0.090795 0.432970 -0.304199
C36   C     C_3   0.039478 0.909114 0.568458 -0.313751
C37   C     C_3   0.877258 0.999602 0.500783 -0.115342
C38   C     C_3   0.123079 0.000304 0.500404 -0.112482
C39   C     C_3   0.928155 0.927551 0.474402 0.614325
C40   C     C_3   0.072267 0.072404 0.526967 0.613270
C41   C     C_R   0.441219 0.190704 0.205128 -0.088134
C42   C     C_R   0.510560 0.809932 0.795785 -0.091541
C43   C     C_R   0.285332 0.225840 0.046274 -0.146851
C44   C     C_R   0.565250 0.785221 0.973034 -0.146565
C45   C     C_R   0.345736 0.156961 0.138097 -0.208349
C46   C     C_R   0.561632 0.848052 0.870760 -0.208313
Cu1   Cu    Cu3+1 0.465750 0.918270 0.475680 0.985303
Cu2   Cu    Cu3+1 0.534250 0.081730 0.524320 0.984059
H1    H     H_    0.926919 0.164859 0.379009 0.174517
H2    H     H_    0.074387 0.835459 0.622861 0.158035
H3    H     H_    0.841876 0.303359 0.692653 0.151990
H4    H     H_    0.157559 0.694054 0.310206 0.141086
H5    H     H_    0.724136 0.628960 0.536295 0.166883
H6    H     H_    0.280348 0.371088 0.462719 0.175091
H7    H     H_    0.023313 0.030790 0.329279 0.188420
H8    H     H_    0.975862 0.968502 0.672059 0.179819
H9    H     H_    0.603898 0.926472 0.850741 0.179616
H10   H     H_    0.315175 0.077121 0.157598 0.186927
H11   H     H_    0.211806 0.196685 0.996396 0.189456
H12   H     H_    0.611959 0.817245 0.028294 0.191265
H13   H     H_    0.228451 0.554737 0.837237 0.161002
H14   H     H_    0.503110 0.463240 0.215767 0.162268
H15   H     H_    0.837183 0.483748 0.630510 0.148785
H16   H     H_    0.165896 0.515592 0.369694 0.145743
N1    N     N_R   0.585750 0.204560 0.560800 -0.220361
N2    N     N_R   0.414250 0.795440 0.439200 -0.222763
O1    O     O_R   0.454850 0.022100 0.338110 -0.580366
O2    O     O_R   0.545150 0.977900 0.661890 -0.579402
O3    O     O_R   0.512700 0.160150 0.379180 -0.581027
O4    O     O_R   0.487300 0.839850 0.620820 -0.580602
O5    O     O_R   0.287930 0.931000 0.479440 -0.597276
O6    O     O_R   0.712070 0.069000 0.520560 -0.592886
O7    O     O_R   0.345780 0.069050 0.520520 -0.544274
O8    O     O_R   0.654220 0.930950 0.479480 -0.547144
C47   C     C_1   0.597669 0.722218 0.568261 0.383712
N3    N     N_1   0.683034 0.724910 0.634442 -0.289390
C48   C     C_1   0.409127 0.282211 0.426060 0.337879
N4    N     N_1   0.326142 0.281638 0.357819 -0.287949
C49   C     C_1   0.225336 0.873302 0.315825 0.273797
N5    N     N_1   0.162816 0.939626 0.270567 -0.342546
C50   C     C_1   0.767891 0.122289 0.689610 0.283976
N6    N     N_1   0.824896 0.053041 0.737896 -0.333286
O9    O     O_3   0.843395 0.853317 0.444656 -0.563262
C51   C     C_3   0.918465 0.787411 0.442961 -0.331253
H17   H     H_    0.960924 0.737049 0.521465 0.159889
H18   H     H_    0.997147 0.829034 0.398164 0.182901
H19   H     H_    0.853056 0.738939 0.405895 0.178009
O10   O     O_3   0.156895 0.148736 0.553497 -0.565683
C52   C     C_3   0.084595 0.198127 0.580874 -0.332379
H20   H     H_    0.047415 0.145937 0.651522 0.182077
H21   H     H_    0.002349 0.231688 0.518290 0.169418
H22   H     H_    0.150924 0.260851 0.596929 0.178636
O11   O     O_3   0.143632 0.363318 0.871479 -0.585170
C53   C     C_3   0.168384 0.395090 0.772994 -0.325392
H23   H     H_    0.269935 0.385510 0.774449 0.174103
H24   H     H_    0.149419 0.474742 0.725444 0.178578
H25   H     H_    0.099383 0.347499 0.736213 0.175293
O12   O     O_3   0.581732 0.659287 0.179589 -0.582844
C54   C     C_3   0.674843 0.602658 0.260762 -0.296872
H26   H     H_    0.741670 0.575183 0.234733 0.165869
H27   H     H_    0.624943 0.538762 0.319266 0.176872
H28   H     H_    0.736939 0.652422 0.297601 0.182713
C55   C     C_1   0.411839 0.662560 0.750741 0.268289
N7    N     N_1   0.377779 0.626509 0.692072 -0.324083
C56   C     C_1   0.613313 0.325788 0.225537 0.235249
N8    N     N_1   0.715598 0.349816 0.266040 -0.313780

loop_
_geom_bond_atom_site_label_1
_geom_bond_atom_site_label_2
_ccdc_geom_bond_type
C25   C31   A    
C38   C40   S    
C34   H8    S    
O11   C53   S    
C34   C37   S    
C51   H19   S    
Cu2   O3    S    
C50   N6    T    
C48   N4    T    
C3    C56   S    
C26   C32   A    
C30   H6    S    
C33   C39   S    
C4    C42   A    
C34   C40   S    
C20   N2    A    
C28   C29   A    
C19   C21   A    
C51   H18   S    
C2    O2    A    
C15   C25   A    
C4    C55   S    
C42   C46   A    
C19   C48   S    
C33   C35   S    
O9    C51   S    
C18   C49   S    
C35   H1    S    
C7    C43   A    
Cu2   N1    S    
C52   H21   S    
C9    C10   A    
Cu1   N2    S    
C17   C50   S    
C43   H11   S    
C21   C27   A    
C22   C28   A    
C27   C30   A    
C23   O7    A    
Cu1   O1    S    
C44   C46   A    
C14   O12   S    
C16   C26   A    
C45   H10   S    
C44   H12   S    
C31   H15   S    
C51   H17   S    
C32   H16   S    
C4    C6    A    
C5    C7    A    
C6    C8    A    
C53   H25   S    
C3    C5    A    
C1    O3    A    
C20   C47   S    
C13   O11   S    
C8    C44   A    
C47   N3    T    
Cu1   O4    S    
C5    C9    A    
C23   O5    A    
C12   H14   S    
Cu1   Cu2   S    
C24   C37   S    
C33   H7    S    
C16   C18   A    
Cu2   O2    S    
C52   H22   S    
C53   H24   S    
C43   C45   A    
Cu1   O5    S    
C1    C41   S    
C54   H27   S    
C12   C14   A    
C15   H3    S    
C46   H9    S    
Cu2   O6    S    
C55   N7    T    
C36   H2    S    
C24   O6    A    
C15   C17   A    
C21   C25   A    
C3    C41   A    
C8    C14   A    
C35   C37   S    
Cu2   O7    S    
C36   C39   S    
C16   H4    S    
Cu1   O8    S    
C20   C22   A    
C11   H13   S    
C6    C10   A    
C18   N2    A    
C23   C38   S    
C56   N8    T    
C17   N1    A    
C33   C38   S    
C54   H26   S    
C40   O10   S    
C36   C38   S    
C35   C40   S    
C39   O9    S    
C37   C39   S    
C30   C32   A    
C11   C13   A    
C24   O8    A    
C29   H5    S    
C2    C42   S    
C1    O1    A    
C19   N1    A    
C34   C36   S    
C53   H23   S    
C9    C12   A    
C10   C11   A    
C49   N5    T    
C7    C13   A    
C54   H28   S    
O10   C52   S    
C29   C31   A    
O12   C54   S    
C22   C26   A    
C27   C28   A    
C41   C45   A    
C52   H20   S    
C2    O4    A    
