data_mof_unit_64190.cif
_audit_creation_date              2012-12-10T19:01:14-0500
_audit_creation_method            fapswitch 2.2
_symmetry_space_group_name_H-M    P1
_symmetry_Int_Tables_number       1
_space_group_crystal_system       triclinic
_cell_length_a                    15.863824
_cell_length_b                    14.259661
_cell_length_c                    13.38129
_cell_angle_alpha                 89.999413
_cell_angle_beta                  90.012528
_cell_angle_gamma                 89.999711
_cell_volume                      3027.01836905

loop_
_atom_site_label
_atom_site_type_symbol
_atom_type_description
_atom_site_fract_x
_atom_site_fract_y
_atom_site_fract_z
_atom_type_partial_charge
C1    C     C_R   0.500000 0.326569 0.500000 0.915420
C2    C     C_1   0.500002 0.499966 0.950478 -0.039145
C3    C     C_R   0.336025 0.499861 0.499985 0.931117
C4    C     C_R   0.663975 0.499864 0.500013 0.927641
C5    C     C_R   0.500000 0.673452 0.499999 0.943727
C6    C     C_3   0.049813 0.455033 0.598483 -0.109397
C7    C     C_3   0.048339 0.440412 0.410033 -0.096384
C8    C     C_3   0.951347 0.445178 0.592757 -0.090037
C9    C     C_3   0.950280 0.450968 0.403786 -0.102818
C10   C     C_1   0.752081 0.500637 0.500064 -0.172455
C11   C     C_1   0.247918 0.500604 0.499911 -0.176759
C12   C     C_1   0.499999 0.141352 0.500000 0.000976
C13   C     C_3   0.082299 0.501593 0.499257 -0.181343
C14   C     C_3   0.917710 0.501633 0.500432 -0.170311
C15   C     C_3   0.951201 0.604646 0.503972 1.012260
C16   C     C_3   0.048347 0.604496 0.490557 0.999363
C17   C     C_1   0.826745 0.501277 0.500213 0.178220
C18   C     C_1   0.173254 0.501229 0.499657 0.133722
C19   C     C_1   0.500000 0.225918 0.500001 -0.219829
C20   C     C_3   0.122570 0.379554 0.260796 -0.782171
C21   C     C_3   0.104771 0.451026 0.772538 -0.736815
C22   C     C_3   0.891031 0.442621 0.232472 -0.713287
C23   C     C_1   0.499999 0.042292 0.499999 0.023462
C24   C     C_3   0.870594 0.393904 0.742539 -0.764118
C25   C     C_1   0.499999 0.957731 0.499998 0.029755
C26   C     C_1   0.499999 0.858671 0.499998 0.019873
C27   C     C_1   0.499999 0.774104 0.499998 -0.193733
C28   C     C_1   0.500001 0.499971 0.169448 0.085283
C29   C     C_1   0.500001 0.499971 0.830552 0.086513
C30   C     C_1   0.500002 0.499966 0.049522 -0.038854
F1    F     F_    0.085687 0.662142 0.561349 -0.618400
F2    F     F_    0.068628 0.642342 0.398296 -0.652414
F3    F     F_    0.930193 0.646122 0.594248 -0.647575
F4    F     F_    0.913797 0.658585 0.429888 -0.614473
H1    H     H_    0.938348 0.369717 0.576527 0.153212
H2    H     H_    0.136055 0.497287 0.828029 0.245600
H3    H     H_    0.150226 0.395405 0.750779 0.237851
H4    H     H_    0.048627 0.418951 0.807926 0.240732
H5    H     H_    0.957386 0.556844 0.291255 0.321567
H6    H     H_    0.865879 0.488466 0.172394 0.241418
H7    H     H_    0.839061 0.396682 0.258915 0.230363
H8    H     H_    0.942633 0.399090 0.201252 0.245750
H9    H     H_    0.922874 0.529163 0.724172 0.292935
H10   H     H_    0.837382 0.422708 0.808819 0.242719
H11   H     H_    0.920503 0.344867 0.767938 0.236056
H12   H     H_    0.923082 0.378721 0.403702 0.154738
H13   H     H_    0.824064 0.355136 0.696247 0.242593
H14   H     H_    0.076191 0.382474 0.600912 0.161904
H15   H     H_    0.061132 0.365778 0.430379 0.156271
H16   H     H_    0.128262 0.517499 0.310099 0.297617
H17   H     H_    0.141142 0.401029 0.184148 0.247316
H18   H     H_    0.074039 0.323674 0.254862 0.245906
H19   H     H_    0.178848 0.351631 0.300274 0.237492
H20   H     H_    0.053350 0.569612 0.702529 0.303952
N1    N     N_1   0.500000 0.499980 0.261870 -0.061480
N2    N     N_1   0.500000 0.499980 0.738130 -0.061095
N3    N     N_2   0.089477 0.459761 0.314185 -0.251934
N4    N     N_2   0.080327 0.505814 0.686266 -0.239844
N5    N     N_2   0.922117 0.499942 0.313720 -0.222155
N6    N     N_2   0.907057 0.469665 0.685048 -0.244307
O1    O     O_R   0.500000 0.373720 0.576470 -0.599704
O2    O     O_R   0.500000 0.373720 0.423530 -0.599811
O3    O     O_R   0.377150 0.500010 0.576490 -0.601558
O4    O     O_R   0.377150 0.500010 0.423510 -0.609074
O5    O     O_R   0.622850 0.500010 0.576490 -0.603249
O6    O     O_R   0.622850 0.500010 0.423510 -0.604185
O7    O     O_R   0.500000 0.626290 0.576440 -0.592468
O8    O     O_R   0.500000 0.626290 0.423560 -0.592405
Zn1   Zn    Zn3+2 0.500000 0.500010 0.602090 0.991715
Zn2   Zn    Zn3+2 0.500000 0.500010 0.397910 0.988549

loop_
_geom_bond_atom_site_label_1
_geom_bond_atom_site_label_2
_ccdc_geom_bond_type
C6    C8    S    
C9    C14   S    
C11   C18   T    
C29   N2    T    
O4    Zn2   S    
C16   F2    S    
C6    N4    S    
C15   F4    S    
C12   C23   S    
C2    C30   T    
C24   N6    S    
C22   H6    S    
C1    O2    A    
C28   C30   S    
C20   N3    S    
H5    N5    S    
C9    H12   S    
C20   H18   S    
C21   H2    S    
C22   H8    S    
C3    O4    A    
C8    N6    S    
C16   F1    S    
C4    O6    A    
C24   H13   S    
C14   C17   S    
O2    Zn2   S    
C26   C27   T    
O6    Zn2   S    
C6    H14   S    
C13   C18   S    
C2    C29   S    
O5    Zn1   S    
C24   H11   S    
H9    N6    S    
C12   C19   T    
C28   N1    T    
C7    N3    S    
C20   H17   S    
C3    O3    A    
C5    O8    A    
C4    O5    A    
C24   H10   S    
C1    C19   S    
N1    Zn2   S    
C3    C11   S    
C21   H4    S    
C10   C17   T    
C4    C10   S    
C15   C16   S    
C22   H7    S    
C7    C13   S    
C23   C25   T    
C21   H3    S    
C7    H15   S    
O8    Zn2   S    
N2    Zn1   S    
H20   N4    S    
C13   C16   S    
O1    Zn1   S    
C22   N5    S    
C7    C9    S    
C14   C15   S    
C8    C14   S    
C9    N5    S    
C25   C26   S    
C5    C27   S    
H16   N3    S    
C15   F3    S    
C5    O7    A    
C21   N4    S    
O3    Zn1   S    
O7    Zn1   S    
C20   H19   S    
C6    C13   S    
C8    H1    S    
C1    O1    A    
