data_mof_unit_49981.cif
_audit_creation_date              2012-12-10T17:12:01-0500
_audit_creation_method            fapswitch 2.2
_symmetry_space_group_name_H-M    P1
_symmetry_Int_Tables_number       1
_space_group_crystal_system       triclinic
_cell_length_a                    11.652982
_cell_length_b                    13.004205
_cell_length_c                    15.868903
_cell_angle_alpha                 92.232885
_cell_angle_beta                  73.597371
_cell_angle_gamma                 99.883037
_cell_volume                      2272.51925378

loop_
_atom_site_label
_atom_site_type_symbol
_atom_type_description
_atom_site_fract_x
_atom_site_fract_y
_atom_site_fract_z
_atom_type_partial_charge
C1    C     C_R   0.520817 0.700881 0.501284 0.809455
C2    C     C_R   0.479184 0.299118 0.498716 0.803057
C3    C     C_R   0.359520 0.526705 0.088338 -0.221331
C4    C     C_R   0.648983 0.531689 0.911098 -0.219956
C5    C     C_R   0.276549 0.525227 0.040330 -0.219009
C6    C     C_R   0.732408 0.535503 0.958956 -0.220067
C7    C     C_R   0.467200 0.185702 0.497917 -0.051029
C8    C     C_R   0.532800 0.814293 0.502083 -0.051259
C9    C     C_R   0.651655 0.984748 0.509224 -0.214649
C10   C     C_R   0.348344 0.015245 0.490779 -0.214386
C11   C     C_R   0.640872 0.876653 0.508644 -0.191871
C12   C     C_R   0.359127 0.123340 0.491359 -0.194264
C13   C     C_R   0.435414 0.860741 0.496208 -0.264999
C14   C     C_R   0.564586 0.139253 0.503792 -0.267065
C15   C     C_R   0.445510 0.968758 0.496728 0.175085
C16   C     C_R   0.554489 0.031235 0.503274 0.175138
C17   C     C_R   0.939417 0.595773 0.582599 -0.346765
C18   C     C_R   0.060543 0.404177 0.417469 -0.346910
C19   C     C_R   0.821181 0.586688 0.574541 0.084629
C20   C     C_R   0.178805 0.413308 0.425473 0.083456
C21   C     C_R   0.860139 0.458589 0.464356 0.039580
C22   C     C_R   0.139828 0.541335 0.535727 0.037225
C23   C     C_R   0.426221 0.496298 0.668508 0.821792
C24   C     C_R   0.573968 0.504826 0.331427 0.815608
C25   C     C_R   0.980000 0.465194 0.470027 0.068547
C26   C     C_R   0.019971 0.534760 0.530042 0.066583
C27   C     C_R   0.381939 0.500093 0.765396 -0.056876
C28   C     C_R   0.619673 0.511016 0.234388 -0.073070
C29   C     C_R   0.226619 0.513893 0.902366 -0.251191
C30   C     C_R   0.779855 0.528910 0.096765 -0.235892
C31   C     C_R   0.260325 0.506291 0.810729 0.158281
C32   C     C_R   0.744231 0.520608 0.188637 0.167271
C33   C     C_R   0.466770 0.501648 0.813103 -0.310051
C34   C     C_R   0.534414 0.509340 0.186952 -0.302234
C35   C     C_R   0.435722 0.514305 0.904658 0.088392
C36   C     C_R   0.569167 0.520694 0.095097 0.088129
C37   C     C_R   0.312751 0.517730 0.949253 0.140850
C38   C     C_R   0.693950 0.528474 0.050197 0.135845
C39   C     C_R   0.523021 0.521888 0.953076 0.076479
C40   C     C_R   0.483245 0.522347 0.046612 0.075272
Cu1   Cu    Cu3+1 0.386820 0.492450 0.493500 0.946828
Cu2   Cu    Cu3+1 0.613180 0.507550 0.506500 0.945024
H1    H     H_    0.182832 0.529252 0.075026 0.136523
H2    H     H_    0.828026 0.543125 0.924003 0.136575
H3    H     H_    0.240500 0.365979 0.384876 0.123415
H4    H     H_    0.759482 0.634020 0.615133 0.123372
H5    H     H_    0.967491 0.650007 0.629416 0.135664
H6    H     H_    0.032443 0.349917 0.370680 0.135427
H7    H     H_    0.440152 0.496713 0.223356 0.162956
H8    H     H_    0.556959 0.490811 0.777176 0.164676
H9    H     H_    0.132725 0.517570 0.936855 0.126726
H10   H     H_    0.875165 0.535019 0.061340 0.121887
H11   H     H_    0.323773 0.534620 0.158225 0.144515
H12   H     H_    0.687193 0.539890 0.841021 0.140551
H13   H     H_    0.648384 0.186911 0.508814 0.152383
H14   H     H_    0.351617 0.813083 0.491184 0.152681
H15   H     H_    0.282955 0.157969 0.486688 0.157549
H16   H     H_    0.717043 0.842024 0.513316 0.158158
H17   H     H_    0.735661 0.031845 0.514299 0.135636
H18   H     H_    0.264337 0.968147 0.485705 0.135933
H19   H     H_    0.171887 0.594424 0.581611 0.126977
H20   H     H_    0.828029 0.405375 0.418583 0.112510
N1    N     N_R   0.216750 0.481110 0.483710 -0.179369
N2    N     N_R   0.783250 0.518890 0.516290 -0.177339
O1    O     O_R   0.419950 0.645670 0.495380 -0.590831
O2    O     O_R   0.580050 0.354330 0.504620 -0.592560
O3    O     O_R   0.611110 0.658410 0.506370 -0.589497
O4    O     O_R   0.388890 0.341590 0.493630 -0.591753
O5    O     O_R   0.350820 0.490050 0.621260 -0.545380
O6    O     O_R   0.649180 0.509950 0.378740 -0.553285
O7    O     O_R   0.541970 0.502800 0.632250 -0.600753
O8    O     O_R   0.458030 0.497200 0.367750 -0.597607
N3    N     N_3   0.834005 0.520396 0.234814 -0.564794
H21   H     H_    0.828317 0.443359 0.254277 0.205402
H22   H     H_    0.921346 0.542550 0.192852 0.203807
N4    N     N_3   0.170706 0.505170 0.764594 -0.579096
H23   H     H_    0.133818 0.573745 0.779402 0.203155
H24   H     H_    0.101169 0.442162 0.788283 0.216135

loop_
_geom_bond_atom_site_label_1
_geom_bond_atom_site_label_2
_ccdc_geom_bond_type
C8    C13   A    
C5    C37   A    
C1    C8    S    
N3    H21   S    
C23   O5    A    
C10   H18   S    
C2    C7    S    
C19   H4    S    
C24   O6    A    
C27   C33   A    
C17   C26   A    
C35   C37   A    
C9    C16   A    
N4    H24   S    
C2    O4    A    
C10   C15   A    
C15   C16   A    
Cu2   O6    S    
C30   C38   A    
Cu1   Cu2   S    
C21   N2    A    
C30   H10   S    
C33   C35   A    
C22   N1    A    
C7    C14   A    
C1    O1    A    
C6    C38   A    
C23   C27   S    
C11   H16   S    
C24   C28   S    
C34   C36   A    
C20   H3    S    
C13   H14   S    
C14   H13   S    
C5    H1    S    
C28   C34   A    
C6    H2    S    
N3    H22   S    
C18   C25   A    
Cu1   O4    S    
C7    C12   A    
C27   C31   A    
C23   O7    A    
C36   C40   A    
N4    H23   S    
C4    C6    A    
C39   C40   A    
Cu1   O1    S    
C3    C5    A    
C25   C26   A    
C9    H17   S    
C35   C39   A    
C4    C39   A    
C28   C32   A    
C19   N2    A    
C9    C11   A    
C21   H20   S    
C10   C12   A    
Cu1   O8    S    
C12   H15   S    
C3    C40   A    
C13   C15   A    
Cu2   O3    S    
C14   C16   A    
Cu1   N1    S    
Cu2   N2    S    
C32   N3    S    
C24   O8    A    
Cu1   O5    S    
C29   H9    S    
C21   C25   A    
C34   H7    S    
C4    H12   S    
C17   H5    S    
C2    O2    A    
C18   H6    S    
C1    O3    A    
C20   N1    A    
C36   C38   A    
C33   H8    S    
C29   C31   A    
C22   H19   S    
C30   C32   A    
C3    H11   S    
C31   N4    S    
C8    C11   A    
Cu2   O7    S    
C17   C19   A    
C18   C20   A    
C22   C26   A    
C29   C37   A    
Cu2   O2    S    
