data_mof_unit_33307.cif
_audit_creation_date              2012-12-10T19:43:23-0500
_audit_creation_method            fapswitch 2.2
_symmetry_space_group_name_H-M    P1
_symmetry_Int_Tables_number       1
_space_group_crystal_system       triclinic
_cell_length_a                    10.883725
_cell_length_b                    10.851215
_cell_length_c                    9.589546
_cell_angle_alpha                 90.63706
_cell_angle_beta                  91.681485
_cell_angle_gamma                 92.093159
_cell_volume                      1131.21383609

loop_
_atom_site_label
_atom_site_type_symbol
_atom_type_description
_atom_site_fract_x
_atom_site_fract_y
_atom_site_fract_z
_atom_type_partial_charge
C1    C     C_R   0.506146 0.262328 0.500194 0.815879
C2    C     C_R   0.171385 0.689072 0.989551 -0.075755
C3    C     C_R   0.930927 0.545118 0.389107 -0.242030
C4    C     C_R   0.871665 0.497336 0.505237 -0.084099
C5    C     C_R   0.942187 0.449563 0.616927 -0.011956
C6    C     C_R   0.069344 0.452282 0.609510 -0.214243
C7    C     C_R   0.128466 0.500312 0.493605 -0.088236
C8    C     C_R   0.057994 0.545902 0.380508 0.001718
C9    C     C_R   0.879421 0.467620 0.861121 -0.162334
C10   C     C_R   0.851958 0.416103 0.989690 -0.131708
C11   C     C_R   0.840581 0.288483 0.002749 -0.229924
C12   C     C_R   0.262426 0.501644 0.497624 0.785862
C13   C     C_R   0.856114 0.212109 0.886959 -0.152380
C14   C     C_R   0.879198 0.262323 0.755840 0.413821
C15   C     C_R   0.890625 0.392464 0.742611 0.017935
C16   C     C_R   0.581904 0.119660 0.750045 -0.148956
C17   C     C_R   0.575720 0.062797 0.878866 -0.293072
C18   C     C_R   0.515174 0.947820 0.889532 0.454553
C19   C     C_R   0.471015 0.886859 0.768574 -0.146409
C20   C     C_R   0.488903 0.938166 0.635138 -0.025534
C21   C     C_R   0.527388 0.063078 0.628595 0.098283
C22   C     C_R   0.506848 0.127295 0.502367 -0.178342
C23   C     C_R   0.486541 0.736724 0.501480 0.780229
C24   C     C_R   0.463549 0.062587 0.382634 -0.221779
C25   C     C_R   0.442256 0.935860 0.384658 0.387458
C26   C     C_R   0.467173 0.870758 0.508251 -0.217886
C27   C     C_R   0.660937 0.666309 0.150452 -0.105757
C28   C     C_R   0.740526 0.745854 0.081316 -0.212168
C29   C     C_R   0.740000 0.745611 0.937715 -0.200703
C30   C     C_R   0.660688 0.664959 0.862445 -0.135035
C31   C     C_R   0.578265 0.582015 0.928495 0.221768
C32   C     C_R   0.578246 0.582297 0.078100 0.246871
C33   C     C_R   0.428143 0.419587 0.070509 -0.056658
C34   C     C_R   0.737600 0.497379 0.502179 0.778771
C35   C     C_R   0.428167 0.419629 0.922566 -0.073915
C36   C     C_R   0.143279 0.769657 0.097702 -0.086063
C37   C     C_R   0.111298 0.723137 0.227746 -0.213960
C38   C     C_R   0.109625 0.595606 0.251078 0.127892
C39   C     C_R   0.135997 0.515085 0.141318 -0.103477
C40   C     C_R   0.166605 0.561930 0.011073 -0.142291
Cu1   Cu    Cu3+1 0.499990 0.499990 0.640660 0.925398
Cu2   Cu    Cu3+1 0.500010 0.500010 0.359340 0.944643
H1    H     H_    0.195166 0.724965 0.888594 0.126212
H2    H     H_    0.848970 0.112992 0.898714 0.155649
H3    H     H_    0.441028 0.111053 0.287542 0.175788
H4    H     H_    0.630750 0.207633 0.747610 0.190608
H5    H     H_    0.614702 0.110141 0.970746 0.137835
H6    H     H_    0.418867 0.801489 0.782168 0.178105
H7    H     H_    0.368749 0.354067 0.122970 0.131190
H8    H     H_    0.145147 0.868101 0.080462 0.150080
H9    H     H_    0.670118 0.674254 0.260504 0.192101
H10   H     H_    0.803101 0.808213 0.139937 0.144979
H11   H     H_    0.802245 0.807615 0.883897 0.150927
H12   H     H_    0.368725 0.354116 0.864530 0.141128
H13   H     H_    0.086468 0.786220 0.309701 0.135303
H14   H     H_    0.129460 0.416202 0.155560 0.121263
H15   H     H_    0.184769 0.499527 0.926175 0.128859
H16   H     H_    0.877929 0.582803 0.303349 0.147937
H17   H     H_    0.122578 0.414071 0.694999 0.153525
H18   H     H_    0.896802 0.566135 0.854605 0.153404
N1    N     N_R   0.501190 0.501210 0.147910 -0.199412
N2    N     N_R   0.501230 0.501290 0.852040 -0.206740
O1    O     O_R   0.499990 0.319640 0.618810 -0.588014
O2    O     O_R   0.500000 0.319660 0.381240 -0.585984
O3    O     O_R   0.319640 0.500000 0.618780 -0.590897
O4    O     O_R   0.319650 0.500020 0.381210 -0.575610
O5    O     O_R   0.500000 0.680340 0.618760 -0.611990
O6    O     O_R   0.500010 0.680360 0.381190 -0.574213
O7    O     O_R   0.680350 0.499980 0.618790 -0.597248
O8    O     O_R   0.680360 0.500000 0.381220 -0.610124
H19   H     H_    0.821288 0.248587 0.103075 0.152708
O9    O     O_3   0.892259 0.181298 0.645617 -0.753660
H20   H     H_    0.895592 0.227548 0.557387 0.320692
O10   O     O_3   0.500688 0.891146 0.015842 -0.685436
H21   H     H_    0.546100 0.941527 0.088766 0.344964
O11   O     O_3   0.389296 0.880354 0.266754 -0.698554
H22   H     H_    0.342526 0.805336 0.294810 0.343703
H23   H     H_    0.669912 0.670012 0.752913 0.201159
H24   H     H_    0.843094 0.475054 0.080125 0.153349

loop_
_geom_bond_atom_site_label_1
_geom_bond_atom_site_label_2
_ccdc_geom_bond_type
C16   C21   A    
C11   C13   A    
Cu1   Cu2   S    
C19   C20   A    
C7    C8    A    
Cu1   O5    S    
C37   C38   A    
C20   C26   A    
C24   H3    S    
C36   C37   A    
C32   N1    A    
C5    C6    A    
C11   H19   S    
C33   H7    S    
Cu2   O8    S    
C18   C19   A    
C23   C26   S    
C23   O5    A    
C31   C32   A    
C16   C17   A    
C9    C10   A    
C34   O8    A    
C1    C22   S    
C18   O10   S    
C21   C22   A    
C35   H12   S    
Cu2   O6    S    
C31   N2    A    
C8    C38   S    
Cu1   N2    S    
C1    O1    A    
C27   H9    S    
C7    C12   S    
C4    C34   S    
O10   H21   S    
C38   C39   A    
O11   H22   S    
C3    C8    A    
C16   H4    S    
C39   C40   A    
C19   H6    S    
C4    C5    A    
Cu1   O3    S    
C25   C26   A    
C12   O4    A    
C30   H23   S    
C23   O6    A    
C29   C30   A    
C39   H14   S    
Cu2   N1    S    
C2    H1    S    
C17   C18   A    
C24   C25   A    
C34   O7    A    
C22   C24   A    
Cu1   O1    S    
C3    C4    A    
C1    O2    A    
Cu2   O2    S    
C36   H8    S    
Cu1   O7    S    
C2    C36   A    
C28   C29   A    
C40   H15   S    
C27   C32   A    
C14   O9    S    
C6    H17   S    
C17   H5    S    
O9    H20   S    
C10   H24   S    
C6    C7    A    
C12   O3    A    
C25   O11   S    
C9    H18   S    
C9    C15   A    
C28   H10   S    
C30   C31   A    
C29   H11   S    
C33   C35   A    
C35   N2    A    
C5    C15   S    
C10   C11   A    
C37   H13   S    
C3    H16   S    
C2    C40   A    
C20   C21   A    
C33   N1    A    
C27   C28   A    
Cu2   O4    S    
C14   C15   A    
C13   C14   A    
C13   H2    S    
