data_mof_unit_36787.cif
_audit_creation_date              2012-12-11T16:09:23-0500
_audit_creation_method            fapswitch 2.2
_symmetry_space_group_name_H-M    P1
_symmetry_Int_Tables_number       1
_space_group_crystal_system       triclinic
_cell_length_a                    7.007787
_cell_length_b                    21.320101
_cell_length_c                    23.657969
_cell_angle_alpha                 90.076991
_cell_angle_beta                  90.033901
_cell_angle_gamma                 90.445625
_cell_volume                      3534.54896727

loop_
_atom_site_label
_atom_site_type_symbol
_atom_type_description
_atom_site_fract_x
_atom_site_fract_y
_atom_site_fract_z
_atom_type_partial_charge
O1    O     O_R   0.494270 0.443530 0.442350 -0.538741
O2    O     O_R   0.824060 0.436290 0.557250 -0.529182
O3    O     O_R   0.994370 0.556470 0.557650 -0.529126
C1    C     C_R   0.654780 0.421236 0.576485 0.727405
O4    O     O_R   0.823990 0.436120 0.442760 -0.537634
O5    O     O_R   0.994300 0.556300 0.442340 -0.542135
C2    C     C_R   0.654879 0.421071 0.423463 0.719183
O6    O     O_R   0.494350 0.443700 0.557660 -0.535891
O7    O     O_3   0.660800 0.539430 0.500000 -0.367593
V1    V     V_3+5 0.935650 0.492690 0.500000 1.498373
O8    O     O_R   0.324020 0.563710 0.442750 -0.535300
C3    C     C_R   0.155744 0.578711 0.423469 0.719994
O9    O     O_R   0.324090 0.563880 0.557240 -0.530618
C4    C     C_R   0.156177 0.578927 0.576524 0.722487
V2    V     V_3+5 0.435660 0.507310 0.500000 1.503101
O10   O     O_3   0.160640 0.460570 0.500000 -0.370782
C5    C     C_3   0.015480 0.721382 0.793352 -0.103451
C6    C     C_3   0.207424 0.700676 0.767886 -0.030524
C7    C     C_1   0.149564 0.624522 0.622012 -0.105480
C8    C     C_1   0.069331 0.874575 0.877300 -0.128270
C9    C     C_3   0.933737 0.728410 0.732981 -0.122379
C10   C     C_3   0.125890 0.707813 0.707641 0.127818
C11   C     C_3   0.001419 0.797496 0.732004 -0.029450
C12   C     C_3   0.083543 0.790403 0.792174 0.139823
C13   C     C_3   0.194242 0.777136 0.706047 -0.202108
C14   C     C_3   0.276919 0.769940 0.766949 -0.219875
C15   C     C_1   0.142259 0.662253 0.660441 0.115684
C16   C     C_1   0.073727 0.836573 0.839042 0.101223
C17   C     C_3   0.298454 0.785513 0.226278 -0.421940
C18   C     C_3   0.967333 0.808249 0.257704 -0.107332
C19   C     C_3   0.967167 0.754395 0.302446 -0.430942
H1    H     H_    0.352153 0.834042 0.233820 0.157836
H2    H     H_    0.037508 0.849959 0.277331 0.099732
H3    H     H_    0.986504 0.775216 0.345238 0.174984
H4    H     H_    0.827978 0.730406 0.304487 0.162099
C20   C     C_1   0.147438 0.623718 0.377632 -0.119897
C21   C     C_3   0.089722 0.788649 0.205274 0.086478
C22   C     C_3   0.318285 0.744082 0.281547 0.026846
C23   C     C_3   0.126450 0.705263 0.289703 0.071563
C24   C     C_3   0.072588 0.669393 0.232167 -0.184126
C25   C     C_3   0.025266 0.721212 0.185387 -0.216504
C26   C     C_1   0.139069 0.660623 0.338619 -0.000465
C27   C     C_1   0.079057 0.836223 0.158715 0.043863
C28   C     C_1   0.071759 0.874611 0.120848 -0.114447
H5    H     H_    0.384896 0.767932 0.190484 0.225977
C29   C     C_3   0.417668 0.269419 0.716947 -0.345953
C30   C     C_3   0.744708 0.230406 0.693679 -0.098893
C31   C     C_3   0.747013 0.185774 0.746084 -0.336799
H6    H     H_    0.710722 0.137195 0.732468 0.188255
C32   C     C_1   0.576787 0.123885 0.877545 -0.170414
C33   C     C_3   0.626720 0.290870 0.707143 0.149302
C34   C     C_3   0.405033 0.218983 0.764790 -0.137489
C35   C     C_3   0.605432 0.208522 0.792334 0.142362
C36   C     C_3   0.678272 0.274008 0.814059 -0.144533
C37   C     C_3   0.700070 0.320771 0.763137 -0.276615
C38   C     C_1   0.589842 0.161913 0.839457 -0.106532
C39   C     C_1   0.634148 0.337439 0.659951 0.023924
C40   C     C_1   0.643441 0.375472 0.621769 -0.117893
H7    H     H_    0.308710 0.237644 0.798050 0.138543
C41   C     C_3   0.407510 0.263132 0.288353 -0.106147
C42   C     C_3   0.678323 0.318669 0.236808 -0.289654
C43   C     C_3   0.661610 0.270371 0.187691 -0.341933
H8    H     H_    0.300347 0.238057 0.203389 0.143299
H9    H     H_    0.590801 0.360523 0.227158 0.216032
C44   C     C_1   0.573961 0.123477 0.121642 -0.159071
C45   C     C_3   0.617071 0.288884 0.294041 0.088717
C46   C     C_3   0.389894 0.216265 0.236799 -0.164581
C47   C     C_3   0.591262 0.205313 0.209491 0.093456
C48   C     C_3   0.739948 0.183382 0.254817 -0.184552
C49   C     C_3   0.754356 0.232348 0.304823 -0.220350
C50   C     C_1   0.581668 0.160594 0.160668 -0.075467
C51   C     C_1   0.633505 0.336482 0.340453 -0.048027
C52   C     C_1   0.644283 0.374984 0.378309 -0.137717
O11   O     O_R   0.724990 0.055630 0.941600 -0.538448
O12   O     O_R   0.395220 0.063160 0.056480 -0.542116
O13   O     O_R   0.225040 0.942970 0.056870 -0.536322
C53   C     C_R   0.564264 0.078244 0.075775 0.722955
O14   O     O_R   0.395270 0.063000 0.941990 -0.540298
O15   O     O_R   0.225080 0.942800 0.941570 -0.536584
C54   C     C_R   0.564599 0.078077 0.922769 0.723456
O16   O     O_R   0.724940 0.055790 0.056910 -0.534535
O17   O     O_3   0.558580 0.959880 0.999250 -0.362029
V3    V     V_3+5 0.283680 0.006590 0.999220 1.453513
O18   O     O_R   0.895380 0.935350 0.941950 -0.530329
C55   C     C_R   0.063283 0.920316 0.922683 0.726189
O19   O     O_R   0.895330 0.935520 0.056440 -0.525694
C56   C     C_R   0.063588 0.920532 0.075735 0.729224
V4    V     V_3+5 0.783690 0.991900 0.999180 1.496824
O20   O     O_3   0.058660 0.038680 0.999200 -0.377396
C57   C     C_2   0.324818 0.647718 0.790087 0.366557
H10   H     H_    0.376006 0.649101 0.833333 0.073056
O21   O     O_2   0.363702 0.603160 0.759931 -0.507791
C58   C     C_2   0.095332 0.705594 0.126344 0.417776
H11   H     H_    0.244686 0.711389 0.115379 0.056862
O22   O     O_2   0.983634 0.687402 0.090125 -0.470849
H12   H     H_    0.867899 0.723747 0.180980 0.249309
C59   C     C_2   0.231083 0.624470 0.214385 0.468109
H13   H     H_    0.321105 0.633739 0.178173 0.104396
O23   O     O_2   0.265016 0.577541 0.242192 -0.515904
C60   C     C_2   0.486934 0.700674 0.277576 0.321895
H14   H     H_    0.526382 0.671872 0.313501 0.092795
O24   O     O_2   0.578097 0.696080 0.234058 -0.555779
C61   C     C_2   0.899837 0.626607 0.239898 0.576851
H15   H     H_    0.837973 0.618902 0.281355 0.026412
O25   O     O_2   0.831452 0.598364 0.199594 -0.475802
C62   C     C_2   0.313327 0.158368 0.744638 0.368559
H16   H     H_    0.212823 0.134043 0.771917 0.050385
O26   O     O_2   0.355335 0.134985 0.699210 -0.525397
C63   C     C_2   0.913665 0.688431 0.840556 0.370062
H17   H     H_    0.873275 0.639501 0.835804 0.078320
O27   O     O_2   0.875385 0.716193 0.884168 -0.505038
H18   H     H_    0.358387 0.251225 0.676484 0.200731
C64   C     C_2   0.945333 0.241889 0.672299 0.327779
H19   H     H_    0.030890 0.202003 0.659904 0.097373
O28   O     O_2   0.012443 0.294623 0.667614 -0.538720
H20   H     H_    0.670379 0.205165 0.658697 0.138524
H21   H     H_    0.892569 0.183359 0.764672 0.130295
H22   H     H_    0.616961 0.363844 0.772480 0.140262
H23   H     H_    0.849662 0.336701 0.757025 0.229518
H24   H     H_    0.567192 0.293315 0.842719 0.113913
H25   H     H_    0.329997 0.310639 0.729030 0.193300
H26   H     H_    0.416450 0.788369 0.782073 0.136890
C65   C     C_2   0.857152 0.268975 0.850111 0.365464
H27   H     H_    0.852664 0.241264 0.888526 0.058467
O29   O     O_2   0.005733 0.295902 0.837789 -0.539043
C66   C     C_2   0.260931 0.314975 0.285119 0.348258
H28   H     H_    0.178969 0.326877 0.322495 0.065390
O30   O     O_2   0.236563 0.344971 0.241810 -0.524801
H29   H     H_    0.828486 0.335710 0.239732 0.179220
H30   H     H_    0.561480 0.288519 0.155154 0.179769
H31   H     H_    0.803024 0.265654 0.166750 0.160522
C67   C     C_2   0.728249 0.203906 0.363122 0.427580
H32   H     H_    0.595497 0.180880 0.374714 0.062623
O31   O     O_2   0.857444 0.206379 0.397723 -0.502549
H33   H     H_    0.902605 0.251595 0.304054 0.163276
C68   C     C_2   0.708287 0.116071 0.273534 0.432396
H34   H     H_    0.585491 0.103129 0.298825 0.076481
O32   O     O_2   0.822466 0.075508 0.260682 -0.510339
H35   H     H_    0.268556 0.800362 0.670225 0.141361
H36   H     H_    0.374659 0.238398 0.328385 0.124768
C69   C     C_2   0.284384 0.155725 0.250731 0.296290
H37   H     H_    0.261125 0.121185 0.217669 0.092641
O33   O     O_2   0.220607 0.145053 0.297805 -0.503520
H38   H     H_    0.881608 0.183964 0.233349 0.161979
C70   C     C_2   0.884170 0.850577 0.710026 0.371585
H39   H     H_    0.835617 0.849914 0.666497 0.061798
O34   O     O_2   0.842367 0.894422 0.740677 -0.519085
C71   C     C_2   0.740605 0.705774 0.714613 0.383093
H40   H     H_    0.616147 0.722097 0.736545 0.049488
O35   O     O_2   0.722490 0.668984 0.675409 -0.511519
C72   C     C_2   0.357741 0.786537 0.332419 0.293338
H41   H     H_    0.348255 0.837149 0.328780 0.071861
O36   O     O_2   0.395312 0.764461 0.378721 -0.531346
C73   C     C_2   0.766719 0.829507 0.245069 0.415058
H42   H     H_    0.678022 0.845343 0.279694 0.036802
O37   O     O_2   0.703471 0.830823 0.197010 -0.531914

loop_
_geom_bond_atom_site_label_1
_geom_bond_atom_site_label_2
_ccdc_geom_bond_type
C36   C65   S    
C58   H11   S    
C36   H24   S    
C43   H30   S    
C20   C26   T    
C6    C14   S    
C1    O6    A    
C59   H13   S    
C57   H10   S    
C65   H27   S    
C2    C52   S    
C37   H23   S    
C35   C36   S    
C48   H38   S    
C11   C70   S    
C66   H28   S    
C13   H35   S    
C12   C14   S    
C17   H1    S    
C29   H18   S    
C63   O27   D    
O5    C3    A    
C18   C19   S    
O14   C54   A    
C65   O29   D    
C25   H12   S    
C62   H16   S    
V2    O10   S    
C29   C34   S    
C70   O34   D    
O8    V2    S    
O14   V3    S    
C25   C58   S    
C41   C46   S    
C45   C51   S    
C47   C48   S    
C10   C13   S    
C17   C22   S    
C4    C7    S    
C11   C12   S    
C29   H25   S    
C33   C39   S    
C3    C20   S    
C28   C56   S    
C7    C15   T    
O7    V1    S    
C73   O37   D    
C42   C43   S    
C42   H29   S    
C11   C13   S    
C41   C45   S    
C58   O22   D    
O11   C54   A    
O9    C4    A    
C30   H20   S    
C69   H37   S    
C42   C45   S    
O13   V3    S    
C49   C67   S    
C59   O23   D    
C70   H39   S    
C23   C26   S    
C9    C11   S    
C31   C35   S    
V3    O20   S    
H8    C46   S    
C5    C12   S    
C44   C53   S    
C46   C47   S    
C6    C57   S    
C9    C71   S    
C12   C16   S    
C71   H40   S    
C22   C60   S    
C23   C24   S    
O4    C2    A    
O19   C56   A    
C68   H34   S    
C30   C33   S    
C8    C16   T    
C33   C37   S    
C13   C14   S    
C44   C50   T    
C29   C33   S    
C32   C38   T    
C18   C21   S    
C17   H5    S    
C21   C27   S    
C42   H9    S    
O2    C1    A    
C27   C28   T    
C34   H7    S    
C57   O21   D    
C30   C31   S    
C53   O16   A    
C72   H41   S    
C8    C55   S    
C60   O24   D    
C5    C6    S    
C19   H3    S    
C61   O25   D    
O18   C55   A    
O12   C53   A    
O13   C56   A    
C73   H42   S    
O3    C4    A    
C41   H36   S    
O1    V2    S    
C68   O32   D    
C31   H6    S    
C48   C68   S    
C10   C15   S    
O9    V2    S    
C49   H33   S    
C19   H4    S    
C1    C40   S    
C46   C69   S    
C22   C72   S    
O15   C55   A    
C32   C54   S    
C34   C35   S    
C64   H19   S    
C35   C38   S    
C30   C64   S    
C36   C37   S    
C24   C25   S    
C66   O30   D    
C18   H2    S    
O1    C2    A    
C43   H31   S    
O18   V4    S    
C71   O35   D    
C51   C52   T    
C5    C63   S    
O5    V1    S    
O8    C3    A    
C31   H21   S    
C6    C10   S    
O6    V2    S    
C45   C49   S    
C43   C47   S    
C69   O33   D    
O7    V2    S    
O4    V1    S    
C24   C59   S    
O3    V1    S    
V1    O10   S    
C63   H17   S    
C24   C61   S    
O15   V3    S    
O12   V3    S    
C39   C40   T    
C22   C23   S    
C62   O26   D    
C47   C50   S    
O17   V4    S    
C41   C66   S    
C60   H14   S    
C19   C23   S    
C67   H32   S    
O19   V4    S    
C72   O36   D    
C21   C25   S    
C48   C49   S    
C5    C9    S    
O16   V4    S    
C34   C62   S    
C18   C73   S    
V4    O20   S    
C67   O31   D    
O17   V3    S    
C17   C21   S    
C61   H15   S    
C14   H26   S    
O11   V4    S    
C9    C10   S    
C64   O28   D    
C37   H22   S    
O2    V1    S    
