data_mof_unit_38387.cif
_audit_creation_date              2012-12-10T16:56:30-0500
_audit_creation_method            fapswitch 2.2
_symmetry_space_group_name_H-M    P1
_symmetry_Int_Tables_number       1
_space_group_crystal_system       triclinic
_cell_length_a                    10.74812
_cell_length_b                    10.918563
_cell_length_c                    9.687128
_cell_angle_alpha                 90.107628
_cell_angle_beta                  90.195455
_cell_angle_gamma                 90.165325
_cell_volume                      1136.81009086

loop_
_atom_site_label
_atom_site_type_symbol
_atom_type_description
_atom_site_fract_x
_atom_site_fract_y
_atom_site_fract_z
_atom_type_partial_charge
C1    C     C_R   0.503024 0.265392 0.500090 0.838508
C2    C     C_3   0.877793 0.502174 0.498768 0.032487
C3    C     C_3   0.930676 0.609266 0.587608 -0.410092
C4    C     C_3   0.930291 0.503176 0.346596 0.332498
C5    C     C_2   0.521499 0.932534 0.388949 -0.164800
C6    C     C_2   0.496138 0.866678 0.502081 -0.327093
C7    C     C_2   0.518155 0.066665 0.387651 -0.178017
C8    C     C_2   0.510962 0.133509 0.503304 -0.342467
C9    C     C_2   0.410519 0.454095 0.922225 -0.209854
C10   C     C_2   0.420781 0.435947 0.077771 0.516928
C11   C     C_R   0.259973 0.500499 0.499638 0.775150
C12   C     C_R   0.499732 0.734654 0.500135 0.835061
C13   C     C_R   0.740049 0.502132 0.499840 0.765536
C14   C     C_3   0.070156 0.379033 0.568247 -0.061144
C15   C     C_3   0.925098 0.382107 0.567095 -0.467088
C16   C     C_3   0.073821 0.611263 0.580101 -0.433876
C17   C     C_3   0.072750 0.509137 0.347569 -0.419890
C18   C     C_3   0.122058 0.498505 0.498315 0.056845
Cu1   Cu    Cu3+1 0.500030 0.500020 0.638630 0.924527
Cu2   Cu    Cu3+1 0.499970 0.499980 0.361370 0.981949
H1    H     H_    0.101612 0.380407 0.678025 0.158974
H2    H     H_    0.105563 0.697499 0.530083 0.158327
H3    H     H_    0.892183 0.699554 0.558867 0.137163
H4    H     H_    0.543792 0.887106 0.292282 0.166214
H5    H     H_    0.470860 0.907810 0.599581 0.146430
H6    H     H_    0.522532 0.111061 0.287616 0.171737
H7    H     H_    0.513684 0.093062 0.605042 0.150955
H8    H     H_    0.325822 0.424623 0.870959 0.166131
H9    H     H_    0.582124 0.517753 0.894431 0.192065
H10   H     H_    0.552883 0.563388 0.105140 0.156677
H11   H     H_    0.885158 0.301943 0.511044 0.151185
H12   H     H_    0.890823 0.375149 0.675155 0.180168
H13   H     H_    0.112357 0.611507 0.686917 0.185200
H14   H     H_    0.902800 0.596200 0.697224 0.193116
H15   H     H_    0.106616 0.595453 0.299878 0.183615
H16   H     H_    0.109997 0.433628 0.282474 0.185076
H17   H     H_    0.907408 0.410844 0.304144 0.107044
N1    N     N_2   0.498630 0.498660 0.846910 -0.297408
N2    N     N_2   0.498590 0.498630 0.153040 -0.303954
O1    O     O_R   0.500020 0.321960 0.617040 -0.579811
O2    O     O_R   0.499980 0.321920 0.382900 -0.544154
O3    O     O_R   0.317710 0.500000 0.617070 -0.592831
O4    O     O_R   0.317670 0.499960 0.382930 -0.536549
O5    O     O_R   0.500020 0.678080 0.617100 -0.572675
O6    O     O_R   0.499980 0.678040 0.382960 -0.581936
O7    O     O_R   0.682330 0.500040 0.617070 -0.588205
O8    O     O_R   0.682290 0.500000 0.382930 -0.552826
O9    O     O_3   0.875568 0.584503 0.248551 -0.567419
C19   C     C_3   0.874698 0.708909 0.288486 0.115082
H18   H     H_    0.963021 0.738528 0.338018 0.131878
H19   H     H_    0.794755 0.726264 0.358051 0.145411
C20   C     C_3   0.855868 0.787512 0.160759 -0.822387
H20   H     H_    0.766780 0.762772 0.109153 0.245448
H21   H     H_    0.852948 0.885727 0.190621 0.196461
H22   H     H_    0.933754 0.773228 0.087448 0.246131
O10   O     O_3   0.335728 0.361039 0.144895 -0.547066
C21   C     C_3   0.332177 0.243776 0.082854 0.053926
H23   H     H_    0.427342 0.204111 0.075205 0.132922
H24   H     H_    0.288900 0.247036 0.978619 0.124773
C22   C     C_3   0.252662 0.158821 0.170268 -0.815559
H25   H     H_    0.155119 0.191967 0.171760 0.231362
H26   H     H_    0.254130 0.064873 0.126224 0.204253
H27   H     H_    0.289028 0.155711 0.277376 0.262478
C23   C     C_3   0.119982 0.259127 0.502381 -0.399301
C24   C     C_3   0.096731 0.146975 0.594497 -0.360150
C25   C     C_3   0.145506 0.030070 0.527202 -0.861495
H28   H     H_    0.098408 0.014012 0.426491 0.253770
H29   H     H_    0.247442 0.036928 0.510642 0.266866
H30   H     H_    0.126752 0.950619 0.595512 0.237044
H31   H     H_    0.144568 0.160018 0.695434 0.211017
H32   H     H_    0.995590 0.135586 0.613981 0.222779
H33   H     H_    0.075207 0.244206 0.400210 0.203361
H34   H     H_    0.221823 0.266492 0.485837 0.203520

loop_
_geom_bond_atom_site_label_1
_geom_bond_atom_site_label_2
_ccdc_geom_bond_type
H9    N1    S    
C2    C4    S    
C23   H34   S    
Cu1   O3    S    
C11   C18   S    
C11   O4    A    
C17   H16   S    
C16   H13   S    
C1    C8    S    
C10   O10   S    
C9    C10   S    
C14   C18   S    
C3    H3    S    
Cu1   Cu2   S    
C3    H14   S    
C20   H22   S    
Cu1   O5    S    
C24   C25   S    
C19   C20   S    
C14   C23   S    
C23   C24   S    
C25   H28   S    
Cu2   N2    S    
Cu1   O7    S    
C7    C8    D    
C12   O5    A    
C16   C18   S    
O10   C21   S    
C15   H11   S    
C2    C15   S    
C7    H6    S    
C21   H23   S    
C5    C6    D    
C5    H4    S    
C22   H25   S    
C22   H27   S    
C4    C17   S    
C14   H1    S    
C1    O2    A    
O9    C19   S    
Cu1   N1    S    
C20   H21   S    
H10   N2    S    
Cu2   O2    S    
C4    H17   S    
C2    C3    S    
C23   H33   S    
C17   C18   S    
C13   O7    A    
C21   H24   S    
C25   H30   S    
Cu1   O1    S    
C3    C16   S    
C24   H31   S    
C6    H5    S    
C6    C12   S    
C15   H12   S    
Cu2   O4    S    
C20   H20   S    
C11   O3    A    
C22   H26   S    
C19   H18   S    
C4    O9    S    
C25   H29   S    
C5    C7    S    
C2    C13   S    
C14   C15   S    
C8    H7    S    
C21   C22   S    
C9    N1    D    
C17   H15   S    
C1    O1    A    
C24   H32   S    
C13   O8    A    
C10   N2    D    
Cu2   O8    S    
Cu2   O6    S    
C9    H8    S    
C16   H2    S    
C12   O6    A    
C19   H19   S    
