data_mof_unit_51658.cif
_audit_creation_date              2012-12-11T15:39:18-0500
_audit_creation_method            fapswitch 2.2
_symmetry_space_group_name_H-M    P1
_symmetry_Int_Tables_number       1
_space_group_crystal_system       triclinic
_cell_length_a                    14.285884
_cell_length_b                    14.80356
_cell_length_c                    33.210366
_cell_angle_alpha                 97.577008
_cell_angle_beta                  90.509275
_cell_angle_gamma                 118.776989
_cell_volume                      6081.05069049

loop_
_atom_site_label
_atom_site_type_symbol
_atom_type_description
_atom_site_fract_x
_atom_site_fract_y
_atom_site_fract_z
_atom_type_partial_charge
C1    C     C_R   0.616968 0.910497 0.437022 0.537955
C2    C     C_R   0.738128 0.421587 0.187337 0.055788
C3    C     C_R   0.722670 0.884434 0.651682 -0.111151
C4    C     C_R   0.647351 0.782355 0.656391 0.036810
C5    C     C_R   0.636536 0.859232 0.584736 0.023489
C6    C     C_R   0.052929 0.781466 0.063514 0.532607
C7    C     C_R   0.744401 0.487115 0.066274 0.541318
C8    C     C_R   0.742352 0.789357 0.066386 0.541503
C9    C     C_R   0.020389 0.731393 0.947069 0.552560
C10   C     C_R   0.711855 0.436861 0.949284 0.538266
C11   C     C_R   0.711438 0.738431 0.949206 0.557670
C12   C     C_R   0.835172 0.465873 0.169276 -0.127589
C13   C     C_R   0.836330 0.480529 0.128726 -0.128037
C14   C     C_R   0.758817 0.340050 0.244422 -0.116355
C15   C     C_R   0.752054 0.327246 0.285240 -0.105171
C16   C     C_R   0.725305 0.389697 0.312864 -0.003566
C17   C     C_R   0.711272 0.468943 0.299866 -0.082626
C18   C     C_R   0.720220 0.483610 0.259132 0.128629
C19   C     C_R   0.739946 0.415964 0.230972 0.045725
C20   C     C_R   0.597472 0.333343 0.365845 -0.119752
C21   C     C_R   0.594943 0.206908 0.456984 0.554553
C22   C     C_R   0.566183 0.288296 0.400979 -0.145960
C23   C     C_R   0.745630 0.313784 0.414848 0.082775
C24   C     C_R   0.775283 0.356884 0.379035 -0.099196
C25   C     C_R   0.700674 0.363674 0.353884 0.002498
C26   C     C_R   0.637874 0.273463 0.424971 0.026926
C27   C     C_R   0.241049 0.877386 0.393909 0.039621
C28   C     C_R   0.249233 0.966015 0.379370 -0.153312
C29   C     C_R   0.225673 0.962740 0.338294 -0.108170
C30   C     C_R   0.192870 0.870868 0.311110 0.018926
C31   C     C_R   0.176102 0.779900 0.325359 -0.100603
C32   C     C_R   0.294389 0.892373 0.434613 0.546677
C33   C     C_R   0.198199 0.781581 0.366828 0.134192
C34   C     C_R   0.212859 0.822987 0.162176 0.186110
C35   C     C_R   0.186336 0.804960 0.119725 0.167813
C36   C     C_R   0.064013 0.874975 0.131752 -0.164790
C37   C     C_R   0.090729 0.893399 0.173418 -0.137185
C38   C     C_R   0.162103 0.864886 0.188858 0.014819
C39   C     C_1   0.174680 0.870572 0.232162 -0.004938
C40   C     C_1   0.182419 0.871448 0.268264 -0.008632
C41   C     C_R   0.108012 0.827461 0.104661 -0.007694
C42   C     C_R   0.636948 0.880574 0.395259 -0.006318
C43   C     C_R   0.614548 0.904553 0.551277 0.545184
C44   C     C_R   0.550351 0.809336 0.367222 -0.133862
C45   C     C_R   0.563410 0.801678 0.325604 -0.132994
C46   C     C_R   0.663068 0.864194 0.311623 0.052242
C47   C     C_R   0.752174 0.929337 0.339507 0.112985
C48   C     C_R   0.738729 0.937308 0.381178 -0.096578
C49   C     C_R   0.749705 0.939190 0.170383 0.145223
C50   C     C_R   0.765741 0.922616 0.128650 0.144821
C51   C     C_R   0.636365 0.738216 0.125665 -0.148378
C52   C     C_R   0.622255 0.755069 0.166571 -0.135597
C53   C     C_R   0.681649 0.853764 0.189338 0.020750
C54   C     C_R   0.591505 0.202177 0.570673 0.559061
C55   C     C_1   0.676226 0.862487 0.232589 0.051276
C56   C     C_1   0.670961 0.864250 0.268703 0.053064
C57   C     C_R   0.711997 0.819592 0.106516 -0.002270
C58   C     C_R   0.629312 0.260424 0.613107 0.006457
C59   C     C_R   0.567931 0.300281 0.634958 0.121937
C60   C     C_R   0.583655 0.324611 0.677878 0.114100
C61   C     C_R   0.660056 0.310257 0.698689 -0.016425
C62   C     C_R   0.729490 0.285139 0.677147 -0.117302
C63   C     C_R   0.717181 0.262999 0.634742 0.071323
C64   C     C_R   0.754603 0.332802 0.844827 -0.088235
C65   C     C_R   0.288938 0.886693 0.548494 0.547224
C66   C     C_R   0.763702 0.353893 0.887888 0.138799
C67   C     C_R   0.597748 0.363165 0.884116 -0.147390
C68   C     C_R   0.589688 0.341008 0.841850 -0.112543
C69   C     C_R   0.670303 0.330416 0.822196 0.002451
C70   C     C_1   0.669058 0.322990 0.778709 0.003712
C71   C     C_1   0.666479 0.318280 0.742277 0.019230
C72   C     C_R   0.687632 0.376649 0.907501 0.015356
C73   C     C_R   0.058239 0.748184 0.906348 0.045367
C74   C     C_R   0.095633 0.846148 0.893225 0.132953
C75   C     C_R   0.103491 0.852081 0.851571 -0.127755
C76   C     C_R   0.740280 0.451865 0.105849 -0.000106
C77   C     C_R   0.077501 0.762818 0.823285 0.011760
C78   C     C_R   0.045847 0.667300 0.836668 -0.102277
C79   C     C_R   0.036926 0.660150 0.877853 -0.155866
C80   C     C_R   0.149970 0.735935 0.757038 0.154341
C81   C     C_R   0.155756 0.743575 0.715560 -0.057612
C82   C     C_R   0.102227 0.787212 0.696767 0.017608
C83   C     C_R   0.041322 0.822776 0.719577 -0.110976
C84   C     C_R   0.032716 0.813350 0.760728 -0.136566
C85   C     C_R   0.086908 0.770414 0.779743 0.048928
C86   C     C_R   0.174933 0.911803 0.648021 -0.129412
C87   C     C_R   0.642530 0.402027 0.123344 -0.097609
C88   C     C_R   0.222364 0.937272 0.611776 -0.126820
C89   C     C_R   0.158267 0.754097 0.587237 -0.086822
C90   C     C_R   0.109649 0.727923 0.623266 0.092918
C91   C     C_R   0.123138 0.807760 0.654835 0.032748
C92   C     C_R   0.219274 0.859048 0.582130 0.003272
C93   C     C_R   0.670775 0.737769 0.907626 0.003809
C94   C     C_R   0.571334 0.657924 0.887368 0.092013
C95   C     C_R   0.552415 0.649769 0.844613 0.122918
C96   C     C_R   0.631841 0.721629 0.822900 0.006791
C97   C     C_R   0.724894 0.804164 0.843771 -0.162275
C98   C     C_R   0.640834 0.385602 0.163819 0.125131
C99   C     C_R   0.743688 0.812742 0.885315 -0.150663
C100  C     C_R   0.553100 0.746189 0.761250 -0.072200
C101  C     C_R   0.559296 0.763980 0.720951 0.087010
C102  C     C_R   0.635019 0.751842 0.697176 0.041639
C103  C     C_R   0.701342 0.717011 0.713716 0.138639
C104  C     C_R   0.694054 0.700161 0.754456 -0.060311
C105  C     C_R   0.621297 0.716059 0.778388 0.009364
C106  C     C_R   0.572607 0.715983 0.623981 -0.084246
C107  C     C_R   0.567074 0.754199 0.588367 -0.108629
C108  C     C_R   0.717800 0.922549 0.615882 -0.108955
Cr1   Cr    Cr6+3 0.424820 0.846020 0.489780 1.039434
Cr2   Cr    Cr6+3 0.657880 0.078580 0.505700 1.105227
Cr3   Cr    Cr6+3 0.417280 0.075360 0.504550 1.009957
Cr4   Cr    Cr6+3 0.903360 0.812540 0.006510 1.023650
Cr5   Cr    Cr6+3 0.914630 0.587050 0.006280 1.018563
Cr6   Cr    Cr6+3 0.673560 0.582680 0.008540 1.053380
H1    H     H_    0.567759 0.378370 0.105945 0.146719
H2    H     H_    0.483658 0.259611 0.407983 0.137182
H3    H     H_    0.910279 0.492577 0.187038 0.117773
H4    H     H_    0.148078 0.708124 0.304094 0.102903
H5    H     H_    0.280674 0.040316 0.399192 0.140987
H6    H     H_    0.051189 0.925049 0.193819 0.153025
H7    H     H_    0.001906 0.890058 0.121021 0.141828
H8    H     H_    0.912984 0.519714 0.116057 0.131855
H9    H     H_    0.237791 0.033233 0.327459 0.141104
H10   H     H_    0.806689 0.992147 0.402313 0.163331
H11   H     H_    0.470884 0.764989 0.377107 0.149587
H12   H     H_    0.568069 0.689428 0.180944 0.151579
H13   H     H_    0.592254 0.658865 0.109789 0.155973
H14   H     H_    0.494560 0.750377 0.304215 0.120479
H15   H     H_    0.856034 0.382779 0.370180 0.131799
H16   H     H_    0.813704 0.320631 0.828449 0.110944
H17   H     H_    0.792715 0.280654 0.693543 0.150337
H18   H     H_    0.523325 0.337743 0.824413 0.168979
H19   H     H_    0.537490 0.378207 0.898156 0.173389
H20   H     H_    0.006711 0.584048 0.887031 0.154348
H21   H     H_    0.762375 0.265229 0.294881 0.151717
H22   H     H_    0.205801 0.719275 0.698209 0.167501
H23   H     H_    0.130841 0.926566 0.841204 0.107890
H24   H     H_    0.001631 0.858794 0.705601 0.131495
H25   H     H_    0.984210 0.840140 0.777889 0.113076
H26   H     H_    0.185975 0.974144 0.671991 0.124345
H27   H     H_    0.268076 0.018512 0.608263 0.124480
H28   H     H_    0.025232 0.597624 0.815069 0.148453
H29   H     H_    0.152199 0.692494 0.563966 0.159952
H30   H     H_    0.775277 0.288634 0.223015 0.159656
H31   H     H_    0.819627 0.876181 0.899447 0.152608
H32   H     H_    0.780598 0.936409 0.676707 0.122183
H33   H     H_    0.499470 0.761811 0.779977 0.134684
H34   H     H_    0.749268 0.680133 0.768258 0.130780
H35   H     H_    0.513961 0.637064 0.627392 0.144570
H36   H     H_    0.504431 0.703120 0.564626 0.132759
H37   H     H_    0.785016 0.861409 0.827503 0.118814
H38   H     H_    0.772794 0.003287 0.613793 0.161167
H39   H     H_    0.691809 0.518107 0.321252 0.137692
H40   H     H_    0.538920 0.338124 0.346564 0.135227
O1    O     O_R   0.318160 0.824460 0.443680 -0.477616
O2    O     O_R   0.645130 0.163230 0.552140 -0.454842
O3    O     O_R   0.498360 0.178430 0.555780 -0.520973
O4    O     O_R   0.328690 0.978040 0.538950 -0.503553
O5    O     O_3   0.499990 0.999990 0.500010 -0.252228
O6    O     O_R   0.828710 0.851830 0.052170 -0.519617
O7    O     O_R   0.005980 0.823990 0.047210 -0.504420
O8    O     O_R   0.031900 0.688850 0.050170 -0.513708
O9    O     O_R   0.830940 0.518420 0.048680 -0.504909
O10   O     O_R   0.668160 0.499860 0.053480 -0.513740
O11   O     O_R   0.689170 0.693840 0.050110 -0.497786
O12   O     O_R   0.525040 0.857250 0.449830 -0.504643
O13   O     O_R   0.803860 0.812940 0.962540 -0.521248
O14   O     O_R   0.982950 0.787950 0.964120 -0.464057
O15   O     O_R   0.007050 0.649970 0.960540 -0.516298
O16   O     O_R   0.807910 0.482370 0.965590 -0.479947
O17   O     O_R   0.643310 0.460980 0.963840 -0.505060
O18   O     O_R   0.666140 0.657800 0.967020 -0.461373
O19   O     O_3   0.830520 0.660760 0.007110 -0.248031
O20   O     O_R   0.684760 0.998800 0.456360 -0.494957
O21   O     O_R   0.647540 0.166310 0.470260 -0.458264
O22   O     O_R   0.500960 0.181750 0.467450 -0.529838
O23   O     O_R   0.331100 0.981120 0.457080 -0.513608
O24   O     O_R   0.315560 0.821140 0.532010 -0.508067
O25   O     O_R   0.522630 0.854180 0.531710 -0.499803
O26   O     O_R   0.682160 0.995480 0.544690 -0.490100
I1    I     I_    0.870683 0.314850 0.450624 -0.324667
N1    N     N_2   0.241809 0.768732 0.092380 -0.478348
H41   H     H_    0.254469 0.797772 0.065168 0.245048
C109  C     C_3   0.207323 0.658137 0.087693 -0.247737
H42   H     H_    0.192342 0.624494 0.054824 0.141000
H43   H     H_    0.131978 0.614505 0.102390 0.136766
H44   H     H_    0.271482 0.646881 0.101283 0.162744
N2    N     N_2   0.293200 0.802469 0.177407 -0.482384
H45   H     H_    0.351032 0.864244 0.197446 0.259229
C110  C     C_3   0.253405 0.704711 0.193025 -0.301943
H46   H     H_    0.218525 0.708503 0.222509 0.134031
H47   H     H_    0.320696 0.688833 0.198074 0.149202
H48   H     H_    0.191401 0.639070 0.171189 0.144761
N3    N     N_2   0.181180 0.688015 0.380512 -0.498212
H49   H     H_    0.185063 0.634574 0.358238 0.244479
C111  C     C_3   0.087273 0.640648 0.402899 -0.271808
H50   H     H_    0.013567 0.615161 0.382773 0.138961
H51   H     H_    0.091317 0.696437 0.429647 0.162963
H52   H     H_    0.082868 0.571386 0.414121 0.166707
N4    N     N_2   0.831607 0.009725 0.109150 -0.490337
H53   H     H_    0.807324 0.005717 0.079335 0.265120
C112  C     C_3   0.946455 0.055930 0.117705 -0.259530
H54   H     H_    0.981400 0.030357 0.091874 0.149785
H55   H     H_    0.967112 0.034463 0.146012 0.165547
H56   H     H_    0.983118 0.142128 0.121608 0.168350
I2    I     I_    0.825405 0.092577 0.204677 -0.385703
I3    I     I_    0.906758 0.022232 0.320388 -0.333985
N5    N     N_2   0.848948 0.355862 0.911779 -0.500507
H57   H     H_    0.826643 0.324512 0.938318 0.253645
C113  C     C_3   0.928282 0.335355 0.892089 -0.302484
H58   H     H_    0.989247 0.344116 0.915514 0.153822
H59   H     H_    0.970287 0.392526 0.871154 0.155073
H60   H     H_    0.889813 0.254413 0.875251 0.140442
I4    I     I_    0.839206 0.237282 0.608101 -0.292764
N6    N     N_2   0.494996 0.321887 0.614092 -0.494017
H61   H     H_    0.516215 0.348470 0.586628 0.263031
C114  C     C_3   0.381500 0.252777 0.616099 -0.243227
H62   H     H_    0.344754 0.204451 0.585912 0.148988
H63   H     H_    0.341630 0.300191 0.624505 0.177849
H64   H     H_    0.366724 0.200217 0.639115 0.160635
I5    I     I_    0.495100 0.386799 0.711593 -0.380130
N7    N     N_2   0.122025 0.937974 0.921401 -0.500303
H65   H     H_    0.117616 0.995926 0.908703 0.243342
C115  C     C_3   0.220413 0.977455 0.946933 -0.289102
H66   H     H_    0.232162 0.046036 0.968986 0.145350
H67   H     H_    0.289729 0.001898 0.927941 0.138290
H68   H     H_    0.217132 0.917246 0.964477 0.151741
I6    I     I_    0.021056 0.567163 0.628547 -0.378903
N8    N     N_2   0.208553 0.694779 0.775636 -0.513835
H69   H     H_    0.223712 0.644597 0.755699 0.278787
C116  C     C_3   0.303389 0.771458 0.801349 -0.284854
H70   H     H_    0.340651 0.731385 0.815583 0.168120
H71   H     H_    0.283346 0.815347 0.826223 0.163519
H72   H     H_    0.362105 0.827359 0.783035 0.167091
I7    I     I_    0.447942 0.552594 0.920406 -0.341962
I8    I     I_    0.459181 0.819445 0.698964 -0.442588
I9    I     I_    0.408010 0.527195 0.811856 -0.327250
N9    N     N_2   0.780630 0.706100 0.691020 -0.541323
H73   H     H_    0.802246 0.744385 0.666099 0.255300
C117  C     C_3   0.765054 0.601210 0.682516 -0.272098
H74   H     H_    0.833541 0.602279 0.666685 0.179401
H75   H     H_    0.690247 0.550262 0.662441 0.180187
H76   H     H_    0.761200 0.568846 0.711153 0.174939
I10   I     I_    0.489554 0.307540 0.187794 -0.368145
I11   I     I_    0.703256 0.608550 0.242055 -0.398704

loop_
_geom_bond_atom_site_label_1
_geom_bond_atom_site_label_2
_ccdc_geom_bond_type
C80   C85   A    
C65   C92   S    
N3    C111  S    
C21   C26   S    
C110  H46   S    
C73   C74   A    
C104  H34   S    
C9    O15   A    
C95   C96   A    
C80   N8    S    
C55   C56   T    
C17   H39   S    
C60   I5    S    
C96   C105  S    
C81   C82   A    
Cr2   O21   S    
C27   C33   A    
C114  H64   S    
Cr6   O18   S    
Cr4   O7    S    
C43   O25   A    
C100  C105  A    
C62   C63   A    
C112  H55   S    
Cr6   O11   S    
C83   C84   A    
C1    O12   A    
C90   I6    S    
C36   C37   A    
C67   H19   S    
Cr3   O4    S    
C23   I1    S    
C86   C91   A    
C78   H28   S    
C5    C107  A    
C38   C39   S    
C34   C35   A    
C86   C88   A    
C94   I7    S    
C111  H50   S    
C15   H21   S    
C65   O24   A    
C45   H14   S    
C15   C16   A    
Cr4   O14   S    
C16   C25   S    
C18   C19   A    
C109  H42   S    
N2    C110  S    
C67   C72   A    
C95   I9    S    
C23   C26   A    
C68   H18   S    
Cr3   O5    S    
N1    H41   S    
C100  C101  A    
C22   C26   A    
C110  H48   S    
Cr5   O8    S    
C108  H38   S    
C107  H36   S    
C24   H15   S    
Cr6   O19   S    
C66   C72   A    
C88   C92   A    
C84   H25   S    
N4    H53   S    
C21   O21   A    
C6    C41   S    
C4    C102  S    
C110  H47   S    
C23   C24   A    
C6    O7    A    
C70   C71   T    
C51   C57   A    
C93   C99   A    
C98   I10   S    
C86   H26   S    
C87   C98   A    
C11   C93   S    
C22   H2    S    
N3    H49   S    
C5    C43   S    
C2    C12   A    
C11   O18   A    
C106  H35   S    
C115  H66   S    
C11   O13   A    
C36   C41   A    
C61   C62   A    
C42   C44   A    
C111  H52   S    
C35   C41   A    
Cr1   O24   S    
C104  C105  A    
C97   C99   A    
N8    H69   S    
C14   H30   S    
C53   C55   S    
C97   H37   S    
Cr6   O17   S    
C1    O20   A    
N9    C117  S    
C44   H11   S    
C112  H54   S    
Cr3   O22   S    
C101  C102  A    
C6    O8    A    
C84   C85   A    
C111  H51   S    
C74   C75   A    
N5    H57   S    
C39   C40   T    
C50   N4    S    
C78   C79   A    
C68   C69   A    
Cr5   O15   S    
C58   C59   A    
C77   C78   A    
Cr4   O13   S    
C4    C106  A    
Cr1   O12   S    
C112  H56   S    
C117  H76   S    
C82   C91   S    
C67   C68   A    
N2    H45   S    
C35   N1    S    
C64   C66   A    
C37   C38   A    
N7    C115  S    
N6    H61   S    
C31   H4    S    
C29   C30   A    
C8    C57   S    
Cr5   O9    S    
C32   O1    A    
C66   N5    S    
Cr1   O25   S    
Cr6   O10   S    
C47   C48   A    
C13   C76   A    
Cr2   O26   S    
C30   C31   A    
C21   O22   A    
C96   C97   A    
C101  I8    S    
C117  H75   S    
C17   C18   A    
C73   C79   A    
C30   C40   S    
C94   C95   A    
C116  H71   S    
C93   C94   A    
C42   C48   A    
C106  C107  A    
C24   C25   A    
C89   C92   A    
C34   N2    S    
C75   C77   A    
C76   C87   A    
Cr5   O16   S    
C20   H40   S    
N4    C112  S    
C114  H62   S    
C20   C22   A    
C33   N3    S    
C113  H58   S    
C113  H59   S    
C82   C83   A    
C75   H23   S    
C99   H31   S    
C32   O23   A    
C114  H63   S    
C3    C4    A    
Cr1   O5    S    
C115  H68   S    
C88   H27   S    
C103  C104  A    
C52   C53   A    
C81   H22   S    
Cr5   O19   S    
C54   C58   S    
C58   C63   A    
C79   H20   S    
N9    H73   S    
C28   C29   A    
C31   C33   A    
C52   H12   S    
Cr4   O6    S    
N1    C109  S    
C27   C32   S    
C34   C38   A    
C50   C57   A    
C87   H1    S    
C62   H17   S    
C9    C73   S    
C9    O14   A    
C44   C45   A    
C64   H16   S    
C80   C81   A    
C28   H5    S    
C115  H67   S    
C48   H10   S    
C7    C76   S    
C3    C108  A    
C10   O16   A    
C113  H60   S    
C64   C69   A    
C7    O10   A    
C74   N7    S    
C109  H44   S    
C47   I3    S    
C51   H13   S    
N6    C114  S    
C36   H7    S    
C10   O17   A    
C51   C52   A    
N8    C116  S    
C89   H29   S    
C54   O3    A    
C54   O2    A    
C13   H8    S    
C18   I11   S    
C61   C71   S    
C90   C91   A    
C16   C17   A    
C37   H6    S    
C7    O9    A    
C43   O26   A    
C103  N9    S    
C49   C53   A    
C29   H9    S    
C14   C19   A    
C117  H74   S    
C109  H43   S    
Cr4   O19   S    
C116  H72   S    
C59   N6    S    
Cr2   O20   S    
C63   I4    S    
Cr3   O3    S    
C102  C103  A    
Cr1   O1    S    
C69   C70   S    
C46   C47   A    
Cr2   O2    S    
C8    O11   A    
C77   C85   S    
C12   H3    S    
C45   C46   A    
C1    C42   S    
C59   C60   A    
C49   I2    S    
C2    C98   A    
C3    H32   S    
N5    C113  S    
C49   C50   A    
C20   C25   A    
C46   C56   S    
C116  H70   S    
Cr3   O23   S    
C14   C15   A    
C60   C61   A    
C100  H33   S    
C12   C13   A    
C89   C90   A    
N7    H65   S    
C83   H24   S    
Cr2   O5    S    
C65   O4    A    
C10   C72   S    
C2    C19   S    
C27   C28   A    
C5    C108  A    
C8    O6    A    
