data_mof_unit_57446.cif
_audit_creation_date              2012-12-11T17:34:18-0500
_audit_creation_method            fapswitch 2.2
_symmetry_space_group_name_H-M    P1
_symmetry_Int_Tables_number       1
_space_group_crystal_system       triclinic
_cell_length_a                    23.988196
_cell_length_b                    7.222638
_cell_length_c                    20.897096
_cell_angle_alpha                 90.000052
_cell_angle_beta                  104.196825
_cell_angle_gamma                 90.000154
_cell_volume                      3510.01357214

loop_
_atom_site_label
_atom_site_type_symbol
_atom_type_description
_atom_site_fract_x
_atom_site_fract_y
_atom_site_fract_z
_atom_type_partial_charge
O1    O     O_R   0.449110 0.494310 0.552140 -0.494803
O2    O     O_R   0.550890 0.994310 0.447860 -0.494803
O3    O     O_R   0.440010 0.824420 0.415850 -0.544072
O4    O     O_R   0.559990 0.324420 0.584150 -0.544072
C1    C     C_R   0.425468 0.656839 0.391416 0.721749
C2    C     C_R   0.574532 0.156839 0.608585 0.721759
O5    O     O_R   0.442260 0.824040 0.549660 -0.513661
O6    O     O_R   0.557740 0.324040 0.450340 -0.513665
O7    O     O_R   0.553160 0.993960 0.582620 -0.535919
O8    O     O_R   0.446840 0.493960 0.417380 -0.535921
C3    C     C_R   0.427200 0.653017 0.565938 0.686607
C4    C     C_R   0.572800 0.153018 0.434062 0.686604
O9    O     O_3   0.536380 0.660670 0.510660 -0.347447
O10   O     O_3   0.463620 0.160670 0.489340 -0.347446
V1    V     V_3+5 0.493250 0.935680 0.498020 1.637513
V2    V     V_3+5 0.506750 0.435680 0.501980 1.637507
C5    C     C_R   0.818292 0.924292 0.164644 -0.121552
C6    C     C_R   0.181702 0.424285 0.835349 -0.121555
H1    H     H_    0.791637 0.805847 0.168614 0.126993
H2    H     H_    0.208354 0.305835 0.831375 0.126988
C7    C     C_R   0.857347 0.912536 0.124552 -0.129867
C8    C     C_R   0.142648 0.412531 0.875442 -0.129876
H3    H     H_    0.859353 0.784709 0.098180 0.156230
H4    H     H_    0.140640 0.284701 0.901811 0.156222
C9    C     C_R   0.892348 0.064410 0.117384 -0.017072
C10   C     C_R   0.107650 0.564411 0.882615 -0.017069
C11   C     C_R   0.887770 0.229874 0.153749 0.168383
C12   C     C_R   0.112233 0.729881 0.846253 0.168383
C13   C     C_R   0.848251 0.238315 0.193454 -0.116969
C14   C     C_R   0.151750 0.738319 0.806547 -0.116969
H5    H     H_    0.844368 0.363932 0.220497 0.109951
H6    H     H_    0.155636 0.863939 0.779507 0.109950
C15   C     C_R   0.813411 0.087858 0.198830 0.083210
C16   C     C_R   0.186586 0.587855 0.801165 0.083213
C17   C     C_1   0.772883 0.104638 0.239797 -0.038234
C18   C     C_1   0.227113 0.604634 0.760199 -0.038236
C19   C     C_1   0.739275 0.121350 0.274262 -0.006925
C20   C     C_1   0.260721 0.621344 0.725733 -0.006927
C21   C     C_R   0.660108 0.988233 0.312652 -0.247562
C22   C     C_R   0.339886 0.488224 0.687343 -0.247578
H7    H     H_    0.663224 0.872515 0.280786 0.168750
H8    H     H_    0.336768 0.372503 0.719206 0.168729
C23   C     C_R   0.624035 0.977291 0.356267 0.404195
C24   C     C_R   0.375963 0.477287 0.643730 0.404173
C25   C     C_R   0.618232 0.135046 0.395614 -0.213850
C26   C     C_R   0.381768 0.635043 0.604385 -0.213836
C27   C     C_R   0.659284 0.276531 0.400329 -0.091890
C28   C     C_R   0.340716 0.776528 0.599670 -0.091872
H9    H     H_    0.660906 0.383570 0.436523 0.206750
H10   H     H_    0.339095 0.883567 0.563476 0.206747
C29   C     C_R   0.700065 0.276256 0.361682 0.206123
C30   C     C_R   0.299934 0.776254 0.638316 0.206121
C31   C     C_R   0.698420 0.134034 0.315225 0.036313
C32   C     C_R   0.301577 0.634028 0.684771 0.036326
C33   C     C_R   0.644677 0.300076 0.783111 -0.120412
C34   C     C_R   0.355329 0.800043 0.216885 -0.120412
H11   H     H_    0.722944 0.335243 0.889966 0.184869
H12   H     H_    0.277064 0.835191 0.110027 0.184872
H13   H     H_    0.633062 0.374227 0.823151 0.125032
H14   H     H_    0.366946 0.874179 0.176843 0.125030
C35   C     C_R   0.616831 0.162431 0.674086 -0.061773
C36   C     C_R   0.383170 0.662426 0.325914 -0.061768
C37   C     C_R   0.894659 0.980591 0.775229 -0.171988
C38   C     C_R   0.105340 0.480626 0.224772 -0.171997
C39   C     C_R   0.857833 0.963702 0.712485 0.220340
C40   C     C_R   0.142164 0.463747 0.287518 0.220343
C41   C     C_R   0.800317 0.015849 0.701565 -0.135492
C42   C     C_R   0.199682 0.515878 0.298436 -0.135491
C43   C     C_R   0.777802 0.086335 0.752779 0.004491
C44   C     C_R   0.222199 0.586339 0.247220 0.004489
C45   C     C_R   0.815819 0.103101 0.818332 -0.071560
C46   C     C_R   0.184183 0.603094 0.181666 -0.071552
C47   C     C_R   0.718078 0.140671 0.740676 0.086517
C48   C     C_R   0.281924 0.640665 0.259322 0.086517
C49   C     C_R   0.700848 0.238759 0.790860 0.017994
C50   C     C_R   0.299157 0.738733 0.209136 0.017989
C51   C     C_R   0.738222 0.264452 0.851690 -0.215273
C52   C     C_R   0.261784 0.764414 0.148305 -0.215275
C53   C     C_R   0.790589 0.174234 0.868222 0.382293
C54   C     C_R   0.209415 0.674207 0.131775 0.382299
C55   C     C_R   0.674652 0.103781 0.681367 -0.246524
C56   C     C_R   0.325348 0.603784 0.318633 -0.246520
C57   C     C_R   0.602498 0.261375 0.726407 0.135166
C58   C     C_R   0.397505 0.761353 0.273591 0.135162
C59   C     C_R   0.875990 0.049446 0.829157 -0.119206
C60   C     C_R   0.124010 0.549452 0.170843 -0.119198
H15   H     H_    0.684400 0.031433 0.640275 0.113922
H16   H     H_    0.315599 0.531449 0.359727 0.113919
H17   H     H_    0.939032 0.939186 0.782083 0.095150
H18   H     H_    0.060965 0.439237 0.217920 0.095151
H19   H     H_    0.774181 0.003910 0.651760 0.119985
H20   H     H_    0.225816 0.503949 0.348242 0.119984
O11   O     O_R   0.053190 0.709680 0.082610 -0.535325
O12   O     O_R   0.946810 0.209680 0.917390 -0.535324
O13   O     O_R   0.057740 0.380240 0.950340 -0.536111
O14   O     O_R   0.942260 0.880240 0.049660 -0.536116
C61   C     C_R   0.067901 0.549229 0.928239 0.811087
C62   C     C_R   0.932098 0.049228 0.071760 0.811086
O15   O     O_R   0.060000 0.379940 0.084150 -0.535970
O16   O     O_R   0.940000 0.879940 0.915850 -0.535974
O17   O     O_R   0.949110 0.210100 0.052140 -0.512674
O18   O     O_R   0.050890 0.710100 0.947860 -0.512678
C63   C     C_R   0.078002 0.548840 0.106390 0.801146
C64   C     C_R   0.921998 0.048839 0.893609 0.801131
O19   O     O_3   0.963630 0.543720 0.989330 -0.373060
O20   O     O_3   0.036370 0.043720 0.010670 -0.373061
V3    V     V_3+5 0.006750 0.268680 0.001980 1.529971
V4    V     V_3+5 0.993250 0.768680 0.998020 1.529964
C65   C     C_3   0.879738 0.889816 0.656007 -0.794351
H21   H     H_    0.926127 0.853792 0.671562 0.205933
H22   H     H_    0.855358 0.763248 0.635944 0.215304
H23   H     H_    0.873832 0.995682 0.616373 0.210823
C66   C     C_3   0.120256 0.389894 0.343998 -0.794353
H24   H     H_    0.073867 0.353882 0.328444 0.205934
H25   H     H_    0.144633 0.263325 0.364066 0.215303
H26   H     H_    0.126165 0.495774 0.383627 0.210822
S1    S     S_3+6 0.812763 0.125316 0.952186 -0.046502
O21   O     O_2   0.852034 0.279754 0.982222 -0.340058
O22   O     O_2   0.762566 0.124144 0.983490 -0.333637
O23   O     O_3   0.843502 0.915541 0.963401 -0.522783
H27   H     H_    0.813316 0.828758 0.940118 0.332810
S2    S     S_3+6 0.187237 0.625291 0.047811 -0.046513
O24   O     O_2   0.147966 0.779733 0.017779 -0.340065
O25   O     O_2   0.237432 0.624116 0.016502 -0.333644
O26   O     O_3   0.156495 0.415520 0.036597 -0.522781
H28   H     H_    0.186684 0.328733 0.059872 0.332815
C67   C     C_3   0.924443 0.399246 0.152978 -0.747176
H29   H     H_    0.920030 0.502386 0.190879 0.175370
H30   H     H_    0.970286 0.358706 0.163839 0.173834
H31   H     H_    0.911455 0.469144 0.104304 0.249618
C68   C     C_3   0.075565 0.899263 0.847031 -0.747156
H32   H     H_    0.079982 0.002412 0.809135 0.175363
H33   H     H_    0.029720 0.858740 0.836168 0.173831
H34   H     H_    0.088556 0.969144 0.895708 0.249625
S3    S     S_3+6 0.610308 0.746952 0.377360 -0.052142
O27   O     O_2   0.650759 0.709304 0.443210 -0.355677
O28   O     O_2   0.550439 0.709511 0.383027 -0.347930
O29   O     O_3   0.623857 0.600534 0.320526 -0.525967
H35   H     H_    0.590996 0.615048 0.281541 0.322439
S4    S     S_3+6 0.389695 0.246948 0.622641 -0.052134
O30   O     O_2   0.349247 0.209292 0.556789 -0.355679
O31   O     O_2   0.449565 0.209520 0.616977 -0.347920
O32   O     O_3   0.376147 0.100526 0.679474 -0.525954
H36   H     H_    0.408992 0.115116 0.718471 0.322425
C69   C     C_3   0.744831 0.426542 0.370506 -0.677461
H37   H     H_    0.788427 0.364246 0.385122 0.174762
H38   H     H_    0.740262 0.503211 0.323437 0.219392
H39   H     H_    0.740658 0.526835 0.409316 0.239894
C70   C     C_3   0.255170 0.926545 0.629493 -0.677478
H40   H     H_    0.211573 0.864254 0.614876 0.174765
H41   H     H_    0.259739 0.003209 0.676564 0.219389
H42   H     H_    0.259345 0.026840 0.590684 0.239893
C71   C     C_3   0.542260 0.322507 0.724995 -0.707882
H43   H     H_    0.515086 0.197780 0.723236 0.231466
H44   H     H_    0.539811 0.399918 0.770166 0.182484
H45   H     H_    0.525584 0.416979 0.682904 0.231942
C72   C     C_3   0.457744 0.822477 0.275005 -0.707893
H46   H     H_    0.484917 0.697747 0.276768 0.231455
H47   H     H_    0.460196 0.899876 0.229832 0.182487
H48   H     H_    0.474419 0.916957 0.317093 0.231942

loop_
_geom_bond_atom_site_label_1
_geom_bond_atom_site_label_2
_ccdc_geom_bond_type
O17   V3    S    
S3    O29   S    
C40   C42   A    
C37   C39   A    
C72   H46   S    
C34   C50   A    
C40   C66   S    
C33   H13   S    
C11   C13   A    
O15   C63   A    
O1    C3    A    
S4    O32   S    
C38   H18   S    
C68   H34   S    
O2    C4    A    
O11   C63   A    
C2    O7    A    
C45   C53   A    
C69   H37   S    
S3    O27   D    
C27   H9    S    
C54   S2    S    
O5    C3    A    
C48   C50   A    
C2    C35   S    
C17   C19   T    
S4    O31   D    
C70   H41   S    
O11   V4    S    
C52   C54   A    
O20   V3    S    
C29   C69   S    
C1    O8    A    
O32   H36   S    
C13   C15   A    
O16   C64   A    
C49   C51   A    
C25   C27   A    
C38   C60   A    
C43   C45   A    
C7    C9    A    
C42   H20   S    
C45   C59   A    
C11   C67   S    
C30   C32   A    
C30   C70   S    
C39   C41   A    
O14   C62   A    
C44   C48   A    
C43   C47   A    
C71   H44   S    
C16   C18   S    
C61   O18   A    
C66   H26   S    
C33   C49   A    
C28   H10   S    
O14   V4    S    
O12   C64   A    
C24   S4    S    
C37   C59   A    
C13   H5    S    
C47   C49   A    
C5    C15   A    
C48   C56   A    
C60   C63   S    
C47   C55   A    
C69   H38   S    
C24   C26   A    
C34   C58   A    
C51   C53   A    
O19   V4    S    
C26   C28   A    
O12   V3    S    
O16   V4    S    
C44   C46   A    
C14   C16   A    
H11   C51   S    
S4    O30   D    
C21   H7    S    
C35   C57   A    
S1    O23   S    
S1    O22   D    
C5    H1    S    
C21   C23   A    
C68   H33   S    
C5    C7    A    
C34   H14   S    
C29   C31   A    
C38   C40   A    
O4    V2    S    
C67   H30   S    
C33   C57   A    
C6    C16   A    
C46   C60   A    
C20   C32   S    
C22   C24   A    
O6    C4    A    
C37   H17   S    
C41   H19   S    
O1    V2    S    
C71   H45   S    
C23   S3    S    
O2    V1    S    
C23   C25   A    
C39   C65   S    
C55   H15   S    
C59   C64   S    
O13   V3    S    
C70   H42   S    
O4    C2    A    
C72   H48   S    
C22   C32   A    
C7    H3    S    
O26   H28   S    
C8    H4    S    
C65   H23   S    
C72   H47   S    
C67   H29   S    
C69   H39   S    
O3    V1    S    
O23   H27   S    
C66   H24   S    
S3    O28   D    
C36   C58   A    
C6    C8    A    
C50   C52   A    
C4    C25   S    
O3    C1    A    
C27   C29   A    
C58   C72   S    
O13   C61   A    
C57   C71   S    
C9    C11   A    
C62   O17   A    
O15   V3    S    
C10   C12   A    
C12   C68   S    
S2    O26   S    
C65   H22   S    
C71   H43   S    
C67   H31   S    
C19   C31   S    
C12   C14   A    
C46   C54   A    
C35   C55   A    
C70   H40   S    
C18   C20   T    
C14   H6    S    
C21   C31   A    
O18   V4    S    
C56   H16   S    
C53   S1    S    
O5    V1    S    
C15   C17   S    
C1    C36   S    
C6    H2    S    
C36   C56   A    
O29   H35   S    
H12   C52   S    
C10   C61   S    
C9    C62   S    
C28   C30   A    
O6    V2    S    
C8    C10   A    
O9    V2    S    
C65   H21   S    
C42   C44   A    
C22   H8    S    
O10   V1    S    
C3    C26   S    
O8    V2    S    
C41   C43   A    
S2    O24   D    
S1    O21   D    
S2    O25   D    
C68   H32   S    
O7    V1    S    
C66   H25   S    
