data_mof_unit_42642.cif
_audit_creation_date              2012-12-10T17:31:15-0500
_audit_creation_method            fapswitch 2.2
_symmetry_space_group_name_H-M    P1
_symmetry_Int_Tables_number       1
_space_group_crystal_system       triclinic
_cell_length_a                    12.151302
_cell_length_b                    12.834419
_cell_length_c                    15.372506
_cell_angle_alpha                 83.353181
_cell_angle_beta                  115.592626
_cell_angle_gamma                 91.574561
_cell_volume                      2146.99044924

loop_
_atom_site_label
_atom_site_type_symbol
_atom_type_description
_atom_site_fract_x
_atom_site_fract_y
_atom_site_fract_z
_atom_type_partial_charge
C1    C     C_R   0.473704 0.302080 0.486383 0.976290
C2    C     C_R   0.657423 0.963457 0.515556 0.399874
C3    C     C_R   0.337398 0.149198 0.435641 0.304772
C4    C     C_R   0.653604 0.856239 0.541366 0.276368
C5    C     C_R   0.547293 0.135624 0.459928 0.380283
C6    C     C_R   0.440428 0.872507 0.506634 0.424600
C7    C     C_R   0.548893 0.026316 0.481171 -0.190371
C8    C     C_R   0.439121 0.979287 0.476566 -0.210790
C9    C     C_R   0.011268 0.621199 0.427531 0.104786
C10   C     C_R   0.002821 0.398039 0.597531 0.125264
C11   C     C_R   0.126298 0.604627 0.426237 0.282004
C12   C     C_R   0.524853 0.699069 0.510347 0.971204
C13   C     C_R   0.879675 0.404987 0.583889 0.267088
C14   C     C_R   0.160560 0.447480 0.535932 0.295132
C15   C     C_R   0.839197 0.548513 0.461173 0.318894
C16   C     C_R   0.576028 0.493199 0.680697 0.990884
C17   C     C_R   0.423058 0.504482 0.318111 0.946345
C18   C     C_R   0.043094 0.461763 0.536124 -0.147971
C19   C     C_R   0.964165 0.544229 0.474648 -0.122432
C20   C     C_R   0.622932 0.491020 0.785906 -0.275289
C21   C     C_R   0.376261 0.519136 0.210104 -0.226315
C22   C     C_R   0.748126 0.414794 0.950774 0.168020
C23   C     C_R   0.652647 0.552229 0.109146 0.255993
C24   C     C_R   0.225401 0.591824 0.049243 0.158625
C25   C     C_R   0.702529 0.410836 0.850539 0.300437
C26   C     C_R   0.255272 0.550748 0.146488 0.281994
C27   C     C_R   0.580009 0.568160 0.821477 0.342218
C28   C     C_R   0.458665 0.507865 0.170210 0.290160
C29   C     C_R   0.590647 0.550591 0.916459 -0.041671
C30   C     C_R   0.436618 0.559809 0.077754 -0.082199
C31   C     C_R   0.690083 0.483661 0.985388 -0.114156
C32   C     C_R   0.317945 0.600345 0.014970 -0.065382
C33   C     C_R   0.500173 0.584485 0.945114 -0.011462
C34   C     C_R   0.382092 0.629095 0.882039 0.134593
C35   C     C_R   0.528496 0.563775 0.044363 0.015058
C36   C     C_3   0.884901 0.430035 0.250388 -0.658441
C37   C     C_3   0.180586 0.806803 0.835974 -0.681244
C38   C     C_3   0.854096 0.223244 0.641302 -0.550761
C39   C     C_3   0.084424 0.727795 0.275478 -0.710993
C40   C     C_3   0.996424 0.798186 0.464618 -0.568692
C41   C     C_3   0.112693 0.368099 0.774910 -0.716888
C42   C     C_3   0.837964 0.242417 0.037647 -0.574283
C43   C     C_3   0.055159 0.715919 0.995247 -0.659555
C44   C     C_3   0.678123 0.739422 0.121175 -0.785102
C45   C     C_R   0.724218 0.487598 0.085427 0.163848
C46   C     C_3   0.261100 0.617631 0.707792 -0.697211
C47   C     C_3   0.702871 0.704990 0.370186 -0.611130
C48   C     C_3   0.322964 0.336479 0.671200 -0.632365
C49   C     C_R   0.294344 0.642115 0.918512 0.158026
C50   C     C_R   0.540955 0.810171 0.522165 -0.261461
C51   C     C_R   0.452103 0.194769 0.460733 -0.311643
C52   C     C_R   0.330203 0.040569 0.439517 0.433262
Cl1   Cl    Cl    0.564201 0.400069 0.221838 -0.581968
Cl2   Cl    Cl    0.801840 0.012389 0.532732 -0.554754
Cl3   Cl    Cl    0.573655 0.698276 0.766897 -0.556924
Cl4   Cl    Cl    0.136853 0.524067 0.182615 -0.675522
Cl5   Cl    Cl    0.747113 0.305377 0.808269 -0.674274
Cl6   Cl    Cl    0.338825 0.823524 0.555818 -0.547308
Cl7   Cl    Cl    0.641651 0.197303 0.408794 -0.465680
Cl8   Cl    Cl    0.791696 0.783567 0.614180 -0.558457
Cl9   Cl    Cl    0.200779 0.226257 0.388145 -0.519031
Cl10  Cl    Cl    0.184258 0.984926 0.386526 -0.543748
H1    H     H_    0.750092 0.338971 0.158682 0.281320
H2    H     H_    0.920007 0.186995 0.713831 0.240379
H3    H     H_    0.885411 0.207674 0.585914 0.269858
H4    H     H_    0.765045 0.185362 0.624472 0.264929
H5    H     H_    0.243219 0.651416 0.365029 0.297716
H6    H     H_    0.131089 0.741260 0.227022 0.244390
H7    H     H_    0.056275 0.806704 0.282164 0.282189
H8    H     H_    0.004759 0.678178 0.240060 0.228173
H9    H     H_    0.913330 0.748735 0.323930 0.231468
H10   H     H_    0.935982 0.869371 0.435706 0.270379
H11   H     H_    0.089678 0.820265 0.476016 0.308448
H12   H     H_    0.944693 0.360133 0.290218 0.287310
H13   H     H_    0.996866 0.766097 0.535047 0.246737
H14   H     H_    0.087823 0.256414 0.678164 0.236416
H15   H     H_    0.067676 0.314401 0.810872 0.267489
H16   H     H_    0.078907 0.449661 0.768223 0.239755
H17   H     H_    0.212476 0.364278 0.821620 0.232535
H18   H     H_    0.923537 0.388838 0.066651 0.289520
H19   H     H_    0.871695 0.223661 0.117413 0.235979
H20   H     H_    0.891991 0.194330 0.013703 0.267807
H21   H     H_    0.740504 0.220690 0.001912 0.237373
H22   H     H_    0.042304 0.556635 0.979561 0.266275
H23   H     H_    0.836565 0.450387 0.293123 0.238567
H24   H     H_    0.971382 0.740990 0.928479 0.262781
H25   H     H_    0.123744 0.778176 0.006072 0.236872
H26   H     H_    0.031245 0.706635 0.057571 0.249302
H27   H     H_    0.801277 0.622968 0.210578 0.229654
H28   H     H_    0.734671 0.796227 0.170563 0.233661
H29   H     H_    0.580668 0.758653 0.099984 0.255045
H30   H     H_    0.696335 0.748761 0.055790 0.263111
H31   H     H_    0.350808 0.749833 0.771366 0.293499
H32   H     H_    0.296065 0.603954 0.654495 0.295290
H33   H     H_    0.177847 0.668587 0.669476 0.228469
H34   H     H_    0.943818 0.494637 0.243282 0.257505
H35   H     H_    0.236857 0.541711 0.736238 0.217938
H36   H     H_    0.694857 0.555950 0.323114 0.278987
H37   H     H_    0.713280 0.759879 0.313547 0.226072
H38   H     H_    0.752157 0.737363 0.439834 0.287092
H39   H     H_    0.603449 0.701413 0.349105 0.212800
H40   H     H_    0.170686 0.284148 0.556114 0.253186
H41   H     H_    0.304529 0.270849 0.716411 0.213988
H42   H     H_    0.335476 0.408349 0.707547 0.229149
H43   H     H_    0.409020 0.314948 0.668507 0.247795
H44   H     H_    0.121943 0.654943 0.799684 0.251615
H45   H     H_    0.099878 0.841704 0.838833 0.265354
H46   H     H_    0.173793 0.828413 0.761742 0.245159
H47   H     H_    0.264262 0.840615 0.889716 0.226781
H48   H     H_    0.761750 0.353835 0.643646 0.315115
N1    N     N_R   0.799120 0.480200 0.517090 -0.144293
N2    N     N_2   0.101131 0.617574 0.984652 -0.269087
N3    N     N_2   0.708840 0.633067 0.169435 -0.322055
N4    N     N_2   0.353703 0.669146 0.784498 -0.248348
N5    N     N_2   0.751501 0.602469 0.373059 -0.302814
N6    N     N_2   0.224735 0.348885 0.573706 -0.237429
N7    N     N_R   0.200880 0.519800 0.482910 -0.151313
N8    N     N_2   0.798389 0.405554 0.155774 -0.303563
N9    N     N_2   0.180324 0.693793 0.856501 -0.275278
N10   N     N_2   0.841916 0.334598 0.643619 -0.290106
N11   N     N_2   0.168476 0.678022 0.370079 -0.240990
N12   N     N_2   0.951585 0.721414 0.396400 -0.316821
N13   N     N_2   0.089248 0.336231 0.681075 -0.311602
N14   N     N_2   0.854221 0.352632 0.013687 -0.272410
O1    O     O_R   0.580150 0.341050 0.504560 -0.598430
O2    O     O_R   0.419850 0.658950 0.495440 -0.603871
O3    O     O_R   0.388090 0.353760 0.493600 -0.559076
O4    O     O_R   0.611910 0.646240 0.506400 -0.596003
O5    O     O_R   0.650890 0.490020 0.640860 -0.600372
O6    O     O_R   0.349110 0.509980 0.359140 -0.587136
O7    O     O_R   0.458830 0.502730 0.629890 -0.623819
O8    O     O_R   0.541170 0.497270 0.370110 -0.587905
Zn1   Zn    Zn3+2 0.628240 0.491510 0.507320 1.012290
Zn2   Zn    Zn3+2 0.371760 0.508490 0.492680 1.008647

loop_
_geom_bond_atom_site_label_1
_geom_bond_atom_site_label_2
_ccdc_geom_bond_type
C45   N8    S    
C21   C26   A    
C47   H39   S    
H44   N9    S    
C27   C29   A    
C39   H6    S    
C14   C18   A    
H9    N12   S    
C2    C4    A    
C2    C7    A    
C24   N2    S    
O3    Zn2   S    
O7    Zn2   S    
C42   N14   S    
C7    C8    A    
O6    Zn2   S    
C15   C19   A    
C42   H20   S    
H22   N2    S    
C30   C35   A    
C23   C45   A    
C43   H26   S    
C24   C26   A    
C37   H45   S    
C41   H15   S    
C27   Cl3   S    
C12   O2    A    
C20   C25   A    
C48   H42   S    
C29   C33   A    
C47   H37   S    
C40   H11   S    
C18   C19   A    
C16   O7    A    
C6    Cl6   S    
C9    C19   A    
C46   H33   S    
C38   H4    S    
O8    Zn1   S    
C22   C25   A    
C37   N9    S    
C36   N8    S    
C8    C52   A    
C37   H47   S    
C44   H30   S    
C48   N6    S    
C38   N10   S    
C17   O8    A    
H14   N13   S    
C11   N11   S    
C42   H19   S    
C25   Cl5   S    
N7    Zn2   S    
H5    N11   S    
C9    N12   S    
C38   H2    S    
C3    Cl9   S    
H27   N3    S    
C22   C31   A    
C5    Cl7   S    
C15   N1    A    
C37   H46   S    
C10   N13   S    
C2    Cl2   S    
H48   N10   S    
C41   H16   S    
C5    C7    A    
H1    N8    S    
C46   N4    S    
N1    Zn1   S    
C6    C8    A    
C48   H41   S    
C17   C21   S    
C47   H38   S    
C4    C50   A    
C47   N5    S    
C24   C32   A    
C23   N3    S    
C9    C11   A    
C36   H34   S    
C48   H43   S    
C46   H32   S    
C38   H3    S    
C16   C20   S    
C14   N7    A    
C4    Cl8   S    
C33   C34   A    
C39   H7    S    
C6    C50   A    
C28   Cl1   S    
C16   O5    A    
C1    C51   S    
C44   H29   S    
C36   H12   S    
O5    Zn1   S    
C21   C28   A    
C44   N3    S    
C23   C35   A    
C15   N5    S    
C43   N2    S    
C11   N7    A    
C13   N10   S    
C44   H28   S    
H18   N14   S    
O1    Zn1   S    
C34   C49   A    
C3    C51   A    
C40   H10   S    
C17   O6    A    
C43   H24   S    
C46   H35   S    
C42   H21   S    
C1    O3    A    
C1    O1    A    
C10   C13   A    
C26   Cl4   S    
C41   H17   S    
C12   C50   S    
C3    C52   A    
C22   N14   S    
C12   O4    A    
C20   C27   A    
C36   H23   S    
C34   N4    S    
C40   N12   S    
C39   N11   S    
C40   H13   S    
C43   H25   S    
C41   N13   S    
C28   C30   A    
C29   C31   A    
C52   Cl10  S    
O4    Zn1   S    
C30   C32   A    
H36   N5    S    
C49   N9    S    
C10   C18   A    
C14   N6    S    
C33   C35   A    
C39   H8    S    
H31   N4    S    
C32   C49   A    
H40   N6    S    
O2    Zn2   S    
C13   N1    A    
C31   C45   A    
C5    C51   A    
