data_mof_unit_38025.cif
_audit_creation_date              2012-12-11T15:49:03-0500
_audit_creation_method            fapswitch 2.2
_symmetry_space_group_name_H-M    P1
_symmetry_Int_Tables_number       1
_space_group_crystal_system       triclinic
_cell_length_a                    21.661551
_cell_length_b                    7.170291
_cell_length_c                    14.896893
_cell_angle_alpha                 90.00039
_cell_angle_beta                  106.731665
_cell_angle_gamma                 90.000324
_cell_volume                      2215.82256675

loop_
_atom_site_label
_atom_site_type_symbol
_atom_type_description
_atom_site_fract_x
_atom_site_fract_y
_atom_site_fract_z
_atom_type_partial_charge
O1    O     O_R   0.335860 0.638190 0.002110 -0.510567
O2    O     O_R   0.664140 0.361810 0.997890 -0.510567
O3    O     O_R   0.164140 0.138190 0.997890 -0.510575
O4    O     O_R   0.835860 0.861810 0.002110 -0.510575
O5    O     O_R   0.217530 0.305920 0.861960 -0.534605
O6    O     O_R   0.782470 0.694080 0.138040 -0.534605
O7    O     O_R   0.282470 0.805920 0.138040 -0.534606
O8    O     O_R   0.717530 0.194080 0.861960 -0.534605
C1    C     C_R   0.205824 0.476761 0.825724 0.713515
C2    C     C_R   0.794178 0.523239 0.174275 0.713526
C3    C     C_R   0.294176 0.976763 0.174276 0.713507
C4    C     C_R   0.705823 0.023238 0.825724 0.713510
O9    O     O_R   0.338690 0.308320 0.993240 -0.541255
O10   O     O_R   0.661310 0.691680 0.006760 -0.541256
O11   O     O_R   0.161310 0.808320 0.006760 -0.541258
O12   O     O_R   0.838690 0.191680 0.993240 -0.541261
O13   O     O_R   0.286170 0.140430 0.130100 -0.534601
O14   O     O_R   0.713830 0.859570 0.869900 -0.534602
O15   O     O_R   0.213830 0.640430 0.869900 -0.534600
O16   O     O_R   0.786170 0.359570 0.130100 -0.534605
C5    C     C_R   0.365358 0.477684 0.999928 0.747370
C6    C     C_R   0.634642 0.522316 0.000072 0.747371
C7    C     C_R   0.134642 0.977682 0.000071 0.747366
C8    C     C_R   0.865358 0.022318 0.999929 0.747369
O17   O     O_3   0.232630 0.472410 0.044750 -0.371789
O18   O     O_3   0.767370 0.527590 0.955250 -0.371789
O19   O     O_3   0.267370 0.972410 0.955250 -0.371776
O20   O     O_3   0.732630 0.027590 0.044750 -0.371777
V1    V     V_3+5 0.253220 0.196620 0.991700 1.576875
V2    V     V_3+5 0.746780 0.803380 0.008300 1.576874
V3    V     V_3+5 0.246780 0.696620 0.008300 1.576875
V4    V     V_3+5 0.753220 0.303380 0.991700 1.576873
C9    C     C_R   0.038386 0.847263 0.038913 -0.198399
C10   C     C_R   0.961615 0.152737 0.961089 -0.198408
C11   C     C_R   0.461623 0.347217 0.961132 -0.198373
C12   C     C_R   0.538377 0.652783 0.038868 -0.198376
H1    H     H_    0.067687 0.728979 0.070806 0.188464
H2    H     H_    0.932313 0.271021 0.929195 0.188467
H3    H     H_    0.432328 0.228892 0.929273 0.188527
H4    H     H_    0.567672 0.771108 0.070727 0.188527
C13   C     C_R   0.974278 0.855304 0.041486 0.422803
C14   C     C_R   0.025722 0.144696 0.958516 0.422792
C15   C     C_R   0.525730 0.355250 0.958559 0.422784
C16   C     C_R   0.474270 0.644750 0.041441 0.422782
C17   C     C_R   0.934576 0.009438 0.001682 -0.170257
C18   C     C_R   0.065424 0.990562 0.998320 -0.170256
C19   C     C_R   0.565424 0.509433 0.998320 -0.170296
C20   C     C_R   0.434576 0.490567 0.001680 -0.170295
C21   C     C_R   0.678079 0.015686 0.724114 -0.044692
C22   C     C_R   0.321919 0.984316 0.275886 -0.044699
C23   C     C_R   0.821921 0.515683 0.275883 -0.044709
C24   C     C_R   0.178081 0.484313 0.724113 -0.044715
C25   C     C_R   0.689924 0.039315 0.568690 -0.137349
C26   C     C_R   0.310074 0.960706 0.431312 -0.137346
C27   C     C_R   0.810071 0.539144 0.431309 -0.137340
C28   C     C_R   0.189929 0.460869 0.568686 -0.137336
C29   C     C_R   0.717487 0.026784 0.665196 -0.144744
C30   C     C_R   0.282510 0.973240 0.334805 -0.144746
C31   C     C_R   0.782511 0.526674 0.334800 -0.144760
C32   C     C_R   0.217491 0.473364 0.665194 -0.144763
C33   C     C_R   0.611325 0.006506 0.686214 -0.167644
C34   C     C_R   0.388674 0.993484 0.313786 -0.167644
C35   C     C_R   0.888676 0.506550 0.313783 -0.167658
C36   C     C_R   0.111325 0.493394 0.686214 -0.167661
C37   C     C_R   0.582201 0.000973 0.588283 0.067047
C38   C     C_R   0.417797 0.999022 0.411718 0.067045
C39   C     C_R   0.917799 0.500948 0.411714 0.067043
C40   C     C_R   0.082201 0.498992 0.588285 0.067038
C41   C     C_R   0.622156 0.036131 0.529430 0.073165
C42   C     C_R   0.377842 0.963873 0.470570 0.073162
C43   C     C_R   0.877839 0.535996 0.470572 0.073164
C44   C     C_R   0.122161 0.463963 0.529426 0.073163
C45   C     C_R   0.514220 0.975336 0.548020 0.000313
C46   C     C_R   0.485779 0.024657 0.451980 0.000312
C47   C     C_R   0.985782 0.475342 0.451974 0.000308
C48   C     C_R   0.014216 0.524584 0.548026 0.000307
C49   C     C_R   0.526312 0.099514 0.400225 -0.092485
C50   C     C_R   0.473686 0.900477 0.599774 -0.092483
C51   C     C_R   0.973675 0.599337 0.599796 -0.092481
C52   C     C_R   0.026323 0.400583 0.400206 -0.092479
C53   C     C_R   0.593722 0.083642 0.434894 -0.098252
C54   C     C_R   0.406276 0.916354 0.565105 -0.098249
C55   C     C_R   0.906265 0.583435 0.565120 -0.098265
C56   C     C_R   0.093734 0.416490 0.434883 -0.098256
H5    H     H_    0.417174 0.984243 0.265379 0.169540
H6    H     H_    0.582824 0.015735 0.734622 0.169538
H7    H     H_    0.082826 0.484058 0.734618 0.169595
H8    H     H_    0.917176 0.515856 0.265379 0.169589
H9    H     H_    0.230603 0.965549 0.305874 0.129810
H10   H     H_    0.769394 0.034491 0.694127 0.129790
H11   H     H_    0.269400 0.465747 0.694125 0.129867
H12   H     H_    0.730604 0.534336 0.305869 0.129853
H13   H     H_    0.722058 0.058709 0.525658 0.133345
H14   H     H_    0.277940 0.941325 0.474344 0.133347
H15   H     H_    0.777934 0.558452 0.474344 0.133353
H16   H     H_    0.222068 0.441592 0.525649 0.133352
Cl1   Cl    Cl    0.948143 0.670952 0.099932 -0.660180
Cl2   Cl    Cl    0.051858 0.329052 0.900072 -0.660184
Cl3   Cl    Cl    0.551873 0.170815 0.900169 -0.660127
Cl4   Cl    Cl    0.448127 0.829186 0.099830 -0.660126
C57   C     C_1   0.633555 0.132976 0.374803 0.314907
N1    N     N_1   0.665186 0.172054 0.326866 -0.356385
C58   C     C_1   0.366443 0.867015 0.625195 0.314909
N2    N     N_1   0.334812 0.827933 0.673131 -0.356399
C59   C     C_1   0.866425 0.632690 0.625217 0.314881
N3    N     N_1   0.834789 0.671709 0.673155 -0.356330
C60   C     C_1   0.133575 0.367209 0.374792 0.314888
N4    N     N_1   0.165209 0.328166 0.326856 -0.356352
C61   C     C_1   0.500894 0.217771 0.318600 0.340407
N5    N     N_1   0.480985 0.312624 0.253795 -0.314457
C62   C     C_1   0.499104 0.782214 0.681397 0.340402
N6    N     N_1   0.519012 0.687356 0.746199 -0.314458
C63   C     C_1   0.999083 0.717534 0.681449 0.340462
N7    N     N_1   0.018985 0.812336 0.746275 -0.314414
C64   C     C_1   0.000915 0.282378 0.318556 0.340448
N8    N     N_1   0.981014 0.187569 0.253731 -0.314418

loop_
_geom_bond_atom_site_label_1
_geom_bond_atom_site_label_2
_ccdc_geom_bond_type
O17   V3    S    
O1    C5    A    
C57   N1    T    
C27   C31   A    
C35   H8    S    
O19   V1    S    
O13   V1    S    
C45   C46   A    
O3    C7    A    
C62   N6    T    
C10   C14   A    
C48   C51   A    
C52   C56   A    
O15   V3    S    
C4    C21   S    
C37   C45   A    
C53   C57   S    
O7    C3    A    
C8    C17   S    
C36   C40   A    
O9    V1    S    
C28   C32   A    
C15   Cl3   S    
C14   Cl2   S    
O16   V4    S    
O4    C8    A    
C2    C23   S    
C64   N8    T    
C38   C46   A    
O1    V3    S    
C56   C60   S    
C21   C29   A    
C12   C19   A    
O2    V4    S    
C14   C18   A    
O3    V1    S    
C24   C32   A    
C1    O15   A    
C2    O16   A    
C28   C44   A    
C46   C49   A    
O2    C6    A    
C54   C58   S    
C50   C62   S    
O14   V2    S    
C11   C15   A    
C47   C52   A    
C36   H7    S    
O5    V1    S    
C40   C44   A    
C5    C20   S    
O11   C7    A    
C6    C19   S    
C25   C41   A    
O12   C8    A    
C7    C18   S    
C9    C18   A    
C1    C24   S    
O10   V2    S    
C11   C20   A    
C43   C55   A    
C34   H5    S    
C35   C39   A    
C21   C33   A    
C29   H10   S    
C34   C38   A    
C25   H13   S    
C22   C30   A    
C12   H4    S    
O7    V3    S    
C27   H15   S    
C24   C36   A    
C25   C29   A    
O18   V4    S    
C45   C50   A    
C9    H1    S    
C55   C59   S    
O8    V4    S    
C11   H3    S    
C47   C48   A    
O5    C1    A    
C50   C54   A    
C26   C42   A    
C52   C64   S    
C49   C53   A    
O8    C4    A    
C23   C35   A    
C10   C17   A    
C40   C48   A    
C49   C61   S    
C44   C56   A    
O6    V2    S    
C51   C63   S    
C22   C34   A    
C13   Cl1   S    
C12   C16   A    
C39   C47   A    
C60   N4    T    
C63   N7    T    
C26   C30   A    
C32   H11   S    
C28   H16   S    
C3    O13   A    
C10   H2    S    
O6    C2    A    
O11   V3    S    
O12   V4    S    
C59   N3    T    
C9    C13   A    
O10   C6    A    
O20   V2    S    
C3    C22   S    
C61   N5    T    
O9    C5    A    
C51   C55   A    
C16   Cl4   S    
C38   C42   A    
C37   C41   A    
C39   C43   A    
C31   H12   S    
C42   C54   A    
C30   H9    S    
O4    V2    S    
C26   H14   S    
C41   C53   A    
C33   H6    S    
C33   C37   A    
C23   C31   A    
C4    O14   A    
C58   N2    T    
C13   C17   A    
C15   C19   A    
C27   C43   A    
C16   C20   A    
