data_mof_unit_58721.cif
_audit_creation_date              2012-12-10T17:12:00-0500
_audit_creation_method            fapswitch 2.2
_symmetry_space_group_name_H-M    P1
_symmetry_Int_Tables_number       1
_space_group_crystal_system       triclinic
_cell_length_a                    11.651495
_cell_length_b                    13.023764
_cell_length_c                    15.791428
_cell_angle_alpha                 90.790525
_cell_angle_beta                  73.901511
_cell_angle_gamma                 100.408408
_cell_volume                      2262.76799371

loop_
_atom_site_label
_atom_site_type_symbol
_atom_type_description
_atom_site_fract_x
_atom_site_fract_y
_atom_site_fract_z
_atom_type_partial_charge
C1    C     C_R   0.522425 0.700976 0.498154 0.912820
C2    C     C_R   0.477246 0.299100 0.502465 0.889479
C3    C     C_R   0.362280 0.435068 0.086817 -0.208988
C4    C     C_R   0.618268 0.596166 0.920239 -0.200955
C5    C     C_R   0.278801 0.405953 0.039336 -0.087295
C6    C     C_R   0.703282 0.622795 0.966692 -0.079705
C7    C     C_R   0.462842 0.185487 0.505101 -0.112435
C8    C     C_R   0.535661 0.814607 0.497407 -0.142677
C9    C     C_R   0.612526 0.975034 0.557706 -0.116211
C10   C     C_R   0.383331 0.024265 0.447619 -0.088807
C11   C     C_R   0.609862 0.869581 0.545085 -0.271228
C12   C     C_R   0.386912 0.129857 0.459026 -0.230819
C13   C     C_R   0.470953 0.868236 0.454559 0.376782
C14   C     C_R   0.527087 0.132304 0.548809 0.276186
C15   C     C_R   0.462717 0.972858 0.476076 -0.003521
C16   C     C_R   0.534081 0.027023 0.528583 -0.003953
C17   C     C_R   0.942822 0.597399 0.579233 -0.281792
C18   C     C_R   0.057216 0.402669 0.420699 -0.282695
C19   C     C_R   0.823872 0.587863 0.572013 0.122600
C20   C     C_R   0.176099 0.412079 0.428035 0.133143
C21   C     C_R   0.858300 0.457793 0.466199 0.168549
C22   C     C_R   0.141850 0.542498 0.533540 0.137708
C23   C     C_R   0.425144 0.488060 0.668451 0.887858
C24   C     C_R   0.574917 0.511646 0.331399 0.916360
C25   C     C_R   0.978704 0.464653 0.471269 0.068960
C26   C     C_R   0.021396 0.535537 0.528555 0.071923
C27   C     C_R   0.376611 0.469757 0.765422 -0.176250
C28   C     C_R   0.622626 0.532365 0.234379 -0.211165
C29   C     C_R   0.221541 0.398696 0.900583 0.258690
C30   C     C_R   0.771796 0.610213 0.098870 0.329452
C31   C     C_R   0.263104 0.404864 0.806984 0.200190
C32   C     C_R   0.736712 0.596562 0.192150 0.341115
C33   C     C_R   0.451518 0.515001 0.816287 -0.250559
C34   C     C_R   0.544228 0.492085 0.184277 -0.305407
C35   C     C_R   0.421805 0.494313 0.907648 0.060986
C36   C     C_R   0.567004 0.522969 0.095334 0.062363
C37   C     C_R   0.305864 0.434074 0.949681 -0.005111
C38   C     C_R   0.681999 0.584318 0.053031 -0.026779
C39   C     C_R   0.506460 0.528714 0.957469 0.111042
C40   C     C_R   0.478442 0.494906 0.047491 0.117155
Cu1   Cu    Cu3+1 0.386820 0.492450 0.493500 1.035270
Cu2   Cu    Cu3+1 0.613180 0.507550 0.506500 1.045163
H1    H     H_    0.194760 0.355802 0.073814 0.214277
H2    H     H_    0.784588 0.677846 0.934480 0.210761
H3    H     H_    0.236035 0.363906 0.389002 0.112119
H4    H     H_    0.763878 0.635929 0.611140 0.112753
H5    H     H_    0.972989 0.652681 0.623978 0.151371
H6    H     H_    0.027026 0.347341 0.375993 0.150075
H7    H     H_    0.462424 0.439806 0.218509 0.168423
H8    H     H_    0.537118 0.561388 0.780933 0.160400
H9    H     H_    0.331435 0.408219 0.154824 0.144624
H10   H     H_    0.642923 0.632840 0.855495 0.141142
H11   H     H_    0.331597 0.168680 0.429719 0.173860
H12   H     H_    0.664871 0.830364 0.574373 0.174072
H13   H     H_    0.676160 0.014200 0.591241 0.203449
H14   H     H_    0.318730 0.984467 0.415083 0.217814
H15   H     H_    0.175771 0.596588 0.577477 0.108205
H16   H     H_    0.824442 0.403835 0.422148 0.117468
N1    N     N_R   0.216750 0.481110 0.483710 -0.175749
N2    N     N_R   0.783250 0.518890 0.516290 -0.178634
O1    O     O_R   0.419950 0.645670 0.495380 -0.551461
O2    O     O_R   0.580050 0.354330 0.504620 -0.565376
O3    O     O_R   0.611110 0.658410 0.506370 -0.596692
O4    O     O_R   0.388890 0.341590 0.493630 -0.572868
O5    O     O_R   0.350820 0.490050 0.621260 -0.579284
O6    O     O_R   0.649180 0.509950 0.378740 -0.540180
O7    O     O_R   0.541970 0.502800 0.632250 -0.570786
O8    O     O_R   0.458030 0.497200 0.367750 -0.594168
S1    S     S_3+6 0.825595 0.671320 0.255420 0.093453
O9    O     O_2   0.893444 0.601648 0.289990 -0.263360
O10   O     O_2   0.914562 0.761441 0.202589 -0.183635
O11   O     O_3   0.734362 0.722351 0.340113 -0.514058
H17   H     H_    0.789937 0.766513 0.369076 0.370453
S2    S     S_3+6 0.184998 0.318484 0.743255 0.112291
O12   O     O_2   0.275094 0.280194 0.667997 -0.251898
O13   O     O_2   0.108137 0.224049 0.797591 -0.130088
O14   O     O_3   0.095784 0.380383 0.702465 -0.471791
H18   H     H_    0.115107 0.454643 0.716729 0.308900
S3    S     S_3+6 0.064860 0.350549 0.956839 0.092669
O15   O     O_2   0.050855 0.238202 0.985122 -0.191059
O16   O     O_2   0.024612 0.411841 0.037553 -0.255279
O17   O     O_3   0.972188 0.358506 0.893302 -0.398927
H19   H     H_    0.990582 0.432584 0.872715 0.361729
S4    S     S_3+6 0.927811 0.651869 0.038281 0.077571
O18   O     O_2   0.954442 0.599159 0.951608 -0.328649
O19   O     O_2   0.952118 0.768054 0.020762 -0.227419
O20   O     O_3   0.021610 0.621527 0.094199 -0.418417
H20   H     H_    0.104582 0.645518 0.054855 0.381040
S5    S     S_3+6 0.586901 0.193145 0.634183 0.063490
O21   O     O_2   0.519785 0.278071 0.674130 -0.223501
O22   O     O_2   0.573645 0.114838 0.706913 -0.233141
O23   O     O_3   0.734887 0.245516 0.592238 -0.487319
H21   H     H_    0.765445 0.202373 0.541762 0.313082
S6    S     S_3+6 0.413492 0.809715 0.367668 0.024426
O24   O     O_2   0.281064 0.763435 0.404655 -0.298990
O25   O     O_2   0.427903 0.890187 0.296272 -0.268138
O26   O     O_3   0.489213 0.715926 0.321248 -0.503355
H22   H     H_    0.451275 0.689196 0.274442 0.376862

loop_
_geom_bond_atom_site_label_1
_geom_bond_atom_site_label_2
_ccdc_geom_bond_type
O20   H20   S    
C8    C13   A    
C5    C37   A    
C1    C8    S    
Cu1   Cu2   S    
C2    C7    S    
S4    O20   S    
Cu1   O1    S    
C22   H15   S    
O26   H22   S    
C19   H4    S    
O14   H18   S    
C27   C33   A    
S2    O13   D    
C4    H10   S    
C17   C26   A    
C35   C37   A    
C9    C16   A    
S4    O19   D    
C10   C15   A    
C15   C16   A    
C30   C38   A    
C23   O7    A    
S1    O10   D    
C33   C35   A    
C7    C14   A    
S2    O14   S    
C6    C38   A    
C9    H13   S    
C23   C27   S    
S5    O22   D    
C10   H14   S    
Cu2   O2    S    
C18   C20   A    
C12   H11   S    
C24   O6    A    
C5    H1    S    
C28   C34   A    
C6    H2    S    
S6    O24   D    
C18   C25   A    
C1    O3    A    
C2    O4    A    
Cu1   O8    S    
C7    C12   A    
S2    O12   D    
C27   C31   A    
C17   H5    S    
C28   C32   A    
S4    O18   D    
Cu1   N1    S    
C21   N2    A    
C4    C6    A    
C20   H3    S    
Cu2   N2    S    
C22   N1    A    
S3    O16   D    
C3    H9    S    
C31   S2    S    
Cu1   O5    S    
S6    O26   S    
C33   H8    S    
C18   H6    S    
S5    O23   S    
S1    O11   S    
C35   C39   A    
C14   S5    S    
C29   S3    S    
C4    C39   A    
C36   C40   A    
C20   N1    A    
S6    O25   D    
C9    C11   A    
C11   H12   S    
C10   C12   A    
C3    C40   A    
C13   C15   A    
Cu2   O7    S    
C14   C16   A    
C39   C40   A    
C21   C25   A    
C34   H7    S    
C24   C28   S    
O11   H17   S    
C3    C5    A    
C1    O1    A    
S3    O17   S    
C32   S1    S    
C19   N2    A    
C13   S6    S    
C23   O5    A    
C36   C38   A    
C25   C26   A    
C21   H16   S    
C29   C31   A    
C30   C32   A    
C8    C11   A    
O23   H21   S    
C17   C19   A    
C34   C36   A    
C30   S4    S    
S1    O9    D    
C24   O8    A    
S3    O15   D    
O17   H19   S    
C22   C26   A    
C29   C37   A    
Cu2   O6    S    
Cu1   O4    S    
S5    O21   D    
Cu2   O3    S    
C2    O2    A    
