data_mof_unit_14443.cif
_audit_creation_date              2013-03-05T16:33:13-0500
_audit_creation_method            fapswitch 2.2
_symmetry_space_group_name_H-M    P1
_symmetry_Int_Tables_number       1
_space_group_crystal_system       triclinic
_cell_length_a                    27.782928
_cell_length_b                    10.792709
_cell_length_c                    9.57571
_cell_angle_alpha                 90.583644
_cell_angle_beta                  90.565182
_cell_angle_gamma                 91.440164
_cell_volume                      2870.10290581

loop_
_atom_site_label
_atom_site_type_symbol
_atom_site_description
_atom_site_fract_x
_atom_site_fract_y
_atom_site_fract_z
_atom_type_partial_charge
O1    O     O_R   0.500000 0.319640 0.618810 -0.593592
O2    O     O_R   0.500010 0.319680 0.381230 -0.510380
C1    C     C_R   0.501373 0.262506 0.499916 0.830210
O3    O     O_R   0.430260 0.500000 0.618780 -0.589782
O4    O     O_R   0.430270 0.500040 0.381190 -0.526100
C2    C     C_R   0.407486 0.500823 0.499385 0.866584
Cu1   Cu    Cu3+1 0.500000 0.499980 0.640670 0.956765
Cu2   Cu    Cu3+1 0.500000 0.500020 0.359330 1.013234
O5    O     O_R   0.499990 0.680320 0.618770 -0.579240
O6    O     O_R   0.500000 0.680360 0.381190 -0.582846
O7    O     O_R   0.569730 0.499960 0.618810 -0.583288
O8    O     O_R   0.569740 0.500000 0.381220 -0.594802
C3    C     C_R   0.501218 0.737609 0.500653 0.793691
C4    C     C_R   0.592557 0.498803 0.500531 0.787662
C5    C     C_R   0.176904 0.399866 0.532602 0.609126
O9    O     O_2   0.201618 0.298118 0.565909 -0.485763
N1    N     N_R   0.201765 0.504243 0.494146 -0.461726
C6    C     C_R   0.179174 0.610690 0.459703 0.651959
C7    C     C_R   0.278760 0.513947 0.619883 -0.136097
C8    C     C_R   0.328867 0.512784 0.622333 -0.189185
C9    C     C_R   0.329019 0.490445 0.370138 -0.214239
C10   C     C_R   0.278671 0.489464 0.366876 0.453064
C11   C     C_R   0.253418 0.502731 0.493055 0.217852
C12   C     C_R   0.101813 0.504260 0.488231 -0.085860
C13   C     C_R   0.126186 0.398055 0.535272 -0.044818
C14   C     C_R   0.098841 0.295258 0.585090 -0.048004
C15   C     C_R   0.128308 0.612856 0.449180 -0.132165
C16   C     C_R   0.354458 0.501433 0.497418 -0.129404
H1    H     H_    0.348371 0.481893 0.273111 0.234955
C17   C     C_R   0.645637 0.495296 0.501097 -0.045290
C18   C     C_R   0.974029 0.383693 0.486355 -0.077449
C19   C     C_R   0.974873 0.610660 0.462609 0.082603
C20   C     C_R   0.949137 0.496413 0.477407 0.038204
C21   C     C_R   0.946989 0.269845 0.471243 0.364670
C22   C     C_R   0.896810 0.270516 0.480295 -0.184501
C23   C     C_R   0.872218 0.381709 0.488957 -0.081729
C24   C     C_R   0.898199 0.494966 0.482714 -0.050336
C25   C     C_R   0.873185 0.606866 0.481831 -0.005320
C26   C     C_R   0.822773 0.603356 0.489512 0.553881
N2    N     N_R   0.798266 0.492233 0.496718 -0.471879
C27   C     C_R   0.821743 0.382413 0.496066 0.581242
C28   C     C_R   0.720700 0.483487 0.374406 -0.105367
C29   C     C_R   0.670609 0.485346 0.374728 -0.207841
C30   C     C_R   0.671852 0.501008 0.627444 -0.242039
C31   C     C_R   0.722180 0.499242 0.627467 0.020462
C32   C     C_R   0.746686 0.490998 0.500114 0.310717
O10   O     O_2   0.796282 0.274471 0.501762 -0.519097
C33   C     C_R   0.024525 0.390833 0.510278 0.068631
C34   C     C_R   0.050680 0.501725 0.481720 0.085350
C35   C     C_R   0.025781 0.610414 0.450072 -0.011119
C36   C     C_R   0.048886 0.294387 0.574439 -0.124743
H2    H     H_    0.651558 0.478558 0.275878 0.153276
H3    H     H_    0.739477 0.476702 0.276152 0.154369
H4    H     H_    0.876721 0.183298 0.473940 0.205043
H5    H     H_    0.028846 0.219011 0.621461 0.192694
O11   O     O_2   0.206440 0.713463 0.438732 -0.418102
C37   C     C_R   0.102638 0.717743 0.402010 0.376389
H6    H     H_    0.347516 0.521489 0.721940 0.188915
H7    H     H_    0.259427 0.523562 0.716901 0.172032
C38   C     C_R   0.948791 0.721413 0.462906 -0.175236
C39   C     C_R   0.898913 0.719403 0.473155 -0.126174
O12   O     O_2   0.798360 0.709904 0.489197 -0.521239
C40   C     C_R   0.052387 0.715362 0.406945 -0.260641
H8    H     H_    0.966218 0.811564 0.460463 0.204359
H9    H     H_    0.653344 0.507019 0.725962 0.149338
H10   H     H_    0.880563 0.806772 0.474232 0.187742
H11   H     H_    0.034161 0.795778 0.370283 0.203498
C41   C     C_R   0.496156 0.064490 0.624011 0.096804
C42   C     C_R   0.506522 0.129660 0.502334 -0.105806
C43   C     C_R   0.525005 0.065064 0.387572 -0.136641
H12   H     H_    0.538421 0.113886 0.297316 0.194828
C44   C     C_R   0.524304 0.935579 0.387052 -0.187167
H13   H     H_    0.536084 0.886584 0.294808 0.159530
C45   C     C_R   0.506431 0.871015 0.503204 -0.093016
C46   C     C_R   0.496280 0.937208 0.624614 0.102010
C47   C     C_3   0.453550 0.928612 0.717753 -0.422396
C48   C     C_3   0.453459 0.069364 0.717294 -0.400813
H14   H     H_    0.421477 0.884769 0.665103 0.206754
H15   H     H_    0.462764 0.889849 0.821492 0.212146
H16   H     H_    0.421314 0.107689 0.664610 0.209267
H17   H     H_    0.462689 0.111397 0.820851 0.238339
C49   C     C_R   0.520384 0.596939 0.075445 0.188747
N3    N     N_R   0.500300 0.500930 0.147930 -0.252135
C50   C     C_R   0.473582 0.412218 0.068486 0.464487
C51   C     C_R   0.474721 0.413764 0.920652 -0.117746
H18   H     H_    0.456091 0.342784 0.859038 0.190824
N4    N     N_R   0.500310 0.500890 0.852020 -0.224111
C52   C     C_R   0.520313 0.596913 0.928475 0.239309
C53   C     C_3   0.571299 0.642507 0.924359 -0.470711
C54   C     C_3   0.571447 0.642246 0.082951 -0.470585
H19   H     H_    0.595613 0.573171 0.879127 0.208051
H20   H     H_    0.574681 0.736971 0.879739 0.200989
H21   H     H_    0.595888 0.572846 0.127403 0.209343
H22   H     H_    0.575081 0.736588 0.129941 0.194995
S1    S     S_3+6 0.130010 0.853501 0.329775 0.109787
O13   O     O_2   0.156613 0.925297 0.442893 -0.168902
O14   O     O_2   0.164806 0.818456 0.217649 -0.190891
O15   O     O_3   0.088609 0.946238 0.259632 -0.456005
H23   H     H_    0.078266 0.904414 0.171374 0.357420
C55   C     C_1   0.748268 0.506308 0.758402 0.273116
N5    N     N_1   0.769226 0.511973 0.863407 -0.255881
S2    S     S_3+6 0.248372 0.470776 0.204376 0.050021
O16   O     O_2   0.206459 0.381121 0.218221 -0.243937
O17   O     O_2   0.230252 0.594175 0.158975 -0.235406
O18   O     O_3   0.286179 0.416953 0.083069 -0.504836
H24   H     H_    0.267419 0.416237 0.994531 0.380204
S3    S     S_3+6 0.440050 0.279878 0.130259 0.017750
O19   O     O_2   0.400307 0.249752 0.026627 -0.286137
O20   O     O_2   0.473417 0.172667 0.130847 -0.345736
O21   O     O_3   0.413711 0.289633 0.286420 -0.508142
H25   H     H_    0.401583 0.204559 0.306131 0.372870
C56   C     C_1   0.120009 0.189920 0.652227 0.437866
N6    N     N_1   0.136716 0.105476 0.706245 -0.146978
S4    S     S_3+6 0.971615 0.129341 0.408743 0.005056
O22   O     O_2   0.017888 0.153762 0.332645 -0.191541
O23   O     O_2   0.980756 0.044408 0.529095 -0.345690
O24   O     O_3   0.932364 0.058691 0.296973 -0.496247
H26   H     H_    0.912433 0.002275 0.354850 0.343819

loop_
_geom_bond_atom_site_label_1
_geom_bond_atom_site_label_2
_geom_bond_distance
_ccdc_geom_bond_type
N4    C52   1.366170 A    
Cu2   N3    2.024528 S    
C7    C8    1.392462 A    
C47   H15   1.111843 S    
S4    O22   1.502861 D    
C30   H9    1.081012 S    
S1    O15   1.682931 S    
Cu1   Cu2   2.694034 S    
C51   H18   1.080601 S    
C41   C46   1.373882 A    
Cu1   O7    1.950636 S    
N1    C11   1.435714 S    
C23   C24   1.405972 A    
C1    C42   1.444859 S    
C47   H14   1.112298 S    
C28   H3    1.083014 S    
O4    C2    1.302285 A    
O7    C4    1.303627 A    
C29   H2    1.080862 S    
C5    C13   1.409235 A    
C5    O9    1.348995 S    
O15   H23   0.990698 S    
C12   C34   1.420919 A    
C50   S3    1.794169 S    
S2    O18   1.682583 S    
Cu1   O5    1.959750 S    
C21   C22   1.397860 A    
C28   C32   1.398125 A    
O5    C3    1.294869 A    
O21   H25   0.990674 S    
C39   H10   1.083164 S    
C33   C36   1.399747 A    
C2    C16   1.473391 S    
S1    O13   1.502787 D    
C41   C42   1.395826 A    
S3    O19   1.504480 D    
C18   C20   1.417343 A    
C12   C13   1.420862 A    
C54   H22   1.110860 S    
C43   H12   1.081337 S    
C53   H19   1.108367 S    
C6    O11   1.345284 S    
C25   C39   1.397370 A    
C9    C10   1.398610 A    
C22   H4    1.083073 S    
C35   C40   1.404769 A    
S3    O20   1.500735 D    
C17   C30   1.406021 A    
C23   C27   1.404858 A    
S2    O16   1.502942 D    
C4    C17   1.476117 S    
O3    Cu1   1.946838 S    
C56   N6    1.157480 T    
C37   C40   1.396977 A    
C51   N4    1.345274 A    
C40   H11   1.075979 S    
C45   C46   1.393259 A    
C50   C51   1.416540 A    
C44   C45   1.406594 A    
C15   C37   1.427847 A    
C26   N2    1.366854 A    
C8    C16   1.403366 A    
C7    H7    1.083063 S    
C13   C14   1.418180 A    
C31   C32   1.405654 A    
C9    H1    1.082334 S    
O6    C3    1.294334 A    
C20   C24   1.416314 A    
C38   C39   1.389846 A    
O1    C1    1.290580 A    
C22   C23   1.397925 A    
C7    C11   1.400412 A    
C46   C47   1.493473 S    
C24   C25   1.408498 A    
N3    C50   1.408804 A    
C48   H17   1.111232 S    
Cu2   O8    1.946833 S    
C12   C15   1.423501 A    
N1    C6    1.364727 A    
C27   O10   1.349518 S    
C18   C21   1.429301 A    
C47   C48   1.519209 S    
C53   H20   1.111612 S    
S2    O17   1.502440 D    
C19   C35   1.420703 A    
O3    C2    1.301449 A    
N2    C27   1.367167 A    
C9    C16   1.405315 A    
O8    C4    1.301436 A    
C34   C35   1.410789 A    
C18   C33   1.419331 A    
S3    O21   1.674794 S    
C17   C29   1.405284 A    
C28   C29   1.392337 A    
N2    C32   1.433447 S    
C8    H6    1.083054 S    
C14   C56   1.446621 S    
C30   C31   1.398855 A    
C54   H21   1.108896 S    
C48   H16   1.112260 S    
C41   C48   1.493620 S    
C5    N1    1.362370 A    
C26   O12   1.349684 S    
C33   C34   1.414948 A    
O1    Cu1   1.955460 S    
O2    Cu2   1.959752 S    
C6    C15   1.416607 A    
C44   H13   1.082521 S    
C31   C55   1.442395 S    
C10   S2    1.769139 S    
O4    Cu2   1.950639 S    
S4    O23   1.503448 D    
S1    O14   1.503684 D    
C21   S4    1.779757 S    
O18   H24   0.990679 S    
C49   C54   1.489736 S    
C38   H8    1.076405 S    
C19   C20   1.418796 A    
O2    C1    1.299406 A    
O24   H26   0.990205 S    
C25   C26   1.402828 A    
C49   C52   1.407324 A    
C55   N5    1.157242 T    
C36   H5    1.078963 S    
C42   C43   1.403887 A    
S4    O24   1.683652 S    
Cu1   N4    2.023683 S    
C52   C53   1.488883 S    
Cu2   O6    1.955459 S    
C49   N3    1.363840 A    
C37   S1    1.782858 S    
C19   C38   1.413295 A    
C10   C11   1.410991 A    
C43   C44   1.397099 A    
C53   C54   1.518623 S    
C14   C36   1.390418 A    
C3    C45   1.443393 S    
