data_mof_unit_27216.cif
_audit_creation_date              2012-10-26T19:23:28-0400
_audit_creation_method            fapswitch 2.2
_symmetry_space_group_name_H-M    P1
_symmetry_Int_Tables_number       1
_space_group_crystal_system       triclinic
_cell_length_a                    27.835316
_cell_length_b                    12.998175
_cell_length_c                    11.656402
_cell_angle_alpha                 99.816289
_cell_angle_beta                  93.474983
_cell_angle_gamma                 90.337424
_cell_volume                      4147.43333741

loop_
_atom_site_label
_atom_site_type_symbol
_atom_type_description
_atom_site_fract_x
_atom_site_fract_y
_atom_site_fract_z
_atom_type_partial_charge
C1    C     C_R   0.499472 0.299051 0.478658 0.541820
C2    C     C_R   0.871653 0.403311 0.470050 0.024208
C3    C     C_R   0.354372 0.496381 0.499759 0.003517
C4    C     C_R   0.645461 0.503223 0.496059 0.004102
C5    C     C_R   0.973253 0.400702 0.461252 0.016673
C6    C     C_R   0.025035 0.592903 0.480943 0.016572
C7    C     C_R   0.973934 0.591848 0.470761 0.016830
C8    C     C_R   0.024037 0.400425 0.454729 0.016731
C9    C     C_R   0.948358 0.496189 0.465810 0.032534
C10   C     C_R   0.049797 0.496873 0.469339 0.032373
C11   C     C_R   0.946381 0.308824 0.465441 -0.144259
C12   C     C_R   0.500451 0.700956 0.521365 0.542015
C13   C     C_R   0.052427 0.686995 0.504470 -0.144570
C14   C     C_R   0.896622 0.310445 0.470456 -0.116123
C15   C     C_R   0.102443 0.686473 0.512357 -0.116333
C16   C     C_R   0.407423 0.497514 0.500371 0.547425
C17   C     C_R   0.592562 0.502376 0.499569 0.547492
C18   C     C_R   0.050168 0.306788 0.433850 -0.145039
C19   C     C_R   0.947305 0.683374 0.465113 -0.144974
C20   C     C_R   0.500630 0.814350 0.533774 -0.001302
C21   C     C_R   0.499113 0.185678 0.466357 -0.001587
C22   C     C_R   0.496269 0.015147 0.344175 -0.138560
C23   C     C_R   0.100896 0.497296 0.473026 -0.029211
C24   C     C_R   0.503162 0.984884 0.656023 -0.146038
C25   C     C_R   0.496446 0.123259 0.355240 -0.137255
C26   C     C_R   0.502846 0.876750 0.644903 -0.140159
C27   C     C_R   0.501478 0.139345 0.566462 -0.135075
C28   C     C_R   0.498480 0.860717 0.433716 -0.132121
C29   C     C_R   0.501104 0.031311 0.556121 0.045048
C30   C     C_R   0.498607 0.968746 0.444097 0.048855
C31   C     C_R   0.459316 0.392886 0.021222 -0.177669
C32   C     C_R   0.540471 0.607488 0.978819 -0.175986
C33   C     C_R   0.462495 0.404511 0.143650 0.045321
C34   C     C_R   0.897345 0.496171 0.466313 -0.028897
C35   C     C_R   0.536891 0.596423 0.856478 0.041314
C36   C     C_R   0.516936 0.547574 0.157420 0.046366
C37   C     C_R   0.483571 0.451733 0.842629 0.042844
C38   C     C_R   0.514627 0.539243 0.034486 0.009354
C39   C     C_R   0.485592 0.460467 0.965583 0.008054
C40   C     C_R   0.176353 0.404837 0.457506 0.377217
C41   C     C_R   0.821584 0.587521 0.464622 0.376887
C42   C     C_R   0.177600 0.590890 0.502468 0.406896
C43   C     C_R   0.821406 0.405877 0.475206 0.406923
C44   C     C_R   0.278665 0.542636 0.405103 0.026601
C45   C     C_R   0.125886 0.402675 0.454808 0.023971
C46   C     C_R   0.715132 0.440714 0.387785 0.027337
C47   C     C_R   0.328993 0.543125 0.414751 -0.164639
C48   C     C_R   0.665408 0.442273 0.399686 -0.164484
C49   C     C_R   0.328405 0.447399 0.577433 -0.031535
C50   C     C_R   0.676310 0.565103 0.582789 -0.031323
C51   C     C_R   0.278013 0.451881 0.570914 -0.059513
C52   C     C_R   0.726193 0.559086 0.573119 -0.059987
C53   C     C_R   0.252986 0.498038 0.485586 0.217394
C54   C     C_R   0.745835 0.498418 0.476814 0.217299
C55   C     C_3   0.352008 0.382247 0.660752 -0.250176
C56   C     C_R   0.871975 0.589230 0.464182 0.024256
C57   C     C_3   0.369614 0.278558 0.593878 -0.284747
C58   C     C_3   0.385485 0.203768 0.676105 -0.449712
C59   C     C_3   0.658048 0.644663 0.680503 -0.250813
C60   C     C_3   0.636993 0.739085 0.632884 -0.284169
C61   C     C_3   0.625299 0.827182 0.731022 -0.449509
C62   C     C_R   0.734047 0.380016 0.280953 0.062195
C63   C     C_R   0.721239 0.274039 0.245861 -0.065910
C64   C     C_R   0.739248 0.216562 0.145520 -0.105309
C65   C     C_R   0.769936 0.264403 0.079167 -0.097058
C66   C     C_R   0.782527 0.369925 0.112786 -0.113715
C67   C     C_R   0.100079 0.308120 0.433429 -0.117163
C68   C     C_R   0.764569 0.427729 0.212973 -0.087576
C69   C     C_R   0.253772 0.587174 0.309077 0.061103
C70   C     C_R   0.264661 0.689503 0.293711 -0.065997
C71   C     C_R   0.240998 0.731855 0.203707 -0.103699
C72   C     C_R   0.206521 0.672367 0.128066 -0.097719
C73   C     C_R   0.195775 0.570261 0.142012 -0.115243
C74   C     C_R   0.219379 0.527552 0.231796 -0.088002
C75   C     C_R   0.897313 0.681788 0.461396 -0.117070
C76   C     C_R   0.127094 0.592316 0.495715 0.024091
Cu1   Cu    Cu3+1 0.503580 0.507730 0.615930 0.927888
Cu2   Cu    Cu3+1 0.496420 0.492270 0.384070 0.926918
H1    H     H_    0.504477 0.842115 0.723203 0.129092
H2    H     H_    0.563003 0.669302 0.029317 0.084130
H3    H     H_    0.257541 0.416217 0.630385 0.132591
H4    H     H_    0.750383 0.604483 0.639347 0.131788
H5    H     H_    0.118405 0.234243 0.417075 0.163027
H6    H     H_    0.878598 0.754077 0.457493 0.163145
H7    H     H_    0.641917 0.396768 0.331834 0.126304
H8    H     H_    0.348592 0.578692 0.353587 0.127772
H9    H     H_    0.877763 0.238125 0.474515 0.162752
H10   H     H_    0.121746 0.760645 0.531234 0.162852
H11   H     H_    0.962938 0.234609 0.468878 0.108299
H12   H     H_    0.494582 0.157858 0.276909 0.127671
H13   H     H_    0.036236 0.762749 0.521023 0.108638
H14   H     H_    0.032960 0.230810 0.414577 0.108309
H15   H     H_    0.964068 0.757401 0.460641 0.108140
H16   H     H_    0.496708 0.812981 0.347595 0.118383
H17   H     H_    0.503444 0.187107 0.652569 0.120455
H18   H     H_    0.415778 0.238146 0.736954 0.134832
H19   H     H_    0.355042 0.185703 0.727162 0.156904
H20   H     H_    0.397555 0.129701 0.624434 0.158299
H21   H     H_    0.340026 0.240144 0.532824 0.179956
H22   H     H_    0.400229 0.293105 0.541795 0.171484
H23   H     H_    0.494292 0.967972 0.257814 0.102205
H24   H     H_    0.381638 0.426386 0.715672 0.165648
H25   H     H_    0.325674 0.364312 0.722980 0.133230
H26   H     H_    0.598108 0.800754 0.785809 0.138521
H27   H     H_    0.658336 0.854100 0.786512 0.154191
H28   H     H_    0.610572 0.894099 0.693145 0.157815
H29   H     H_    0.663454 0.769327 0.578501 0.179790
H30   H     H_    0.603700 0.715594 0.577120 0.171222
H31   H     H_    0.631494 0.608688 0.729170 0.165740
H32   H     H_    0.688123 0.672940 0.745727 0.132673
H33   H     H_    0.697778 0.235687 0.296890 0.116324
H34   H     H_    0.505002 0.032046 0.742385 0.102602
H35   H     H_    0.729466 0.134850 0.119302 0.109381
H36   H     H_    0.783856 0.219781 0.001543 0.117939
H37   H     H_    0.806096 0.407055 0.060992 0.116216
H38   H     H_    0.774171 0.509735 0.236926 0.135488
H39   H     H_    0.291038 0.736822 0.352198 0.117127
H40   H     H_    0.249340 0.810894 0.192724 0.114486
H41   H     H_    0.188226 0.705291 0.058470 0.118526
H42   H     H_    0.169246 0.524054 0.083007 0.115387
H43   H     H_    0.211080 0.447879 0.240461 0.135156
H44   H     H_    0.461607 0.391336 0.788770 0.105869
H45   H     H_    0.539562 0.607224 0.211250 0.115511
H46   H     H_    0.556290 0.650162 0.814518 0.113746
H47   H     H_    0.442203 0.351961 0.185766 0.125028
H48   H     H_    0.436518 0.331591 0.970633 0.081701
N1    N     N_R   0.201192 0.498074 0.481336 -0.398636
N2    N     N_R   0.797338 0.496853 0.470910 -0.398854
N3    N     N_R   0.508960 0.519350 0.790140 -0.225810
N4    N     N_R   0.491040 0.480650 0.209860 -0.229296
O1    O     O_R   0.502540 0.354460 0.582000 -0.510505
O2    O     O_2   0.796936 0.675751 0.458526 -0.519669
O3    O     O_2   0.796836 0.318438 0.485521 -0.504061
O4    O     O_2   0.202953 0.681451 0.530453 -0.504401
O5    O     O_R   0.497460 0.645540 0.418000 -0.512152
O6    O     O_R   0.496500 0.341410 0.386200 -0.510872
O7    O     O_R   0.503500 0.658590 0.613800 -0.509535
O8    O     O_R   0.433290 0.506540 0.597890 -0.501128
O9    O     O_R   0.566710 0.493460 0.402110 -0.504129
O10   O     O_R   0.427240 0.493490 0.402090 -0.503723
O11   O     O_R   0.572760 0.506510 0.597910 -0.499826
O12   O     O_2   0.200451 0.314483 0.435686 -0.519947

loop_
_geom_bond_atom_site_label_1
_geom_bond_atom_site_label_2
_ccdc_geom_bond_type
C33   N4    A    
C66   C68   A    
C34   C56   A    
C23   C45   A    
C40   O12   S    
C27   C29   A    
C65   H36   S    
C27   H17   S    
C58   H20   S    
C23   C76   A    
Cu2   O9    S    
C3    C49   A    
Cu1   Cu2   S    
C1    C21   S    
C55   H24   S    
C25   H12   S    
C29   C30   A    
C22   H23   S    
C46   C62   S    
C50   C59   S    
C28   H16   S    
C35   H46   S    
Cu1   O7    S    
C14   H9    S    
C5    C11   A    
Cu1   O1    S    
C38   C39   A    
C11   C14   A    
C75   H6    S    
C70   H39   S    
C57   H21   S    
C55   H25   S    
C59   H32   S    
C17   O11   A    
C73   C74   A    
C3    C47   A    
C43   O3    S    
C58   H18   S    
C24   C29   A    
C21   C25   A    
C53   N1    S    
C44   C53   A    
C31   C39   A    
C49   C51   A    
C12   O5    A    
C24   H34   S    
C45   C67   A    
C50   C52   A    
C31   C33   A    
C70   C71   A    
C32   C38   A    
C1    O6    A    
C61   H27   S    
Cu2   O5    S    
C51   H3    S    
Cu2   O10   S    
C60   H30   S    
C44   C47   A    
C61   H26   S    
C2    C34   A    
C15   C76   A    
C21   C27   A    
C59   C60   S    
C73   H42   S    
C13   H13   S    
C41   N2    A    
C12   C20   S    
C16   O10   A    
C58   H19   S    
C52   C54   A    
C40   C45   A    
C46   C48   A    
C66   H37   S    
C32   C35   A    
C69   C74   A    
C36   H45   S    
Cu1   O8    S    
C20   C28   A    
C18   C67   A    
C49   C55   S    
C40   N1    A    
C54   N2    S    
C22   C25   A    
C8    C18   A    
C63   C64   A    
C4    C50   A    
C60   C61   S    
C51   C53   A    
C47   H8    S    
C41   C56   A    
C5    C9    A    
C62   C63   A    
C36   N4    A    
C32   H2    S    
C11   H11   S    
C13   C15   A    
C2    C43   A    
C46   C54   A    
C33   H47   S    
C44   C69   S    
C17   O9    A    
Cu1   N3    S    
C67   H5    S    
C52   H4    S    
C61   H28   S    
C60   H29   S    
C42   N1    A    
C68   H38   S    
C4    C17   S    
C7    C19   A    
C55   C57   S    
C9    C34   A    
C5    C8    A    
C36   C38   A    
C4    C48   A    
C7    C9    A    
C35   N3    A    
C64   H35   S    
C22   C30   A    
C71   H40   S    
C48   H7    S    
C16   O8    A    
C24   C26   A    
C72   C73   A    
C1    O1    A    
C19   H15   S    
C43   N2    A    
C6    C10   A    
C41   O2    S    
C6    C7    A    
C10   C23   A    
C42   C76   A    
C26   H1    S    
C62   C68   A    
C42   O4    S    
C18   H14   S    
C64   C65   A    
C19   C75   A    
Cu2   N4    S    
C71   C72   A    
C37   C39   A    
C6    C13   A    
C57   H22   S    
C57   C58   S    
C20   C26   A    
C72   H41   S    
C28   C30   A    
C59   H31   S    
C37   N3    A    
C63   H33   S    
C69   C70   A    
C2    C14   A    
Cu1   O11   S    
C37   H44   S    
C74   H43   S    
C8    C10   A    
C65   C66   A    
C56   C75   A    
C12   O7    A    
C31   H48   S    
Cu2   O6    S    
C3    C16   S    
C15   H10   S    
