data_mof_unit_28238.cif
_audit_creation_date              2012-10-26T20:42:28-0400
_audit_creation_method            fapswitch 2.2
_symmetry_space_group_name_H-M    P1
_symmetry_Int_Tables_number       1
_space_group_crystal_system       triclinic
_cell_length_a                    10.857022
_cell_length_b                    9.500032
_cell_length_c                    10.933491
_cell_angle_alpha                 90.016021
_cell_angle_beta                  90.346533
_cell_angle_gamma                 89.721744
_cell_volume                      1127.66878629

loop_
_atom_site_label
_atom_site_type_symbol
_atom_type_description
_atom_site_fract_x
_atom_site_fract_y
_atom_site_fract_z
_atom_type_partial_charge
C1    C     C_R   0.261908 0.501110 0.505076 0.544547
C2    C     C_R   0.936806 0.376706 0.504242 -0.165600
C3    C     C_R   0.871840 0.502690 0.486758 0.012494
C4    C     C_R   0.127423 0.505177 0.508892 0.010765
C5    C     C_R   0.936727 0.630603 0.469818 -0.000179
C6    C     C_R   0.060547 0.634480 0.507495 -0.000556
C7    C     C_R   0.426030 0.074857 0.421130 0.001351
C8    C     C_R   0.574211 0.074091 0.578655 0.001468
C9    C     C_R   0.426304 0.925914 0.420897 -0.010546
C10   C     C_R   0.574123 0.925131 0.578727 -0.007795
C11   C     C_3   0.880621 0.757748 0.403147 -0.240660
C12   C     C_R   0.737814 0.500264 0.493921 0.544430
C13   C     C_3   0.829867 0.718800 0.275810 -0.275843
C14   C     C_3   0.763043 0.843487 0.216962 -0.443021
C15   C     C_3   0.113169 0.772579 0.557284 -0.238209
C16   C     C_3   0.156822 0.758354 0.690980 -0.276404
C17   C     C_3   0.218218 0.893408 0.735420 -0.442440
C18   C     C_R   0.501677 0.500039 0.265193 0.550542
C19   C     C_R   0.498430 0.500083 0.734815 0.552674
C20   C     C_2   0.503187 0.384466 0.933045 -0.163241
C21   C     C_2   0.497534 0.384471 0.066916 -0.163081
C22   C     C_2   0.491927 0.502433 0.866704 -0.123582
C23   C     C_2   0.508694 0.502292 0.133344 -0.124547
C24   C     C_R   0.063923 0.377275 0.507313 -0.165884
Cu1   Cu    Cu3+1 0.500000 0.640660 0.500000 0.906752
Cu2   Cu    Cu3+1 0.500000 0.359340 0.500000 0.924237
H1    H     H_    0.514946 0.283164 0.888348 0.142473
H2    H     H_    0.633517 0.868545 0.641674 0.107897
H3    H     H_    0.683306 0.875945 0.273812 0.175324
H4    H     H_    0.826654 0.933902 0.206795 0.142558
H5    H     H_    0.728467 0.812843 0.124988 0.132604
H6    H     H_    0.907447 0.686005 0.216123 0.148437
H7    H     H_    0.764630 0.629682 0.280294 0.181085
H8    H     H_    0.809922 0.810092 0.460342 0.167495
H9    H     H_    0.951439 0.838916 0.385357 0.116121
H10   H     H_    0.300791 0.916427 0.679546 0.176493
H11   H     H_    0.152834 0.983462 0.729166 0.141899
H12   H     H_    0.485586 0.283308 0.111529 0.142593
H13   H     H_    0.247545 0.880722 0.832278 0.134213
H14   H     H_    0.076154 0.735895 0.749914 0.147634
H15   H     H_    0.223228 0.670330 0.702716 0.184410
H16   H     H_    0.186562 0.813052 0.496992 0.163035
H17   H     H_    0.041897 0.856572 0.559343 0.114641
H18   H     H_    0.475017 0.604327 0.907700 0.095102
H19   H     H_    0.525875 0.603975 0.092461 0.095100
H20   H     H_    0.112183 0.277360 0.512738 0.130027
H21   H     H_    0.889643 0.276989 0.512848 0.128846
H22   H     H_    0.366717 0.131411 0.358080 0.107365
H23   H     H_    0.633677 0.130046 0.641552 0.106059
H24   H     H_    0.367427 0.869969 0.357473 0.104438
N1    N     N_R   0.500000 0.852070 0.500000 -0.228749
N2    N     N_R   0.500000 0.147940 0.500000 -0.222697
O1    O     O_R   0.319640 0.618740 0.499990 -0.508385
O2    O     O_R   0.680360 0.618740 0.500010 -0.508079
O3    O     O_R   0.319620 0.381170 0.499990 -0.506822
O4    O     O_R   0.680380 0.381170 0.500010 -0.507573
O5    O     O_R   0.500000 0.618750 0.321940 -0.507218
O6    O     O_R   0.500000 0.618750 0.678060 -0.506345
O7    O     O_R   0.499970 0.381180 0.321940 -0.498813
O8    O     O_R   0.500030 0.381180 0.678060 -0.498839

loop_
_geom_bond_atom_site_label_1
_geom_bond_atom_site_label_2
_ccdc_geom_bond_type
Cu1   N1    S    
C13   H7    S    
C23   H19   S    
C17   H10   S    
Cu2   N2    S    
C2    H21   S    
Cu2   O7    S    
C8    N2    A    
C13   H6    S    
C9    N1    A    
C14   H5    S    
C1    C4    S    
C24   H20   S    
C7    H22   S    
C20   C21   S    
C11   H9    S    
C2    C3    A    
C1    O3    A    
C15   H17   S    
Cu1   Cu2   S    
C17   H11   S    
C13   C14   S    
Cu2   O3    S    
C11   C13   S    
C12   O4    A    
Cu1   O5    S    
C18   O7    A    
C14   H4    S    
C10   N1    A    
C16   H15   S    
C8    C10   A    
C20   H1    S    
C20   C22   D    
C7    N2    A    
C5    C11   S    
C21   C23   D    
C19   O6    A    
C2    C24   A    
C5    C6    A    
C4    C24   A    
C22   H18   S    
Cu1   O6    S    
C9    H24   S    
C14   H3    S    
C18   C23   S    
C16   H14   S    
C19   C22   S    
Cu1   O2    S    
C4    C6    A    
C17   H13   S    
C10   H2    S    
C7    C9    A    
C1    O1    A    
C19   O8    A    
C3    C12   S    
C18   O5    A    
C6    C15   S    
Cu2   O8    S    
C8    H23   S    
C11   H8    S    
C12   O2    A    
C21   H12   S    
C15   C16   S    
C15   H16   S    
Cu1   O1    S    
C16   C17   S    
C3    C5    A    
Cu2   O4    S    
