data_mof_unit_59604.cif
_audit_creation_date              2012-12-10T17:01:34-0500
_audit_creation_method            fapswitch 2.2
_symmetry_space_group_name_H-M    P1
_symmetry_Int_Tables_number       1
_space_group_crystal_system       triclinic
_cell_length_a                    9.880639
_cell_length_b                    11.154936
_cell_length_c                    13.00616
_cell_angle_alpha                 90.641799
_cell_angle_beta                  74.709314
_cell_angle_gamma                 111.314656
_cell_volume                      1282.45305956

loop_
_atom_site_label
_atom_site_type_symbol
_atom_type_description
_atom_site_fract_x
_atom_site_fract_y
_atom_site_fract_z
_atom_type_partial_charge
C1    C     C_R   0.440244 0.254839 0.505251 0.865045
C2    C     C_R   0.559756 0.745161 0.494749 0.865045
C3    C     C_2   0.082956 0.510656 0.492688 -0.046697
C4    C     C_2   0.917044 0.489343 0.507312 -0.046697
C5    C     C_R   0.472637 0.498046 0.703016 0.832957
C6    C     C_R   0.527362 0.501954 0.296984 0.832958
C7    C     C_R   0.543765 0.499863 0.181988 -0.042061
C8    C     C_R   0.456235 0.500137 0.818012 -0.042061
C9    C     C_R   0.319409 0.515223 0.999412 -0.241498
C10   C     C_R   0.680591 0.484777 0.000588 -0.241498
C11   C     C_R   0.328270 0.512733 0.890591 0.158898
C12   C     C_R   0.671730 0.487267 0.109409 0.158897
C13   C     C_R   0.572742 0.490887 0.855612 -0.288195
C14   C     C_R   0.427258 0.509112 0.144388 -0.288195
C15   C     C_R   0.563744 0.493930 0.963834 0.147060
C16   C     C_R   0.436256 0.506070 0.036166 0.147060
C17   C     C_2   0.406816 0.117094 0.516112 -0.356254
C18   C     C_2   0.593184 0.882906 0.483888 -0.356254
C19   C     C_2   0.514456 0.067056 0.480638 -0.054976
C20   C     C_2   0.485543 0.932944 0.519362 -0.054977
Cu1   Cu    Cu3+1 0.647370 0.522180 0.481340 1.027838
Cu2   Cu    Cu3+1 0.352630 0.477820 0.518660 1.027838
H1    H     H_    0.329123 0.519241 0.199383 0.192119
H2    H     H_    0.670877 0.480759 0.800617 0.192119
H3    H     H_    0.221391 0.524956 0.054884 0.151788
H4    H     H_    0.778609 0.475044 0.945116 0.151788
H5    H     H_    0.705771 0.941023 0.435164 0.192714
H6    H     H_    0.294229 0.058977 0.564836 0.192714
H7    H     H_    0.831607 0.416557 0.568753 0.190818
H8    H     H_    0.168393 0.583442 0.431247 0.190818
N1    N     N_2   0.131210 0.444490 0.546730 -0.250138
N2    N     N_2   0.868790 0.555510 0.453270 -0.250138
O1    O     O_R   0.578710 0.332530 0.490040 -0.582683
O2    O     O_R   0.421290 0.667470 0.509960 -0.582683
O3    O     O_R   0.329810 0.295070 0.521560 -0.546730
O4    O     O_R   0.670190 0.704930 0.478440 -0.546730
O5    O     O_R   0.604230 0.515670 0.637800 -0.605938
O6    O     O_R   0.395770 0.484330 0.362200 -0.605938
O7    O     O_R   0.355330 0.478200 0.669330 -0.545662
O8    O     O_R   0.644670 0.521800 0.330670 -0.545662
N3    N     N_3   0.791456 0.474598 0.145459 -0.523019
H9    H     H_    0.801778 0.387380 0.122841 0.243870
H10   H     H_    0.892394 0.549760 0.105881 0.218013
N4    N     N_3   0.208544 0.525402 0.854541 -0.523020
H11   H     H_    0.198222 0.612619 0.877159 0.243870
H12   H     H_    0.107606 0.450240 0.894119 0.218013
C21   C     C_2   0.338806 0.855178 0.598291 0.901954
O9    O     O_2   0.337790 0.817944 0.686675 -0.587555
O10   O     O_R   0.203740 0.821324 0.569615 -0.761247
H13   H     H_    0.112452 0.766392 0.629073 0.341111
C22   C     C_2   0.661193 0.144822 0.401709 0.901955
O11   O     O_2   0.662209 0.182056 0.313325 -0.587555
O12   O     O_R   0.796260 0.178676 0.430384 -0.761248
H14   H     H_    0.887548 0.233608 0.370926 0.341111
C23   C     C_2   0.968144 0.635930 0.358696 1.044677
O13   O     O_2   0.961614 0.740637 0.340752 -0.567595
O14   O     O_R   0.064321 0.591658 0.282665 -0.821813
H15   H     H_    0.126204 0.656826 0.218064 0.313199
C24   C     C_2   0.031855 0.364070 0.641304 1.044677
O15   O     O_2   0.038386 0.259363 0.659248 -0.567595
O16   O     O_R   0.935679 0.408342 0.717335 -0.821813
H16   H     H_    0.873796 0.343174 0.781936 0.313200

loop_
_geom_bond_atom_site_label_1
_geom_bond_atom_site_label_2
_ccdc_geom_bond_type
C14   H1    S    
C3    H8    S    
C23   O13   D    
C6    O6    A    
C23   O14   S    
C8    C13   A    
C12   N3    S    
C5    O5    A    
C2    C18   S    
C9    C11   A    
N3    H9    S    
N2    C23   S    
C1    C17   S    
C4    H7    S    
C10   H4    S    
C19   C20   S    
C13   C15   A    
C9    H3    S    
C11   N4    S    
C21   O10   S    
Cu1   O4    S    
O12   H14   S    
C3    N1    D    
Cu2   O3    S    
N3    H10   S    
C2    O2    A    
O14   H15   S    
C4    N2    D    
Cu1   O8    S    
C10   C12   A    
C8    C11   A    
Cu2   O7    S    
C17   C19   D    
C9    C16   A    
N4    H12   S    
C6    C7    S    
C18   C20   D    
C10   C15   A    
C5    O7    A    
C7    C12   A    
Cu2   O2    S    
Cu1   N2    S    
C14   C16   A    
C24   O16   S    
C20   C21   S    
Cu1   O1    S    
O16   H16   S    
C18   H5    S    
C1    O1    A    
C15   C16   A    
Cu2   O6    S    
C19   C22   S    
C24   O15   D    
C6    O8    A    
C22   O11   D    
N4    H11   S    
C1    O3    A    
Cu1   O5    S    
O10   H13   S    
Cu2   N1    S    
C2    O4    A    
C5    C8    S    
Cu1   Cu2   S    
C17   H6    S    
C7    C14   A    
C3    C4    S    
C21   O9    D    
C13   H2    S    
C22   O12   S    
N1    C24   S    
