data_mof_unit_61237.cif
_audit_creation_date              2012-12-10T20:14:49-0500
_audit_creation_method            fapswitch 2.2
_symmetry_space_group_name_H-M    P1
_symmetry_Int_Tables_number       1
_space_group_crystal_system       triclinic
_cell_length_a                    35.483778
_cell_length_b                    35.483783
_cell_length_c                    21.707759
_cell_angle_alpha                 89.982053
_cell_angle_beta                  90.01798
_cell_angle_gamma                 89.984987
_cell_volume                      27332.207046

loop_
_atom_site_label
_atom_site_type_symbol
_atom_type_description
_atom_site_fract_x
_atom_site_fract_y
_atom_site_fract_z
_atom_type_partial_charge
C1    C     C_R   0.073459 0.499993 0.499983 0.850412
C2    C     C_R   0.500005 0.926549 0.500000 0.850625
C3    C     C_R   0.926542 0.500003 0.500012 0.850349
C4    C     C_R   0.499994 0.073456 0.499885 0.850388
C5    C     C_R   0.573456 0.999994 0.000115 0.850388
C6    C     C_R   0.000003 0.426542 0.999987 0.850349
C7    C     C_R   0.426549 0.000005 1.000000 0.850624
C8    C     C_R   0.999993 0.573459 0.000017 0.850412
C9    C     C_R   0.307044 0.499839 0.499805 0.056077
C10   C     C_R   0.500055 0.693049 0.499951 0.056392
C11   C     C_R   0.692967 0.499940 0.500159 0.056634
C12   C     C_R   0.499699 0.306998 0.497534 0.080320
C13   C     C_R   0.806999 0.999699 0.002466 0.080320
C14   C     C_R   0.999940 0.192967 0.999841 0.056634
C15   C     C_R   0.193049 0.000055 0.000049 0.056392
C16   C     C_R   0.999839 0.807044 0.000195 0.056077
C17   C     C_1   0.266984 0.499834 0.499693 -0.043373
C18   C     C_1   0.500058 0.733091 0.499960 -0.043577
C19   C     C_1   0.733024 0.499946 0.500234 -0.044257
C20   C     C_1   0.499782 0.266944 0.496918 -0.042505
C21   C     C_1   0.766944 0.999781 0.003082 -0.042505
C22   C     C_1   0.999945 0.233024 0.999766 -0.044257
C23   C     C_1   0.233091 0.000058 0.000040 -0.043577
C24   C     C_1   0.999834 0.766984 0.000307 -0.043373
C25   C     C_1   0.233312 0.499857 0.499658 -0.068613
C26   C     C_1   0.500053 0.766753 0.499968 -0.068682
C27   C     C_1   0.766695 0.499962 0.500256 -0.069291
C28   C     C_1   0.499838 0.233276 0.496864 -0.071656
C29   C     C_1   0.733276 0.999838 0.003136 -0.071656
C30   C     C_1   0.999962 0.266695 0.999744 -0.069291
C31   C     C_1   0.266754 0.000053 0.000032 -0.068682
C32   C     C_1   0.999857 0.733312 0.000342 -0.068613
C33   C     C_R   0.173821 0.533966 0.504792 -0.162762
C34   C     C_R   0.534087 0.826242 0.505103 -0.162935
C35   C     C_R   0.826230 0.465934 0.505257 -0.163638
C36   C     C_R   0.465850 0.173785 0.502860 -0.162795
C37   C     C_R   0.826186 0.534039 0.495145 -0.162792
C38   C     C_R   0.465985 0.826242 0.494861 -0.162908
C39   C     C_R   0.173770 0.465866 0.494668 -0.162850
C40   C     C_R   0.533948 0.173761 0.492664 -0.163775
C41   C     C_R   0.673761 0.033948 0.007336 -0.163776
C42   C     C_R   0.034039 0.326186 0.004855 -0.162792
C43   C     C_R   0.326242 0.965985 0.005139 -0.162908
C44   C     C_R   0.965866 0.673770 0.005332 -0.162850
C45   C     C_R   0.326242 0.034087 0.994896 -0.162935
C46   C     C_R   0.965933 0.326230 0.994743 -0.163638
C47   C     C_R   0.673785 0.965850 0.997140 -0.162794
C48   C     C_R   0.033966 0.673821 0.995208 -0.162761
C49   C     C_R   0.134612 0.534049 0.504875 -0.202717
C50   C     C_R   0.534123 0.865443 0.505092 -0.202873
C51   C     C_R   0.865436 0.465896 0.505159 -0.202951
C52   C     C_R   0.465849 0.134585 0.503785 -0.202772
C53   C     C_R   0.865394 0.534097 0.495088 -0.202867
C54   C     C_R   0.465924 0.865443 0.494891 -0.202893
C55   C     C_R   0.134564 0.465852 0.494792 -0.202742
C56   C     C_R   0.534044 0.134559 0.493631 -0.203408
C57   C     C_R   0.634559 0.034044 0.006370 -0.203408
C58   C     C_R   0.034097 0.365394 0.004911 -0.202867
C59   C     C_R   0.365443 0.965924 0.005109 -0.202893
C60   C     C_R   0.965852 0.634564 0.005208 -0.202742
C61   C     C_R   0.365443 0.034123 0.994908 -0.202873
C62   C     C_R   0.965896 0.365436 0.994841 -0.202951
C63   C     C_R   0.634585 0.965849 0.996215 -0.202773
C64   C     C_R   0.034049 0.634613 0.995125 -0.202717
C65   C     C_R   0.114706 0.499967 0.499892 -0.036339
C66   C     C_R   0.500017 0.885316 0.499995 -0.036136
C67   C     C_R   0.885296 0.500001 0.500080 -0.036170
C68   C     C_R   0.499970 0.114696 0.499199 -0.036037
C69   C     C_R   0.614696 0.999970 0.000801 -0.036037
C70   C     C_R   0.000001 0.385296 0.999920 -0.036170
C71   C     C_R   0.385316 0.000017 0.000005 -0.036136
C72   C     C_R   0.999967 0.614707 0.000108 -0.036339
C73   C     C_R   0.193260 0.499898 0.499681 0.160514
C74   C     C_R   0.500042 0.806788 0.499978 0.160594
C75   C     C_R   0.806745 0.499980 0.500238 0.160826
C76   C     C_R   0.499873 0.193232 0.497283 0.161255
C77   C     C_R   0.693232 0.999874 0.002717 0.161256
C78   C     C_R   0.999980 0.306745 0.999762 0.160826
C79   C     C_R   0.306788 0.000042 0.000022 0.160594
C80   C     C_R   0.999898 0.693260 0.000319 0.160514
C81   C     C_R   0.500004 0.573147 0.499990 0.848249
C82   C     C_R   0.573124 0.499995 0.500003 0.852638
C83   C     C_R   0.499817 0.426856 0.500039 0.865098
C84   C     C_R   0.426879 0.499984 0.500000 0.846481
C85   C     C_R   0.999995 0.073124 0.999997 0.852638
C86   C     C_R   0.073147 0.000004 0.000010 0.848249
C87   C     C_R   0.999984 0.926879 0.000000 0.846481
C88   C     C_R   0.926856 0.999817 0.999961 0.865099
C89   C     C_R   1.000000 0.500006 0.379903 0.883038
C90   C     C_R   0.499995 0.000000 0.379903 0.882998
C91   C     C_R   0.999999 0.499995 0.620097 0.883077
C92   C     C_R   0.500005 0.000002 0.620096 0.883115
C93   C     C_R   0.500002 0.000005 0.879903 0.883115
C94   C     C_R   0.999995 0.499999 0.879903 0.883077
C95   C     C_R   0.500000 0.999995 0.120096 0.882998
C96   C     C_R   0.000006 0.500000 0.120096 0.883037
C97   C     C_R   0.945804 0.544456 0.312885 -0.143712
C98   C     C_R   0.544390 0.054215 0.312936 -0.143243
C99   C     C_R   0.054241 0.455604 0.313009 -0.143538
C100  C     C_R   0.455576 0.945794 0.312955 -0.143571
C101  C     C_R   0.054212 0.544392 0.687064 -0.143507
C102  C     C_R   0.455590 0.054231 0.686997 -0.143732
C103  C     C_R   0.945794 0.455575 0.687045 -0.143529
C104  C     C_R   0.544444 0.945797 0.687108 -0.143619
C105  C     C_R   0.445797 0.044444 0.812892 -0.143619
C106  C     C_R   0.044392 0.554212 0.812936 -0.143508
C107  C     C_R   0.554231 0.955590 0.813003 -0.143732
C108  C     C_R   0.955575 0.445794 0.812955 -0.143529
C109  C     C_R   0.554215 0.044390 0.187064 -0.143242
C110  C     C_R   0.955604 0.554241 0.186991 -0.143538
C111  C     C_R   0.445794 0.955576 0.187045 -0.143571
C112  C     C_R   0.044456 0.445804 0.187115 -0.143711
C113  C     C_R   0.923825 0.570578 0.281196 -0.143800
C114  C     C_R   0.570511 0.076188 0.281282 -0.144280
C115  C     C_R   0.076234 0.429488 0.281381 -0.143776
C116  C     C_R   0.429466 0.923811 0.281293 -0.143728
C117  C     C_R   0.076186 0.570512 0.718718 -0.143727
C118  C     C_R   0.429470 0.076218 0.718628 -0.143885
C119  C     C_R   0.923810 0.429465 0.718707 -0.143960
C120  C     C_R   0.570562 0.923810 0.718795 -0.143809
C121  C     C_R   0.423810 0.070561 0.781205 -0.143808
C122  C     C_R   0.070512 0.576186 0.781282 -0.143726
C123  C     C_R   0.576218 0.929470 0.781372 -0.143885
C124  C     C_R   0.929465 0.423810 0.781293 -0.143959
C125  C     C_R   0.576188 0.070511 0.218718 -0.144280
C126  C     C_R   0.929488 0.576234 0.218619 -0.143777
C127  C     C_R   0.423811 0.929466 0.218707 -0.143728
C128  C     C_R   0.070578 0.423825 0.218804 -0.143801
C129  C     C_R   0.976691 0.525912 0.217831 0.076680
C130  C     C_R   0.525886 0.023314 0.217864 0.076674
C131  C     C_R   0.023356 0.474128 0.217891 0.076639
C132  C     C_R   0.474112 0.976664 0.217859 0.076683
C133  C     C_R   0.023314 0.525885 0.782136 0.076682
C134  C     C_R   0.474123 0.023350 0.782112 0.076664
C135  C     C_R   0.976664 0.474111 0.782141 0.076690
C136  C     C_R   0.525907 0.976684 0.782166 0.076699
C137  C     C_R   0.476684 0.025907 0.717834 0.076699
C138  C     C_R   0.025884 0.523314 0.717864 0.076681
C139  C     C_R   0.523350 0.974123 0.717888 0.076665
C140  C     C_R   0.974111 0.476664 0.717858 0.076689
C141  C     C_R   0.523314 0.025886 0.282136 0.076675
C142  C     C_R   0.974128 0.523356 0.282109 0.076639
C143  C     C_R   0.476664 0.974112 0.282141 0.076683
C144  C     C_R   0.025912 0.476691 0.282169 0.076680
C145  C     C_R   0.000019 0.500014 0.186198 -0.210680
C146  C     C_R   0.500002 0.999986 0.186198 -0.210640
C147  C     C_R   0.999986 0.500001 0.813802 -0.210667
C148  C     C_R   0.500012 0.000015 0.813802 -0.210730
C149  C     C_R   0.500015 0.000012 0.686198 -0.210730
C150  C     C_R   0.000001 0.499986 0.686198 -0.210667
C151  C     C_R   0.499986 0.000002 0.313802 -0.210640
C152  C     C_R   0.000014 0.500019 0.313802 -0.210680
C153  C     C_R   0.326375 0.526341 0.535064 -0.139278
C154  C     C_R   0.525334 0.673656 0.537451 -0.139458
C155  C     C_R   0.673564 0.473562 0.535568 -0.142120
C156  C     C_R   0.475658 0.326015 0.537584 -0.139203
C157  C     C_R   0.673599 0.526294 0.464615 -0.139010
C158  C     C_R   0.474770 0.673696 0.462444 -0.139413
C159  C     C_R   0.326486 0.473319 0.464741 -0.138903
C160  C     C_R   0.523838 0.326713 0.458514 -0.198967
C161  C     C_R   0.826713 0.023838 0.041485 -0.198967
C162  C     C_R   0.026294 0.173599 0.035385 -0.139011
C163  C     C_R   0.173696 0.974770 0.037556 -0.139413
C164  C     C_R   0.973319 0.826486 0.035259 -0.138904
C165  C     C_R   0.173656 0.025334 0.962549 -0.139457
C166  C     C_R   0.973562 0.173564 0.964432 -0.142121
C167  C     C_R   0.826015 0.975658 0.962416 -0.139202
C168  C     C_R   0.026341 0.826375 0.964936 -0.139278
C169  C     C_R   0.365610 0.526568 0.535814 0.062892
C170  C     C_R   0.525508 0.634426 0.538133 0.063188
C171  C     C_R   0.634326 0.473358 0.536097 0.062640
C172  C     C_R   0.475550 0.365218 0.539340 0.047653
C173  C     C_R   0.634364 0.526498 0.463894 0.061933
C174  C     C_R   0.474571 0.634467 0.461768 0.063112
C175  C     C_R   0.365726 0.473130 0.464259 0.062178
C176  C     C_R   0.524291 0.366138 0.459284 0.084658
C177  C     C_R   0.866138 0.024291 0.040716 0.084657
C178  C     C_R   0.026499 0.134364 0.036106 0.061933
C179  C     C_R   0.134468 0.974571 0.038232 0.063111
C180  C     C_R   0.973130 0.865726 0.035741 0.062178
C181  C     C_R   0.134426 0.025508 0.961867 0.063189
C182  C     C_R   0.973358 0.134326 0.963903 0.062640
C183  C     C_R   0.865218 0.975550 0.960660 0.047653
C184  C     C_R   0.026567 0.865610 0.964186 0.062892
C185  C     C_R   0.385688 0.499904 0.500010 -0.117568
C186  C     C_R   0.500026 0.614382 0.499965 -0.120583
C187  C     C_R   0.614320 0.499957 0.500006 -0.118268
C188  C     C_R   0.499986 0.385619 0.499926 -0.099963
C189  C     C_R   0.885619 0.999986 0.000074 -0.099963
C190  C     C_R   0.999957 0.114320 0.999994 -0.118269
C191  C     C_R   0.114382 0.000026 0.000035 -0.120583
C192  C     C_R   0.999904 0.885688 0.999990 -0.117568
H1    H     H_    0.097322 0.413214 0.305725 0.134865
H2    H     H_    0.413189 0.902732 0.305617 0.134872
H3    H     H_    0.902741 0.586863 0.305492 0.134872
H4    H     H_    0.586778 0.097276 0.305597 0.134181
H5    H     H_    0.902732 0.413188 0.694383 0.134565
H6    H     H_    0.586842 0.902724 0.694496 0.134833
H7    H     H_    0.097273 0.586781 0.694403 0.134888
H8    H     H_    0.413189 0.097302 0.694286 0.134843
H9    H     H_    0.597302 0.913189 0.805714 0.134843
H10   H     H_    0.913188 0.402732 0.805617 0.134564
H11   H     H_    0.402724 0.086842 0.805504 0.134833
H12   H     H_    0.086781 0.597272 0.805598 0.134888
H13   H     H_    0.402732 0.913189 0.194383 0.134872
H14   H     H_    0.086864 0.402741 0.194508 0.134872
H15   H     H_    0.597276 0.086778 0.194403 0.134181
H16   H     H_    0.913213 0.597321 0.194274 0.134865
H17   H     H_    0.940001 0.540962 0.361408 0.148616
H18   H     H_    0.540879 0.060027 0.361450 0.148510
H19   H     H_    0.060037 0.459105 0.361535 0.148634
H20   H     H_    0.459069 0.939998 0.361486 0.148650
H21   H     H_    0.060023 0.540882 0.638549 0.148600
H22   H     H_    0.459088 0.060028 0.638471 0.148611
H23   H     H_    0.939997 0.459068 0.638513 0.148620
H24   H     H_    0.540949 0.939996 0.638585 0.148618
H25   H     H_    0.439996 0.040948 0.861415 0.148618
H26   H     H_    0.040882 0.560023 0.861451 0.148601
H27   H     H_    0.560028 0.959088 0.861529 0.148612
H28   H     H_    0.959068 0.439997 0.861486 0.148619
H29   H     H_    0.560027 0.040879 0.138550 0.148510
H30   H     H_    0.959105 0.560037 0.138465 0.148634
H31   H     H_    0.439998 0.959069 0.138514 0.148650
H32   H     H_    0.040962 0.440001 0.138592 0.148616
H33   H     H_    0.310948 0.546890 0.562096 0.151048
H34   H     H_    0.544972 0.689035 0.566311 0.151084
H35   H     H_    0.688936 0.453080 0.562855 0.150477
H36   H     H_    0.456885 0.310351 0.567550 0.150450
H37   H     H_    0.688998 0.546745 0.437339 0.150978
H38   H     H_    0.455146 0.689107 0.433573 0.151112
H39   H     H_    0.311145 0.452709 0.437703 0.151138
H40   H     H_    0.542440 0.311364 0.427858 0.136268
H41   H     H_    0.811364 0.042440 0.072142 0.136268
H42   H     H_    0.046745 0.188998 0.062661 0.150979
H43   H     H_    0.189107 0.955146 0.066427 0.151112
H44   H     H_    0.952710 0.811145 0.062297 0.151138
H45   H     H_    0.189035 0.044972 0.933689 0.151083
H46   H     H_    0.953080 0.188936 0.937145 0.150478
H47   H     H_    0.810351 0.956885 0.932450 0.150450
H48   H     H_    0.046890 0.810948 0.937903 0.151047
H49   H     H_    0.188953 0.560382 0.508730 0.133968
H50   H     H_    0.560518 0.811128 0.509112 0.134066
H51   H     H_    0.811136 0.439498 0.509240 0.133262
H52   H     H_    0.439408 0.188905 0.506570 0.134158
H53   H     H_    0.811057 0.560465 0.491204 0.133968
H54   H     H_    0.439562 0.811128 0.490846 0.134083
H55   H     H_    0.188861 0.439423 0.490673 0.133964
H56   H     H_    0.560360 0.188864 0.488385 0.133029
H57   H     H_    0.688864 0.060360 0.011615 0.133030
H58   H     H_    0.060465 0.311057 0.008795 0.133968
H59   H     H_    0.311128 0.939562 0.009155 0.134083
H60   H     H_    0.939423 0.688861 0.009327 0.133964
H61   H     H_    0.311128 0.060518 0.990887 0.134066
H62   H     H_    0.939498 0.311136 0.990760 0.133262
H63   H     H_    0.688905 0.939408 0.993430 0.134158
H64   H     H_    0.060382 0.688953 0.991270 0.133968
H65   H     H_    0.119945 0.560698 0.508998 0.155820
H66   H     H_    0.560755 0.880129 0.509227 0.155846
H67   H     H_    0.880137 0.439259 0.509212 0.155600
H68   H     H_    0.439229 0.119913 0.508231 0.155869
H69   H     H_    0.880065 0.560740 0.490980 0.155825
H70   H     H_    0.439282 0.880128 0.490761 0.155876
H71   H     H_    0.119860 0.439226 0.490744 0.155820
H72   H     H_    0.560696 0.119862 0.489848 0.155498
H73   H     H_    0.619862 0.060696 0.010152 0.155498
H74   H     H_    0.060740 0.380065 0.009019 0.155825
H75   H     H_    0.380128 0.939282 0.009239 0.155876
H76   H     H_    0.939226 0.619860 0.009255 0.155820
H77   H     H_    0.380129 0.060755 0.990773 0.155846
H78   H     H_    0.939258 0.380137 0.990788 0.155600
H79   H     H_    0.619913 0.939229 0.991768 0.155870
H80   H     H_    0.060698 0.619945 0.991003 0.155820
O1    O     O_R   0.055450 0.468680 0.499980 -0.628265
O2    O     O_R   0.468680 0.944550 0.499980 -0.628270
O3    O     O_R   0.944550 0.531320 0.499980 -0.628172
O4    O     O_R   0.531320 0.055450 0.499980 -0.628341
O5    O     O_R   0.944550 0.468680 0.500020 -0.628373
O6    O     O_R   0.531320 0.944550 0.500020 -0.628300
O7    O     O_R   0.055450 0.531320 0.500020 -0.628162
O8    O     O_R   0.468680 0.055450 0.500020 -0.628260
O9    O     O_R   0.555450 0.968680 0.999980 -0.628260
O10   O     O_R   0.968680 0.444550 0.999980 -0.628373
O11   O     O_R   0.444550 0.031320 0.999980 -0.628301
O12   O     O_R   0.031320 0.555450 0.999980 -0.628162
O13   O     O_R   0.444550 0.968680 0.000020 -0.628270
O14   O     O_R   0.031320 0.444550 0.000020 -0.628172
O15   O     O_R   0.555450 0.031320 0.000020 -0.628341
O16   O     O_R   0.968680 0.555450 0.000020 -0.628265
O17   O     O_R   0.000010 0.468680 0.408370 -0.620688
O18   O     O_R   0.468680 0.999990 0.408370 -0.620597
O19   O     O_R   0.999990 0.531320 0.408370 -0.620499
O20   O     O_R   0.531320 0.000010 0.408370 -0.620648
O21   O     O_R   0.999990 0.468680 0.591630 -0.620620
O22   O     O_R   0.531320 0.999990 0.591630 -0.620679
O23   O     O_R   0.000010 0.531320 0.591630 -0.620523
O24   O     O_R   0.468680 0.000010 0.591630 -0.620456
O25   O     O_R   0.500010 0.968680 0.908370 -0.620456
O26   O     O_R   0.968680 0.499990 0.908370 -0.620620
O27   O     O_R   0.499990 0.031320 0.908370 -0.620679
O28   O     O_R   0.031320 0.500010 0.908370 -0.620523
O29   O     O_R   0.499990 0.968680 0.091630 -0.620597
O30   O     O_R   0.031320 0.499990 0.091630 -0.620499
O31   O     O_R   0.500010 0.031320 0.091630 -0.620648
O32   O     O_R   0.968680 0.500010 0.091630 -0.620689
O33   O     O_R   0.500050 0.555340 0.448290 -0.623875
O34   O     O_R   0.555340 0.499950 0.448290 -0.616775
O35   O     O_R   0.499950 0.444660 0.448290 -0.587282
O36   O     O_R   0.444660 0.500050 0.448290 -0.623894
O37   O     O_R   0.499950 0.555340 0.551710 -0.622518
O38   O     O_R   0.444660 0.499950 0.551710 -0.622423
O39   O     O_R   0.500050 0.444660 0.551710 -0.632984
O40   O     O_R   0.555340 0.500050 0.551710 -0.623221
O41   O     O_R   0.000050 0.055340 0.948290 -0.623221
O42   O     O_R   0.055340 0.999950 0.948290 -0.622518
O43   O     O_R   0.999950 0.944660 0.948290 -0.622423
O44   O     O_R   0.944660 0.000050 0.948290 -0.632984
O45   O     O_R   0.999950 0.055340 0.051710 -0.616774
O46   O     O_R   0.944660 0.999950 0.051710 -0.587282
O47   O     O_R   0.000050 0.944660 0.051710 -0.623894
O48   O     O_R   0.055340 0.000050 0.051710 -0.623875
Zn1   Zn    Zn3+2 0.000000 0.458180 0.500000 0.945408
Zn2   Zn    Zn3+2 0.458180 0.000000 0.500000 0.945869
Zn3   Zn    Zn3+2 0.000000 0.541820 0.500000 0.945963
Zn4   Zn    Zn3+2 0.541820 0.000000 0.500000 0.945341
Zn5   Zn    Zn3+2 0.500000 0.958180 0.000000 0.945869
Zn6   Zn    Zn3+2 0.958180 0.500000 0.000000 0.945408
Zn7   Zn    Zn3+2 0.500000 0.041820 0.000000 0.945341
Zn8   Zn    Zn3+2 0.041820 0.500000 0.000000 0.945963
Zn9   Zn    Zn3+2 0.500000 0.500000 0.430910 0.946721
Zn10  Zn    Zn3+2 0.500000 0.500000 0.569090 0.925360
Zn11  Zn    Zn3+2 1.000000 0.000000 0.930910 0.925360
Zn12  Zn    Zn3+2 0.000000 0.000000 0.069090 0.946721
N1    N     N_3   0.384251 0.554719 0.572068 -0.458688
H81   H     H_    0.399262 0.541403 0.607293 0.213844
H82   H     H_    0.403164 0.569383 0.544010 0.177356
N2    N     N_3   0.552493 0.615792 0.576746 -0.458810
H83   H     H_    0.538128 0.601057 0.611147 0.214471
H84   H     H_    0.567897 0.596700 0.550105 0.179078
N3    N     N_3   0.615603 0.445221 0.572284 -0.461468
H85   H     H_    0.600545 0.458543 0.607419 0.214275
H86   H     H_    0.596732 0.430566 0.544118 0.174814
N4    N     N_3   0.449575 0.383473 0.580166 -0.458539
H87   H     H_    0.464810 0.397972 0.613828 0.214112
H88   H     H_    0.433425 0.402716 0.554981 0.180690
N5    N     N_3   0.615690 0.554524 0.427374 -0.458819
H89   H     H_    0.600711 0.541092 0.392252 0.214007
H90   H     H_    0.596754 0.569262 0.455287 0.176944
N6    N     N_3   0.447600 0.615878 0.423112 -0.458719
H91   H     H_    0.461978 0.601142 0.388734 0.214275
H92   H     H_    0.432169 0.596791 0.449724 0.179156
N7    N     N_3   0.384501 0.444821 0.428515 -0.457682
H93   H     H_    0.399629 0.457974 0.393287 0.214668
H94   H     H_    0.403318 0.430275 0.456965 0.177253
N8    N     N_3   0.549693 0.386491 0.419796 -0.427312
H95   H     H_    0.564196 0.367994 0.390750 0.178028
H96   H     H_    0.569948 0.399251 0.447860 0.168679
N9    N     N_3   0.886491 0.049694 0.080203 -0.427312
H97   H     H_    0.867994 0.064196 0.109249 0.178028
H98   H     H_    0.899251 0.069948 0.052140 0.168680
N10   N     N_3   0.054524 0.115690 0.072626 -0.458819
H99   H     H_    0.041092 0.100711 0.107748 0.214007
H100  H     H_    0.069262 0.096754 0.044713 0.176944
N11   N     N_3   0.115878 0.947600 0.076888 -0.458720
H101  H     H_    0.101142 0.961978 0.111266 0.214276
H102  H     H_    0.096791 0.932169 0.050276 0.179157
N12   N     N_3   0.944821 0.884501 0.071485 -0.457682
H103  H     H_    0.957974 0.899629 0.106713 0.214668
H104  H     H_    0.930275 0.903318 0.043035 0.177253
N13   N     N_3   0.115792 0.052492 0.923255 -0.458810
H105  H     H_    0.101057 0.038128 0.888853 0.214471
H106  H     H_    0.096700 0.067897 0.949896 0.179077
N14   N     N_3   0.945221 0.115603 0.927716 -0.461468
H107  H     H_    0.958543 0.100545 0.892581 0.214275
H108  H     H_    0.930566 0.096732 0.955882 0.174814
N15   N     N_3   0.883473 0.949575 0.919834 -0.458539
H109  H     H_    0.897972 0.964810 0.886172 0.214112
H110  H     H_    0.902717 0.933425 0.945019 0.180690
N16   N     N_3   0.054719 0.884251 0.927932 -0.458688
H111  H     H_    0.041403 0.899262 0.892707 0.213844
H112  H     H_    0.069383 0.903164 0.955989 0.177356

loop_
_geom_bond_atom_site_label_1
_geom_bond_atom_site_label_2
_ccdc_geom_bond_type
N9    H97   S    
C130  C146  A    
C176  N8    S    
O37   Zn10  S    
O46   Zn12  S    
C10   C154  A    
C109  H29   S    
N1    H81   S    
C96   C145  S    
C114  H4    S    
C46   C62   A    
C153  H33   S    
C98   C114  A    
C60   C72   A    
C37   H53   S    
N14   H107  S    
C62   C70   A    
C130  C141  A    
C175  N7    S    
C45   H61   S    
C158  C174  A    
C106  C133  A    
C101  H21   S    
C18   C26   T    
C160  C176  A    
O3    Zn3   S    
C129  C145  A    
C117  H7    S    
O8    Zn2   S    
C61   C71   A    
C143  C151  A    
C37   C75   A    
C112  H32   S    
C42   C58   A    
C84   C185  S    
O12   Zn8   S    
C95   C146  S    
C128  H14   S    
C108  C124  A    
C27   C75   S    
C183  C189  A    
C55   C65   A    
C176  C188  A    
C88   C189  S    
C177  C189  A    
C104  H24   S    
N4    H87   S    
C58   C70   A    
C129  C142  A    
C20   C28   T    
C21   C29   T    
C40   C76   A    
C159  H39   S    
C24   C32   T    
C107  C136  A    
C32   C80   S    
C12   C20   S    
O20   Zn4   S    
O48   Zn12  S    
C13   C21   S    
C62   H78   S    
C107  H27   S    
C33   C73   A    
C105  H25   S    
C35   C51   A    
O10   Zn6   S    
C161  C177  A    
C7    O11   A    
C11   C157  A    
C15   C163  A    
C4    O4    A    
C87   O43   A    
O23   Zn3   S    
N2    H83   S    
N15   H109  S    
C166  H46   S    
O44   Zn11  S    
C59   H75   S    
C17   C25   T    
C127  H13   S    
C101  C117  A    
C47   C63   A    
C10   C18   S    
C178  C190  A    
N6    H91   S    
C156  C172  A    
C113  H3    S    
C112  C131  A    
C97   C142  A    
C85   O45   A    
C8    O16   A    
C43   H59   S    
C161  H41   S    
C92   C149  S    
C95   O31   A    
C93   O27   A    
C182  C190  A    
C94   O28   A    
N16   H111  S    
C87   C192  S    
C35   H51   S    
C33   H49   S    
N7    H93   S    
C166  C182  A    
C118  H8    S    
O22   Zn4   S    
C157  H37   S    
C99   H19   S    
C16   C164  A    
C154  C170  A    
C97   H17   S    
C90   O18   A    
C1    O7    A    
C3    O5    A    
O47   Zn12  S    
O7    Zn3   S    
C52   H68   S    
C53   H69   S    
C110  C129  A    
C179  N11   S    
C91   O23   A    
C63   H79   S    
C64   H80   S    
O38   Zn10  S    
O39   Zn10  S    
C49   H65   S    
C89   C152  S    
C63   C69   A    
C1    C65   S    
C160  H40   S    
C133  C147  A    
O19   Zn3   S    
C14   C166  A    
C171  N3    S    
C10   C158  A    
O30   Zn8   S    
C36   C52   A    
C43   C59   A    
C116  H2    S    
C167  H47   S    
C9    C153  A    
C88   O46   A    
C81   O33   A    
C96   O30   A    
C12   C156  A    
N10   H99   S    
C89   O19   A    
O42   Zn11  S    
O13   Zn5   S    
C174  N6    S    
C123  H9    S    
C121  H11   S    
C108  C135  A    
O36   Zn9   S    
O34   Zn9   S    
C126  H16   S    
C4    C68   S    
C113  C126  A    
C50   H66   S    
C23   C31   T    
C56   C68   A    
C125  H15   S    
C115  C128  A    
C102  C137  A    
C162  H42   S    
C117  C122  A    
C173  N5    S    
C86   O48   A    
C106  C122  A    
C95   O29   A    
C179  C191  A    
C51   C67   A    
C94   O26   A    
O31   Zn7   S    
C136  C148  A    
C110  C126  A    
C89   O17   A    
C135  C147  A    
C163  C179  A    
O33   Zn9   S    
C83   C188  S    
O43   Zn11  S    
C81   C186  S    
O25   Zn5   S    
C38   C74   A    
C109  C125  A    
C173  C187  A    
C22   C30   T    
O4    Zn4   S    
O35   Zn9   S    
O32   Zn6   S    
C2    C66   S    
C184  N16   S    
C2    O6    A    
C3    O3    A    
C54   C66   A    
O1    Zn1   S    
C14   C22   S    
C144  C152  A    
C103  C140  A    
C156  H36   S    
N14   H108  S    
C131  C145  A    
C25   C73   S    
C39   C73   A    
C53   C67   A    
C162  C178  A    
C163  H43   S    
C29   C77   S    
C87   O47   A    
N8    H95   S    
C15   C165  A    
C96   O32   A    
N13   H106  S    
C164  H44   S    
C100  C116  A    
C107  C123  A    
C93   O25   A    
C134  C137  A    
C168  H48   S    
C6    O10   A    
C11   C19   S    
C154  H34   S    
C99   C115  A    
C8    O12   A    
N4    H88   S    
C48   C64   A    
C33   C49   A    
C38   H54   S    
C92   O22   A    
C93   C148  S    
C142  C152  A    
N12   H103  S    
C5    C69   S    
C102  H22   S    
C39   C55   A    
C90   O20   A    
C40   C56   A    
C116  C127  A    
O21   Zn1   S    
C120  H6    S    
N11   H101  S    
C184  C192  A    
C178  N10   S    
N5    H90   S    
C164  C180  A    
C120  C123  A    
C81   O37   A    
C82   O34   A    
C132  C143  A    
O15   Zn7   S    
C83   O39   A    
C133  C138  A    
N9    H98   S    
C158  H38   S    
C60   H76   S    
C136  C139  A    
C61   H77   S    
C122  H12   S    
N1    H82   S    
C177  N9    S    
C135  C140  A    
C103  C119  A    
C8    C72   S    
O17   Zn1   S    
C36   H52   S    
C99   C144  A    
C44   C80   A    
N2    H84   S    
C84   O36   A    
O16   Zn6   S    
C85   C190  S    
O29   Zn5   S    
C139  C149  A    
C124  H10   S    
C5    O15   A    
C14   C162  A    
C47   H63   S    
C7    O13   A    
C175  C185  A    
N3    H85   S    
C38   C54   A    
C155  H35   S    
C170  C186  A    
N6    H92   S    
C45   C79   A    
C111  H31   S    
C12   C160  A    
C13   C161  A    
C34   C74   A    
C172  N4    S    
C106  H26   S    
C55   H71   S    
O9    Zn5   S    
N16   H112  S    
C110  H30   S    
C103  H23   S    
O11   Zn7   S    
C46   C78   A    
C6    C70   S    
C51   H67   S    
O27   Zn7   S    
C6    O14   A    
C119  H5    S    
C90   C151  S    
C100  C143  A    
C91   C150  S    
O14   Zn8   S    
C101  C138  A    
N7    H94   S    
C180  N12   S    
C92   O24   A    
C165  H45   S    
C104  C139  A    
C132  C146  A    
O41   Zn11  S    
C41   C57   A    
C41   C77   A    
C181  C191  A    
C44   C60   A    
C45   C61   A    
C183  N15   S    
O28   Zn8   S    
C112  C128  A    
C169  C185  A    
C108  H28   S    
C82   O40   A    
C42   H58   S    
C153  C169  A    
C46   H62   S    
C131  C144  A    
C85   O41   A    
C157  C173  A    
C105  C134  A    
C104  C120  A    
C34   H50   S    
C88   O44   A    
O18   Zn2   S    
N10   H100  S    
C119  C124  A    
C138  C150  A    
C98   H18   S    
C35   C75   A    
C86   C191  S    
C49   C65   A    
C5    O9    A    
C56   H72   S    
C172  C188  A    
C7    C71   S    
C13   C167  A    
C2    O2    A    
C9    C159  A    
C43   C79   A    
O26   Zn6   S    
C36   C76   A    
C44   H60   S    
C167  C183  A    
C168  C184  A    
C170  N2    S    
C48   H64   S    
C19   C27   T    
C1    O1    A    
C102  C118  A    
C15   C23   S    
C115  H1    S    
C57   H73   S    
C16   C24   S    
C159  C175  A    
N11   H102  S    
C137  C149  A    
C40   H56   S    
C86   O42   A    
N15   H110  S    
O45   Zn12  S    
C169  N1    S    
C34   C50   A    
O40   Zn10  S    
C54   H70   S    
C180  C192  A    
C114  C125  A    
C91   O21   A    
C118  C121  A    
C182  N14   S    
C83   O35   A    
C84   O38   A    
C58   H74   S    
C105  C121  A    
C50   C66   A    
O6    Zn4   S    
C9    C17   S    
N3    H86   S    
C181  N13   S    
C42   C78   A    
N8    H96   S    
C98   C141  A    
C111  C127  A    
C39   H55   S    
C47   C77   A    
C97   C113  A    
C140  C150  A    
C141  C151  A    
N13   H105  S    
C94   C147  S    
O5    Zn1   S    
C3    C67   S    
C52   C68   A    
C31   C79   S    
C11   C155  A    
O2    Zn2   S    
C134  C148  A    
C171  C187  A    
C82   C187  S    
C165  C181  A    
C48   C80   A    
C37   C53   A    
C174  C186  A    
C100  H20   S    
C16   C168  A    
C4    O8    A    
C26   C74   S    
C64   C72   A    
N12   H104  S    
C30   C78   S    
C155  C171  A    
C111  C132  A    
C41   H57   S    
C109  C130  A    
O24   Zn2   S    
C57   C69   A    
N5    H89   S    
C59   C71   A    
C28   C76   S    
