data_mof_unit_18393.cif
_audit_creation_date              2012-12-11T14:17:47-0500
_audit_creation_method            fapswitch 2.2
_symmetry_space_group_name_H-M    P1
_symmetry_Int_Tables_number       1
_space_group_crystal_system       triclinic
_cell_length_a                    6.944998
_cell_length_b                    13.652696
_cell_length_c                    20.442086
_cell_angle_alpha                 102.062885
_cell_angle_beta                  90.286371
_cell_angle_gamma                 90.716666
_cell_volume                      1895.27147187

loop_
_atom_site_label
_atom_site_type_symbol
_atom_type_description
_atom_site_fract_x
_atom_site_fract_y
_atom_site_fract_z
_atom_type_partial_charge
O1    O     O_R   0.506860 0.599390 0.449240 -0.538062
O2    O     O_R   0.180220 0.594600 0.586780 -0.568955
O3    O     O_R   0.004500 0.400610 0.550760 -0.540337
C1    C     C_R   0.350690 0.616320 0.613327 0.689887
O4    O     O_R   0.177490 0.611290 0.451970 -0.543436
O5    O     O_R   0.001750 0.417420 0.414990 -0.529538
C2    C     C_R   0.346474 0.637499 0.434915 0.786067
O6    O     O_R   0.509610 0.582580 0.585010 -0.529199
O7    O     O_3   0.337420 0.436370 0.488020 -0.364601
V1    V     V_3+5 0.064680 0.511800 0.502220 1.443782
O8    O     O_R   0.671710 0.405400 0.413220 -0.534350
C3    C     C_R   0.839225 0.386391 0.385937 0.774067
O9    O     O_R   0.674440 0.388710 0.548030 -0.546046
C4    C     C_R   0.842264 0.363189 0.565534 0.690102
V2    V     V_3+5 0.564010 0.488200 0.497780 1.475065
O10   O     O_3   0.841140 0.563630 0.511980 -0.382989
C5    C     C_R   0.773682 0.115638 0.612696 -0.145674
H1    H     H_    0.779420 0.166975 0.520652 0.149374
H2    H     H_    0.734984 0.040810 0.586408 0.164858
C6    C     C_R   0.844643 0.285828 0.605017 -0.040152
C7    C     C_R   0.900049 0.313887 0.927296 -0.167173
C8    C     C_R   0.909202 0.389578 0.891399 -0.135280
C9    C     C_R   0.888604 0.367289 0.822037 -0.141127
C10   C     C_R   0.857005 0.267440 0.786419 0.076873
C11   C     C_R   0.841096 0.190669 0.823861 0.004441
C12   C     C_R   0.840625 0.241534 0.715100 0.034940
C13   C     C_R   0.796220 0.140521 0.682895 0.059557
C14   C     C_R   0.777298 0.066208 0.721272 0.265351
C15   C     C_R   0.803129 0.091431 0.790358 -0.225645
C16   C     C_R   0.866449 0.312870 0.674431 -0.200215
C17   C     C_R   0.798510 0.187571 0.574410 -0.152422
C18   C     C_R   0.865425 0.214735 0.894421 -0.053728
H3    H     H_    0.900313 0.390478 0.694876 0.089364
H4    H     H_    0.920308 0.332657 0.981095 0.102228
H5    H     H_    0.896589 0.430345 0.798113 0.103422
H6    H     H_    0.934092 0.466302 0.917499 0.123739
H7    H     H_    0.790003 0.031856 0.817775 0.138901
C19   C     C_2   0.001875 0.289072 0.285014 -0.069391
C20   C     C_2   0.840412 0.325460 0.317080 -0.270775
H8    H     H_    0.140997 0.308205 0.309076 0.175834
H9    H     H_    0.702303 0.312583 0.291488 0.147313
C21   C     C_2   0.001971 0.230082 0.214649 -0.203204
C22   C     C_2   0.863297 0.163420 0.186437 -0.156030
H10   H     H_    0.124218 0.243248 0.184526 0.156187
C23   C     C_2   0.216635 0.799175 0.779547 -0.143492
C24   C     C_2   0.355366 0.804307 0.826123 -0.308979
H11   H     H_    0.094336 0.848479 0.790511 0.143922
H12   H     H_    0.471127 0.751142 0.819209 0.164267
C25   C     C_2   0.215152 0.726248 0.714012 -0.228224
C26   C     C_2   0.371969 0.688102 0.678589 0.160627
H13   H     H_    0.073778 0.705944 0.692492 0.124381
C27   C     C_R   0.344822 0.888368 0.385845 -0.011704
H14   H     H_    0.295301 0.010809 0.297638 0.168458
C28   C     C_R   0.354422 0.712670 0.392958 -0.195099
C29   C     C_R   0.404454 0.682821 0.069925 0.300357
C30   C     C_R   0.440005 0.611880 0.109138 -0.137483
C31   C     C_R   0.422083 0.636336 0.178337 -0.180100
C32   C     C_R   0.357235 0.731175 0.211668 0.122307
C33   C     C_R   0.335414 0.805946 0.173312 0.016869
C34   C     C_R   0.333742 0.756606 0.282933 0.031291
C35   C     C_R   0.326251 0.859604 0.315165 -0.011300
C36   C     C_R   0.305935 0.931905 0.275780 -0.124775
C37   C     C_R   0.302424 0.905079 0.206585 -0.147124
C38   C     C_R   0.318917 0.683649 0.323358 -0.102836
C39   C     C_R   0.375615 0.814639 0.423696 0.209069
C40   C     C_R   0.359388 0.781652 0.102787 -0.162664
H15   H     H_    0.469207 0.580732 0.205172 0.141990
H16   H     H_    0.486925 0.537178 0.087031 0.127523
H17   H     H_    0.283905 0.964480 0.179510 0.157090
O11   O     O_R   0.203230 0.917310 0.915020 -0.541688
O12   O     O_R   0.535500 0.888690 0.048040 -0.530339
O13   O     O_R   0.711080 0.082610 0.085000 -0.520072
C41   C     C_R   0.366510 0.861719 0.064534 0.704324
O14   O     O_R   0.532630 0.905370 0.913230 -0.546544
O15   O     O_R   0.708190 0.099410 0.949230 -0.542151
C42   C     C_R   0.362855 0.881573 0.888012 0.729406
O16   O     O_R   0.206120 0.900510 0.050790 -0.545666
O17   O     O_3   0.375360 0.063570 0.011990 -0.366348
V3    V     V_3+5 0.648170 0.988200 0.997780 1.471619
O18   O     O_R   0.038240 0.111390 0.951940 -0.542140
C43   C     C_R   0.870185 0.137141 0.934452 0.676920
O19   O     O_R   0.041120 0.094710 0.086750 -0.541666
C44   C     C_R   0.873209 0.112054 0.114700 0.687961
V4    V     V_3+5 0.148810 0.011930 0.002180 1.449428
O20   O     O_3   0.871750 0.936430 0.988010 -0.374412
C45   C     C_2   0.709458 0.129431 0.227399 0.758934
O21   O     O_2   0.543277 0.120122 0.206798 -0.576417
O22   O     O_R   0.755976 0.106522 0.289117 -0.640324
H18   H     H_    0.639603 0.084599 0.312430 0.296422
N1    N     N_2   0.562978 0.721125 0.699258 -0.514372
H19   H     H_    0.581469 0.794445 0.724146 0.291967
C46   C     C_3   0.684891 0.648328 0.721005 -0.559206
H20   H     H_    0.783091 0.686646 0.761695 0.183029
H21   H     H_    0.773398 0.609686 0.678572 0.210536
H22   H     H_    0.598002 0.591638 0.740326 0.185987
N2    N     N_2   0.420042 0.843568 0.493411 -0.494821
H23   H     H_    0.519565 0.798810 0.510149 0.252897
C47   C     C_3   0.255096 0.863197 0.536814 -0.548752
H24   H     H_    0.305001 0.892059 0.589055 0.191768
H25   H     H_    0.169704 0.793416 0.535136 0.184198
H26   H     H_    0.161920 0.920403 0.521883 0.218088
C48   C     C_2   0.334532 0.994927 0.421245 0.767252
O23   O     O_2   0.193318 0.044326 0.413933 -0.561216
O24   O     O_R   0.482223 0.037356 0.465097 -0.648915
H27   H     H_    0.454827 0.109238 0.487582 0.288929
N3    N     N_2   0.732947 0.964520 0.691699 -0.532395
H28   H     H_    0.613612 0.954572 0.660701 0.259893
C49   C     C_3   0.896358 0.906563 0.663184 -0.574750
H29   H     H_    0.944107 0.930233 0.617256 0.193366
H30   H     H_    0.855615 0.826033 0.649812 0.220647
H31   H     H_    0.018132 0.916824 0.699310 0.208828
C50   C     C_2   0.237382 0.581738 0.295399 0.723419
O25   O     O_2   0.308879 0.507484 0.309791 -0.577787
O26   O     O_R   0.079247 0.571300 0.251744 -0.656690
H32   H     H_    0.036948 0.498849 0.235773 0.290935
N4    N     N_2   0.424632 0.658600 0.998408 -0.520202
H33   H     H_    0.348278 0.702761 0.972518 0.236751
C51   C     C_3   0.433149 0.554733 0.963702 -0.549279
H34   H     H_    0.437983 0.550491 0.908864 0.194614
H35   H     H_    0.303580 0.512816 0.974989 0.196171
H36   H     H_    0.566359 0.519824 0.977833 0.204477

loop_
_geom_bond_atom_site_label_1
_geom_bond_atom_site_label_2
_ccdc_geom_bond_type
C29   C30   A    
C22   C44   S    
O18   V4    S    
C24   C42   S    
O26   H32   S    
C31   C32   A    
C20   H9    S    
C28   C39   A    
C6    C16   A    
C23   C24   D    
C49   H29   S    
C18   C43   S    
C27   C48   S    
C12   C13   A    
O14   C42   A    
C14   C15   A    
C10   C12   A    
C19   C21   S    
O13   V3    S    
C27   C35   A    
C33   C40   A    
O5    C3    A    
C19   C20   D    
C45   O22   S    
C38   C50   S    
C29   N4    S    
C32   C34   A    
V2    O10   S    
N4    H33   S    
C25   C26   D    
C51   H34   S    
O24   H27   S    
O8    V2    S    
C26   N1    S    
C39   N2    S    
C37   H17   S    
C14   N3    S    
C25   H13   S    
N2    C47   S    
C9    C10   A    
O1    V2    S    
O11   V4    S    
O7    V1    S    
C1    O6    A    
C11   C18   A    
O9    C4    A    
C35   C36   A    
C21   H10   S    
C31   H15   S    
C50   O26   S    
C50   O25   D    
C23   H11   S    
C11   C15   A    
C7    C18   A    
C24   H12   S    
C5    C13   A    
C4    C6    S    
C10   C11   A    
O12   C41   A    
O17   V3    S    
O15   C43   A    
C7    H4    S    
O16   V4    S    
C32   C33   A    
C30   H16   S    
C40   C41   S    
O19   C44   A    
C46   H22   S    
O12   V3    S    
C1    C26   S    
C34   C35   A    
C51   H36   S    
O2    C1    A    
C36   C37   A    
H14   C36   S    
N1    C46   S    
C23   C25   S    
N2    H23   S    
C46   H21   S    
V4    O20   S    
C48   O24   S    
O3    C4    A    
C12   C16   A    
O6    V2    S    
C9    H5    S    
O14   V3    S    
O9    V2    S    
O11   C42   A    
C5    C17   A    
C21   C22   D    
O2    V1    S    
V3    O20   S    
C29   C40   A    
C45   O21   D    
O4    C2    A    
C30   C31   A    
C16   H3    S    
O1    C2    A    
C22   C45   S    
C33   C37   A    
O18   C43   A    
O5    V1    S    
O8    C3    A    
C49   H30   S    
C47   H26   S    
C8    H6    S    
O19   V4    S    
C49   H31   S    
C34   C38   A    
C3    C20   S    
O7    V2    S    
O4    V1    S    
O3    V1    S    
V1    O10   S    
C19   H8    S    
N1    H19   S    
N3    C49   S    
C46   H20   S    
C5    H2    S    
N4    C51   S    
C48   O23   D    
C47   H25   S    
C51   H35   S    
O13   C44   A    
O17   V4    S    
O22   H18   S    
C28   C38   A    
C47   H24   S    
N3    H28   S    
C15   H7    S    
C13   C14   A    
C41   O16   A    
C8    C9    A    
H1    C17   S    
C2    C28   S    
C7    C8    A    
O15   V3    S    
C27   C39   A    
C6    C17   A    
