data_mof_unit_64652.cif
_audit_creation_date              2012-10-26T18:20:34-0400
_audit_creation_method            fapswitch 2.2
_symmetry_space_group_name_H-M    P1
_symmetry_Int_Tables_number       1
_space_group_crystal_system       monoclinic
_cell_length_a                    18.369012
_cell_length_b                    18.369015
_cell_length_c                    30.281792
_cell_angle_alpha                 90.0
_cell_angle_beta                  90.000024
_cell_angle_gamma                 90.0
_cell_volume                      10217.7021507

loop_
_atom_site_label
_atom_site_type_symbol
_atom_type_description
_atom_site_fract_x
_atom_site_fract_y
_atom_site_fract_z
_atom_type_partial_charge
C1    C     C_R   0.139893 0.500000 0.000000 0.560584
C2    C     C_1   0.500000 0.217444 0.000000 -0.021215
C3    C     C_R   0.095615 0.593487 0.773254 0.045171
C4    C     C_R   0.406513 0.904385 0.226745 0.045171
C5    C     C_R   0.904385 0.593487 0.226745 0.045171
C6    C     C_R   0.593487 0.095615 0.226746 0.045171
C7    C     C_R   0.095615 0.406513 0.226745 0.045171
C8    C     C_2   0.850789 0.639480 0.296963 0.637966
C9    C     C_2   0.360520 0.850789 0.296963 0.637966
C10   C     C_2   0.149211 0.360520 0.296964 0.637966
C11   C     C_2   0.639480 0.149211 0.296964 0.637966
C12   C     C_2   0.850789 0.360520 0.703036 0.637966
C13   C     C_1   0.782556 0.500000 0.000000 -0.021215
C14   C     C_2   0.360519 0.149211 0.703036 0.637966
C15   C     C_2   0.149211 0.639480 0.703036 0.637966
C16   C     C_2   0.639480 0.850789 0.703036 0.637967
C17   C     C_2   0.350789 0.139480 0.796963 0.637966
C18   C     C_2   0.860520 0.350789 0.796963 0.637967
C19   C     C_2   0.649211 0.860520 0.796964 0.637966
C20   C     C_2   0.139480 0.649211 0.796964 0.637966
C21   C     C_2   0.350789 0.860520 0.203036 0.637967
C22   C     C_2   0.860519 0.649211 0.203036 0.637966
C23   C     C_2   0.649211 0.139480 0.203037 0.637966
C24   C     C_1   0.500000 0.782556 0.000000 -0.021215
C25   C     C_2   0.139480 0.350789 0.203037 0.637967
C26   C     C_2   0.045602 0.371808 0.365967 0.583092
C27   C     C_2   0.628192 0.045602 0.365967 0.583091
C28   C     C_2   0.954398 0.628192 0.365967 0.583092
C29   C     C_2   0.371808 0.954398 0.365967 0.583092
C30   C     C_2   0.045602 0.628192 0.634033 0.583091
C31   C     C_2   0.628192 0.954398 0.634033 0.583091
C32   C     C_2   0.954398 0.371808 0.634033 0.583091
C33   C     C_2   0.371808 0.045602 0.634033 0.583091
C34   C     C_2   0.545602 0.871808 0.865967 0.583091
C35   C     C_1   0.717444 1.000000 0.500000 -0.021215
C36   C     C_2   0.128192 0.545602 0.865967 0.583091
C37   C     C_2   0.454398 0.128192 0.865967 0.583092
C38   C     C_2   0.871808 0.454398 0.865967 0.583092
C39   C     C_2   0.545602 0.128192 0.134033 0.583091
C40   C     C_2   0.128192 0.454398 0.134033 0.583091
C41   C     C_2   0.454398 0.871808 0.134033 0.583091
C42   C     C_2   0.871808 0.545602 0.134033 0.583091
C43   C     C_1   0.000000 0.717444 0.500000 -0.021215
C44   C     C_1   0.282556 0.000000 0.500000 -0.021215
C45   C     C_1   0.000000 0.282556 0.500000 -0.021215
C46   C     C_R   1.000000 0.500000 0.085599 0.569416
C47   C     C_R   0.500000 0.000000 0.085599 0.569416
C48   C     C_R   0.000000 0.500000 0.914401 0.569417
C49   C     C_R   0.500000 0.139893 0.000000 0.560584
C50   C     C_R   0.500000 1.000000 0.914401 0.569417
C51   C     C_R   0.500000 1.000000 0.585599 0.569416
C52   C     C_R   0.000000 0.500000 0.585599 0.569416
C53   C     C_R   0.500000 0.000000 0.414401 0.569417
C54   C     C_R   1.000000 0.500000 0.414401 0.569417
C55   C     C_1   0.282753 0.500000 1.000000 -0.016539
C56   C     C_1   0.500000 0.282753 0.000000 -0.016539
C57   C     C_1   0.717247 0.500000 0.000000 -0.016539
C58   C     C_1   0.500000 0.717247 0.000000 -0.016539
C59   C     C_1   0.782753 1.000000 0.500000 -0.016539
C60   C     C_R   0.860107 0.500000 0.000000 0.560584
C61   C     C_1   0.000000 0.782753 0.500000 -0.016539
C62   C     C_1   0.217247 0.000000 0.500000 -0.016539
C63   C     C_1   0.000000 0.217247 0.500000 -0.016539
C64   C     C_R   0.500000 0.360323 0.000000 0.546003
C65   C     C_R   0.639677 0.500000 0.000000 0.546003
C66   C     C_R   0.500000 0.639677 0.000000 0.546002
C67   C     C_R   0.360323 0.500000 0.000000 0.546003
C68   C     C_R   0.000000 0.860323 0.500000 0.546003
C69   C     C_R   0.139677 0.000000 0.500000 0.546003
C70   C     C_R   0.000000 0.139677 0.500000 0.546002
C71   C     C_R   0.500000 0.860107 0.000000 0.560584
C72   C     C_R   0.860323 0.000000 0.500000 0.546003
C73   C     C_R   0.032750 0.442255 0.342939 0.036276
C74   C     C_R   0.557745 0.032750 0.342939 0.036276
C75   C     C_R   0.967250 0.557745 0.342939 0.036276
C76   C     C_R   0.442255 0.967250 0.342939 0.036276
C77   C     C_R   0.032750 0.557745 0.657061 0.036276
C78   C     C_R   0.557745 0.967250 0.657061 0.036276
C79   C     C_R   0.967250 0.442255 0.657061 0.036276
C80   C     C_R   0.442255 0.032750 0.657061 0.036276
C81   C     C_R   0.532750 0.942255 0.842939 0.036276
C82   C     C_R   0.639893 0.000000 0.500000 0.560584
C83   C     C_R   0.057745 0.532750 0.842939 0.036276
C84   C     C_R   0.467250 0.057745 0.842939 0.036276
C85   C     C_R   0.942255 0.467250 0.842939 0.036276
C86   C     C_R   0.532750 0.057745 0.157061 0.036276
C87   C     C_R   0.057745 0.467250 0.157061 0.036276
C88   C     C_R   0.467250 0.942255 0.157061 0.036276
C89   C     C_R   0.942255 0.532750 0.157061 0.036276
C90   C     C_R   1.000000 0.500000 0.366077 -0.039790
C91   C     C_R   0.500000 0.000000 0.366077 -0.039790
C92   C     C_R   0.000000 0.500000 0.633923 -0.039790
C93   C     C_R   0.000000 0.639893 0.500000 0.560584
C94   C     C_R   0.500000 0.000000 0.633923 -0.039790
C95   C     C_R   0.500000 1.000000 0.866077 -0.039790
C96   C     C_R   0.000000 0.500000 0.866077 -0.039790
C97   C     C_R   0.500000 1.000000 0.133923 -0.039790
C98   C     C_R   1.000000 0.500000 0.133923 -0.039790
C99   C     C_R   0.956835 0.551231 0.296692 -0.024851
C100  C     C_R   0.448769 0.956835 0.296692 -0.024851
C101  C     C_R   0.043165 0.448769 0.296692 -0.024851
C102  C     C_R   0.551231 0.043165 0.296692 -0.024851
C103  C     C_R   0.956835 0.448769 0.703308 -0.024851
C104  C     C_R   0.360107 0.000000 0.500000 0.560584
C105  C     C_R   0.448769 0.043165 0.703308 -0.024851
C106  C     C_R   0.043165 0.551231 0.703308 -0.024851
C107  C     C_R   0.551231 0.956835 0.703308 -0.024851
C108  C     C_R   0.456835 0.051231 0.796692 -0.024851
C109  C     C_R   0.948769 0.456835 0.796692 -0.024851
C110  C     C_R   0.543165 0.948769 0.796692 -0.024851
C111  C     C_R   0.051231 0.543165 0.796692 -0.024851
C112  C     C_R   0.456835 0.948769 0.203308 -0.024851
C113  C     C_R   0.948769 0.543165 0.203308 -0.024851
C114  C     C_R   0.543165 0.051231 0.203308 -0.024851
C115  C     C_R   0.000000 0.360107 0.500000 0.560584
C116  C     C_R   0.051231 0.456835 0.203308 -0.024851
C117  C     C_R   1.000000 0.500000 0.273307 0.000724
C118  C     C_R   0.500000 1.000000 0.273307 0.000724
C119  C     C_R   0.000000 0.500000 0.726693 0.000724
C120  C     C_R   0.500000 1.000000 0.726693 0.000724
C121  C     C_R   0.500000 1.000000 0.773307 0.000724
C122  C     C_R   0.000000 0.500000 0.773307 0.000724
C123  C     C_R   0.500000 1.000000 0.226693 0.000724
C124  C     C_R   1.000000 0.500000 0.226693 0.000724
C125  C     C_R   0.906513 0.595615 0.273255 0.045171
C126  C     C_1   0.217443 0.500000 1.000000 -0.021215
C127  C     C_R   0.404385 0.906513 0.273254 0.045171
C128  C     C_R   0.093487 0.404385 0.273255 0.045171
C129  C     C_R   0.595615 0.093487 0.273255 0.045171
C130  C     C_R   0.906513 0.404385 0.726745 0.045171
C131  C     C_R   0.404385 0.093487 0.726745 0.045171
C132  C     C_R   0.093487 0.595615 0.726746 0.045171
C133  C     C_R   0.595615 0.906513 0.726745 0.045171
C134  C     C_R   0.406513 0.095615 0.773254 0.045171
C135  C     C_R   0.904385 0.406513 0.773254 0.045171
C136  C     C_R   0.593487 0.904385 0.773254 0.045171
Cu1   Cu    Cu3+1 1.000000 0.572490 0.000000 1.136119
Cu2   Cu    Cu3+1 0.500000 0.500000 0.955520 1.093553
Cu3   Cu    Cu3+1 0.000000 1.000000 0.544480 1.093553
Cu4   Cu    Cu3+1 0.000000 1.000000 0.455520 1.093553
Cu5   Cu    Cu3+1 0.427510 0.000000 0.000000 1.136119
Cu6   Cu    Cu3+1 1.000000 0.427510 0.000000 1.136119
Cu7   Cu    Cu3+1 0.572490 0.000000 0.000000 1.136119
Cu8   Cu    Cu3+1 0.500000 0.072490 0.500000 1.136119
Cu9   Cu    Cu3+1 0.927510 0.500000 0.500000 1.136119
Cu10  Cu    Cu3+1 0.500000 0.927510 0.500000 1.136119
Cu11  Cu    Cu3+1 0.072490 0.500000 0.500000 1.136119
Cu12  Cu    Cu3+1 0.500000 0.500000 0.044480 1.093553
H1    H     H_    0.807612 0.738487 0.308871 0.363842
H2    H     H_    0.761512 0.307612 0.808871 0.363842
H3    H     H_    0.692388 0.761512 0.808871 0.363842
H4    H     H_    0.238488 0.692388 0.808871 0.363842
H5    H     H_    0.307612 0.761512 0.191129 0.363842
H6    H     H_    0.761512 0.692388 0.191129 0.363842
H7    H     H_    0.692388 0.238487 0.191129 0.363842
H8    H     H_    0.238487 0.307612 0.191129 0.363842
H9    H     H_    0.097808 0.316541 0.413988 0.341802
H10   H     H_    0.683459 0.097808 0.413988 0.341802
H11   H     H_    0.902192 0.683459 0.413988 0.341802
H12   H     H_    0.261512 0.807612 0.308871 0.363842
H13   H     H_    0.316541 0.902192 0.413988 0.341802
H14   H     H_    0.097808 0.683459 0.586012 0.341802
H15   H     H_    0.683459 0.902192 0.586012 0.341803
H16   H     H_    0.902192 0.316541 0.586012 0.341802
H17   H     H_    0.316541 0.097808 0.586012 0.341802
H18   H     H_    0.597808 0.816541 0.913988 0.341802
H19   H     H_    0.183459 0.597808 0.913988 0.341802
H20   H     H_    0.402192 0.183459 0.913988 0.341802
H21   H     H_    0.816541 0.402192 0.913988 0.341802
H22   H     H_    0.597808 0.183459 0.086012 0.341802
H23   H     H_    0.192388 0.261512 0.308871 0.363842
H24   H     H_    0.183459 0.402193 0.086012 0.341803
H25   H     H_    0.402192 0.816541 0.086012 0.341802
H26   H     H_    0.816541 0.597808 0.086012 0.341802
H27   H     H_    0.738488 0.192388 0.308871 0.363842
H28   H     H_    0.807612 0.261512 0.691129 0.363842
H29   H     H_    0.261512 0.192388 0.691129 0.363842
H30   H     H_    0.192388 0.738487 0.691129 0.363842
H31   H     H_    0.738488 0.807612 0.691129 0.363842
H32   H     H_    0.307612 0.238487 0.808871 0.363842
O1    O     O_R   0.105780 0.561220 0.000020 -0.490278
O2    O     O_R   0.938780 0.605780 0.500020 -0.490278
O3    O     O_R   0.132253 0.593358 0.901789 -0.638568
O4    O     O_2   0.484880 0.183152 0.852644 -0.471088
O5    O     O_R   0.406642 0.132253 0.901789 -0.638568
O6    O     O_2   0.816847 0.484880 0.852644 -0.471088
O7    O     O_R   0.867747 0.406642 0.901789 -0.638568
O8    O     O_2   0.515120 0.183152 0.147356 -0.471088
O9    O     O_R   0.593358 0.132253 0.098211 -0.638568
O10   O     O_2   0.183152 0.484880 0.147356 -0.471087
O11   O     O_R   0.132253 0.406642 0.098211 -0.638569
O12   O     O_2   0.484880 0.816847 0.147356 -0.471088
O13   O     O_R   0.394220 0.938780 0.500020 -0.490278
O14   O     O_R   0.406642 0.867747 0.098211 -0.638568
O15   O     O_2   0.816848 0.515120 0.147356 -0.471088
O16   O     O_R   0.867747 0.593358 0.098211 -0.638568
O17   O     O_R   0.061220 0.394220 0.500020 -0.490278
O18   O     O_R   0.605780 0.938780 0.499980 -0.490278
O19   O     O_R   0.938780 0.394220 0.499980 -0.490278
O20   O     O_R   0.394220 0.061220 0.499980 -0.490278
O21   O     O_R   0.061220 0.605780 0.499980 -0.490278
O22   O     O_R   0.999940 0.561230 0.064880 -0.467239
O23   O     O_R   0.438770 0.999940 0.064880 -0.467239
O24   O     O_R   0.000060 0.438770 0.064880 -0.467239
O25   O     O_R   0.438780 0.105780 0.000020 -0.490278
O26   O     O_R   0.561230 0.000060 0.064880 -0.467239
O27   O     O_R   0.999940 0.438770 0.935120 -0.467239
O28   O     O_R   0.438770 0.000060 0.935120 -0.467239
O29   O     O_R   0.000060 0.561230 0.935120 -0.467239
O30   O     O_R   0.561230 0.999940 0.935120 -0.467239
O31   O     O_R   0.499940 0.061230 0.564880 -0.467239
O32   O     O_R   0.938770 0.499940 0.564880 -0.467239
O33   O     O_R   0.500060 0.938770 0.564880 -0.467239
O34   O     O_R   0.061230 0.500060 0.564880 -0.467239
O35   O     O_R   0.499940 0.938770 0.435120 -0.467239
O36   O     O_R   0.894220 0.438780 0.000020 -0.490278
O37   O     O_R   0.938770 0.500060 0.435120 -0.467239
O38   O     O_R   0.500060 0.061230 0.435120 -0.467239
O39   O     O_R   0.061230 0.499940 0.435120 -0.467239
O40   O     O_R   0.499980 0.394200 0.037580 -0.493806
O41   O     O_R   0.605800 0.499980 0.037580 -0.493806
O42   O     O_R   0.500020 0.605800 0.037580 -0.493806
O43   O     O_R   0.394200 0.500020 0.037580 -0.493806
O44   O     O_R   0.499980 0.605800 0.962420 -0.493805
O45   O     O_R   0.605800 0.500020 0.962420 -0.493805
O46   O     O_R   0.500020 0.394200 0.962420 -0.493805
O47   O     O_R   0.561220 0.894220 0.000020 -0.490278
O48   O     O_R   0.394200 0.499980 0.962420 -0.493805
O49   O     O_R   0.999980 0.894200 0.537580 -0.493806
O50   O     O_R   0.105800 0.999980 0.537580 -0.493806
O51   O     O_R   0.000020 0.105800 0.537580 -0.493806
O52   O     O_R   0.894200 0.000020 0.537580 -0.493806
O53   O     O_R   0.999980 0.105800 0.462420 -0.493805
O54   O     O_R   0.105800 0.000020 0.462420 -0.493805
O55   O     O_R   0.000020 0.894200 0.462420 -0.493805
O56   O     O_R   0.894200 0.999980 0.462420 -0.493805
O57   O     O_2   0.807802 0.609334 0.321796 -0.442109
O58   O     O_R   0.105780 0.438780 0.999980 -0.490278
O59   O     O_R   0.847726 0.714877 0.290885 -0.621250
O60   O     O_2   0.390666 0.807802 0.321796 -0.442109
O61   O     O_R   0.285122 0.847726 0.290885 -0.621249
O62   O     O_2   0.192198 0.390666 0.321796 -0.442109
O63   O     O_R   0.152274 0.285123 0.290885 -0.621249
O64   O     O_2   0.609334 0.192198 0.321796 -0.442109
O65   O     O_R   0.714878 0.152274 0.290885 -0.621250
O66   O     O_2   0.807802 0.390666 0.678204 -0.442109
O67   O     O_R   0.847726 0.285123 0.709115 -0.621250
O68   O     O_2   0.390666 0.192198 0.678204 -0.442109
O69   O     O_R   0.438780 0.894220 0.999980 -0.490278
O70   O     O_R   0.285122 0.152274 0.709115 -0.621250
O71   O     O_2   0.192198 0.609334 0.678204 -0.442109
O72   O     O_R   0.152274 0.714877 0.709115 -0.621250
O73   O     O_2   0.609334 0.807802 0.678204 -0.442109
O74   O     O_R   0.714877 0.847726 0.709115 -0.621250
O75   O     O_2   0.307802 0.109334 0.821796 -0.442109
O76   O     O_R   0.347726 0.214877 0.790885 -0.621250
O77   O     O_2   0.890666 0.307802 0.821796 -0.442109
O78   O     O_R   0.785122 0.347726 0.790885 -0.621250
O79   O     O_2   0.692198 0.890666 0.821796 -0.442110
O80   O     O_R   0.894220 0.561220 0.999980 -0.490278
O81   O     O_R   0.652274 0.785122 0.790885 -0.621250
O82   O     O_2   0.109334 0.692198 0.821796 -0.442109
O83   O     O_R   0.214878 0.652274 0.790885 -0.621250
O84   O     O_2   0.307802 0.890666 0.178204 -0.442109
O85   O     O_R   0.347726 0.785122 0.209115 -0.621250
O86   O     O_2   0.890666 0.692198 0.178204 -0.442109
O87   O     O_R   0.785122 0.652274 0.209115 -0.621250
O88   O     O_2   0.692198 0.109334 0.178204 -0.442109
O89   O     O_R   0.652274 0.214877 0.209115 -0.621250
O90   O     O_2   0.109334 0.307802 0.178204 -0.442109
O91   O     O_R   0.561220 0.105780 0.999980 -0.490278
O92   O     O_R   0.214877 0.347726 0.209115 -0.621250
O93   O     O_2   0.015120 0.316848 0.352644 -0.471088
O94   O     O_R   0.093358 0.367747 0.401789 -0.638568
O95   O     O_2   0.683152 0.015120 0.352644 -0.471088
O96   O     O_R   0.632253 0.093358 0.401789 -0.638568
O97   O     O_2   0.984880 0.683152 0.352644 -0.471088
O98   O     O_R   0.906642 0.632253 0.401789 -0.638568
O99   O     O_2   0.316848 0.984880 0.352644 -0.471088
O100  O     O_R   0.367747 0.906642 0.401789 -0.638568
O101  O     O_2   0.015120 0.683152 0.647356 -0.471088
O102  O     O_R   0.605780 0.061220 0.500020 -0.490278
O103  O     O_R   0.093358 0.632253 0.598211 -0.638568
O104  O     O_2   0.683152 0.984880 0.647356 -0.471087
O105  O     O_R   0.632253 0.906642 0.598211 -0.638569
O106  O     O_2   0.984880 0.316848 0.647356 -0.471088
O107  O     O_R   0.906642 0.367747 0.598211 -0.638568
O108  O     O_2   0.316848 0.015120 0.647356 -0.471088
O109  O     O_R   0.367747 0.093358 0.598211 -0.638568
O110  O     O_2   0.515120 0.816847 0.852644 -0.471088
O111  O     O_R   0.593358 0.867747 0.901789 -0.638568
O112  O     O_2   0.183152 0.515120 0.852644 -0.471088

loop_
_geom_bond_atom_site_label_1
_geom_bond_atom_site_label_2
_ccdc_geom_bond_type
C74   C91   A    
C67   O43   A    
Cu1   Cu6   S    
H15   O105  S    
C17   O76   S    
H26   O16   S    
C4    C21   S    
C43   C93   S    
C106  C119  A    
C109  C135  A    
C100  C127  A    
Cu5   O69   S    
C110  C136  A    
C130  C135  A    
C10   O62   D    
C102  C129  A    
C108  C121  A    
C66   O42   A    
Cu11  O34   S    
C9    O61   S    
C101  C128  A    
Cu8   O38   S    
C64   O46   A    
Cu9   Cu11  S    
H32   O76   S    
C54   O39   A    
C77   C92   A    
C13   C60   S    
C8    O57   D    
C120  C121  A    
C29   O100  S    
C106  C132  A    
C115  O17   A    
H22   O9    S    
C9    C127  S    
C12   C130  S    
C54   O37   A    
Cu7   O91   S    
C40   C87   S    
H17   O109  S    
C77   C106  A    
C2    C49   S    
C117  C124  A    
C73   C90   A    
Cu9   O19   S    
C32   O106  D    
C36   O112  D    
Cu5   Cu7   S    
C110  C121  A    
C19   O79   D    
C81   C95   A    
C85   C96   A    
C12   O66   D    
C50   C95   S    
C119  C122  A    
Cu7   O26   S    
Cu1   O1    S    
C15   O72   S    
C83   C96   A    
C36   C83   S    
C38   O7    S    
C23   O88   D    
C26   C73   S    
C55   C67   S    
C35   C59   T    
C93   O2    A    
Cu2   O46   S    
C86   C97   A    
Cu12  O42   S    
C70   O51   A    
C6    C114  A    
C18   O77   D    
C8    O59   S    
C75   C90   A    
C84   C108  A    
C88   C112  A    
C30   C77   S    
C16   O74   S    
C22   O87   S    
C58   C66   S    
C37   O5    S    
C15   C132  S    
C3    C111  A    
H8    O92   S    
C53   C91   S    
Cu4   O55   S    
C104  O13   A    
C55   C126  T    
C105  C120  A    
Cu3   O52   S    
C34   C81   S    
Cu2   O44   S    
H12   O61   S    
Cu7   O30   S    
C27   C74   S    
C93   O21   A    
C6    C23   S    
Cu10  O35   S    
C4    C127  A    
C21   O85   S    
C59   C72   S    
C74   C102  A    
Cu9   O32   S    
C20   O82   D    
C32   O107  S    
C46   O24   A    
C4    C112  A    
C99   C117  A    
C53   O35   A    
C111  C122  A    
Cu4   O54   S    
C11   O64   D    
H31   O74   S    
H30   O72   S    
C79   C103  A    
C31   O105  S    
C131  C134  A    
C6    C129  A    
C10   C128  S    
C16   C133  S    
C11   C129  S    
C65   O41   A    
H7    O89   S    
C35   C82   S    
H28   O67   S    
C14   O68   D    
C14   C131  S    
H24   O11   S    
C44   C104  S    
C51   O33   A    
C89   C113  A    
C18   O78   S    
C64   O40   A    
C38   C85   S    
C65   O45   A    
C3    C132  A    
C11   O65   S    
C24   C58   T    
Cu11  O21   S    
C13   C57   T    
Cu11  O39   S    
C1    C126  S    
H21   O7    S    
C112  C123  A    
C105  C131  A    
H6    O87   S    
C104  O20   A    
Cu2   Cu12  S    
H9    O94   S    
C26   O94   S    
C82   O18   A    
C1    O1    A    
C84   C95   A    
C76   C91   A    
C44   C62   T    
C19   C136  S    
H14   O103  S    
C37   O4    D    
C115  O19   A    
Cu9   O2    S    
C45   C63   T    
C30   O101  D    
C72   O56   A    
C62   C69   S    
Cu1   O29   S    
C78   C107  A    
C70   O53   A    
Cu6   O24   S    
C7    C116  A    
Cu10  O18   S    
Cu2   O45   S    
H5    O85   S    
Cu12  O41   S    
C108  C134  A    
C41   O14   S    
C68   O55   A    
C19   O81   S    
Cu8   Cu10  S    
C16   O73   D    
C22   O86   D    
C21   O84   D    
C5    C113  A    
Cu8   O20   S    
C63   C70   S    
C29   O99   D    
C57   C65   S    
C9    O60   D    
C75   C99   A    
C87   C116  A    
C47   O23   A    
C18   C135  S    
C37   C84   S    
C36   O3    S    
Cu6   O27   S    
C48   O29   A    
Cu10  O13   S    
C28   O98   S    
Cu12  O40   S    
C40   O10   D    
C113  C124  A    
C79   C92   A    
H23   O63   S    
C2    C56   T    
C133  C136  A    
C14   O70   S    
C39   O8    D    
C42   O16   S    
H4    O83   S    
C66   O44   A    
H18   O111  S    
C49   O25   A    
C52   O34   A    
H27   O65   S    
C7    C25   S    
Cu8   O102  S    
Cu4   O53   S    
C7    C128  A    
C83   C111  A    
Cu11  O17   S    
C100  C118  A    
C114  C123  A    
C25   O90   D    
C29   C76   S    
C82   O102  A    
C49   O91   A    
C107  C120  A    
H25   O14   S    
C68   O49   A    
C43   C61   T    
C31   C78   S    
C27   O95   D    
C34   O111  S    
Cu1   O80   S    
C53   O38   A    
Cu6   O58   S    
C41   C88   S    
C72   O52   A    
C23   O89   S    
H19   O3    S    
H20   O5    S    
C48   C96   S    
C41   O12   D    
Cu2   O48   S    
Cu3   O51   S    
C71   O47   A    
Cu3   O49   S    
C103  C119  A    
C10   O63   S    
Cu5   O23   S    
Cu7   O47   S    
C45   C115  S    
H13   O100  S    
C102  C118  A    
H16   O107  S    
C26   O93   D    
C33   O109  S    
Cu3   Cu4   S    
C33   C80   S    
C54   C90   S    
C5    C22   S    
C1    O58   A    
C76   C100  A    
C12   O67   S    
C17   O75   D    
C85   C109  A    
C47   C97   S    
C89   C98   A    
C86   C114  A    
C42   C89   S    
C101  C117  A    
C87   C98   A    
C28   O97   D    
C31   O104  D    
C60   O36   A    
C88   C97   A    
Cu6   O36   S    
C20   O83   S    
C3    C20   S    
C69   O50   A    
H2    O78   S    
C32   C79   S    
C38   O6    D    
C28   C75   S    
C61   C68   S    
C60   O80   A    
C56   C64   S    
C40   O11   S    
C15   O71   D    
C67   O48   A    
C78   C94   A    
C39   O9    S    
H29   O70   S    
C80   C105  A    
C48   O27   A    
C73   C101  A    
C30   O103  S    
H1    O59   S    
Cu4   O56   S    
Cu3   O50   S    
C118  C123  A    
Cu8   O31   S    
C46   C98   S    
C42   O15   D    
C109  C122  A    
C103  C130  A    
Cu5   O25   S    
Cu5   O28   S    
C25   O92   S    
C52   C92   S    
H3    O81   S    
C51   C94   S    
C47   O26   A    
C51   O31   A    
C8    C125  S    
C46   O22   A    
Cu9   O37   S    
C81   C110  A    
C50   O30   A    
C107  C133  A    
C99   C125  A    
C5    C125  A    
C17   C134  S    
C52   O32   A    
H11   O98   S    
Cu10  O33   S    
Cu1   O22   S    
Cu12  O43   S    
C39   C86   S    
C116  C124  A    
H10   O96   S    
C80   C94   A    
C71   O69   A    
C69   O54   A    
C24   C71   S    
C27   O96   S    
C34   O110  D    
C33   O108  D    
C50   O28   A    
