data_mof_unit_31200.cif
_audit_creation_date              2013-03-05T16:05:52-0500
_audit_creation_method            fapswitch 2.2
_symmetry_space_group_name_H-M    P1
_symmetry_Int_Tables_number       1
_space_group_crystal_system       triclinic
_cell_length_a                    15.12016
_cell_length_b                    15.317433
_cell_length_c                    15.718236
_cell_angle_alpha                 91.303394
_cell_angle_beta                  104.176718
_cell_angle_gamma                 81.332713
_cell_volume                      3488.8201567

loop_
_atom_site_label
_atom_site_type_symbol
_atom_site_description
_atom_site_fract_x
_atom_site_fract_y
_atom_site_fract_z
_atom_type_partial_charge
O1    O     O_R   0.383120 0.605620 0.475300 -0.583117
O2    O     O_R   0.531890 0.639510 0.506740 -0.568645
C1    C     C_R   0.441676 0.662515 0.490233 0.932345
O3    O     O_R   0.425580 0.483050 0.607130 -0.557061
O4    O     O_R   0.574360 0.516930 0.638570 -0.622731
C2    C     C_R   0.501038 0.500293 0.661380 0.899088
Zn1   Zn    Zn3+2 0.400660 0.477370 0.479010 1.039011
Zn2   Zn    Zn3+2 0.599340 0.522630 0.520990 1.054472
O5    O     O_R   0.468110 0.360490 0.493260 -0.614955
O6    O     O_R   0.616880 0.394380 0.524700 -0.578070
O7    O     O_R   0.425640 0.483070 0.361430 -0.611423
O8    O     O_R   0.574420 0.516950 0.392870 -0.557470
C3    C     C_R   0.558195 0.337926 0.513372 0.936905
C4    C     C_R   0.498961 0.499674 0.338601 0.914494
C5    C     C_3   0.422187 0.574369 0.933342 -0.010024
C6    C     C_3   0.593176 0.521845 0.975105 -0.415915
C7    C     C_3   0.591006 0.520870 0.072803 -0.466873
H1    H     H_    0.430451 0.638139 0.060283 0.089019
H2    H     H_    0.441767 0.639375 0.920717 0.113257
H3    H     H_    0.651425 0.472531 0.964551 0.262775
H4    H     H_    0.606259 0.587757 0.957046 0.195633
H5    H     H_    0.603915 0.586054 0.102001 0.203317
H6    H     H_    0.647412 0.470073 0.109084 0.257410
C8    C     C_1   0.496507 0.499446 0.248992 -0.065293
C9    C     C_3   0.500085 0.501092 0.917211 -0.006776
C10   C     C_3   0.418940 0.572481 0.031447 0.443372
C11   C     C_3   0.496265 0.500553 0.081889 0.036249
C12   C     C_3   0.480802 0.409155 0.041800 -0.372398
C13   C     C_3   0.485676 0.408408 0.944779 0.499530
C14   C     C_1   0.495686 0.499745 0.173365 0.053643
C15   C     C_1   0.502757 0.501202 0.826206 0.051741
C16   C     C_1   0.503082 0.500987 0.750861 -0.054805
H7    H     H_    0.421526 0.388896 0.902796 0.152255
H8    H     H_    0.412351 0.393899 0.046160 0.209581
H9    H     H_    0.533960 0.356577 0.079566 0.235919
C17   C     C_R   0.403756 0.756773 0.487994 -0.196723
C18   C     C_R   0.592922 0.246559 0.540070 -0.116517
C19   C     C_R   0.286453 0.875733 0.415272 0.316197
C20   C     C_R   0.317466 0.785944 0.432030 -0.258516
C21   C     C_R   0.455291 0.817746 0.537639 0.272407
C22   C     C_R   0.423771 0.909436 0.524243 -0.055669
C23   C     C_R   0.341910 0.937969 0.457859 -0.018181
C24   C     C_R   0.476330 0.973858 0.567965 0.095378
C25   C     C_R   0.465483 0.056447 0.526320 0.090653
C26   C     C_R   0.381887 0.085463 0.464947 -0.132300
C27   C     C_R   0.318693 0.027959 0.434672 -0.090336
C28   C     C_R   0.537682 0.960159 0.651703 -0.099921
C29   C     C_R   0.598109 0.019603 0.685032 -0.155778
C30   C     C_R   0.599605 0.093125 0.634899 0.110222
C31   C     C_R   0.535442 0.110038 0.552419 -0.015897
C32   C     C_R   0.662038 0.151759 0.667360 -0.133956
C33   C     C_R   0.655978 0.230066 0.621817 -0.220043
C34   C     C_R   0.542839 0.180599 0.499612 0.225826
H10   H     H_    0.254534 0.053837 0.389094 0.217708
H11   H     H_    0.695749 0.280289 0.653252 0.181460
H12   H     H_    0.644415 0.007431 0.749546 0.174760
H13   H     H_    0.277000 0.738561 0.395394 0.211867
H14   H     H_    0.363845 0.153327 0.441675 0.165788
H15   H     H_    0.537057 0.905632 0.693734 0.198953
H16   H     H_    0.710365 0.140413 0.730929 0.174252
N1    N     N_R   0.731690 0.552720 0.548990 -0.193200
N2    N     N_R   0.268300 0.447240 0.450950 -0.151417
C35   C     C_R   0.838945 0.641650 0.628404 0.595446
C36   C     C_R   0.753973 0.612467 0.612529 -0.095274
C37   C     C_R   0.793087 0.513394 0.503911 0.342455
C38   C     C_R   0.885324 0.530520 0.527552 -0.144363
C39   C     C_R   0.904170 0.602417 0.583956 -0.055290
C40   C     C_R   0.958107 0.481843 0.495024 0.079692
C41   C     C_R   0.042734 0.515170 0.506637 0.086249
C42   C     C_R   0.050211 0.597842 0.547221 -0.114450
C43   C     C_R   0.985596 0.637004 0.590992 -0.047791
C44   C     C_R   0.950739 0.398815 0.455743 -0.191800
C45   C     C_R   0.016208 0.356897 0.413572 0.305705
C46   C     C_R   0.097412 0.393241 0.418947 0.002345
C47   C     C_R   0.115482 0.466444 0.474196 -0.127152
C48   C     C_R   0.162385 0.356668 0.372693 -0.204784
C49   C     C_R   0.246823 0.386754 0.388071 -0.042797
C50   C     C_R   0.207153 0.485276 0.496721 0.382577
H17   H     H_    0.997637 0.697041 0.626940 0.216394
H18   H     H_    0.297575 0.358465 0.353270 0.188517
H19   H     H_    0.703678 0.640563 0.647667 0.236046
H20   H     H_    0.104895 0.634443 0.545214 0.198644
H21   H     H_    0.895980 0.363147 0.460110 0.217128
H22   H     H_    0.148678 0.305461 0.324836 0.210916
N3    N     N_R   0.331822 0.568740 0.873282 0.276557
O9    O     O_R   0.288017 0.502548 0.876895 -0.296562
O10   O     O_R   0.293518 0.632131 0.816442 -0.291430
F1    F     F_    0.333533 0.557595 0.040961 -0.586023
N4    N     N_R   0.510420 0.179491 0.404979 0.201868
O11   O     O_R   0.514126 0.104391 0.364540 -0.323957
O12   O     O_R   0.493632 0.251685 0.357980 -0.385178
N5    N     N_R   0.202013 0.901525 0.350099 0.215976
O13   O     O_R   0.129464 0.865955 0.351475 -0.321717
O14   O     O_R   0.202908 0.944503 0.279927 -0.333329
N6    N     N_R   0.543831 0.786009 0.594071 0.187445
O15   O     O_R   0.618720 0.801297 0.574029 -0.355953
O16   O     O_R   0.549640 0.737058 0.662417 -0.417665
N7    N     N_R   0.241206 0.529180 0.576856 0.200094
O17   O     O_R   0.270320 0.604696 0.575773 -0.368554
O18   O     O_R   0.235161 0.497443 0.650980 -0.327391
N8    N     N_R   0.001695 0.274162 0.371347 0.214046
O19   O     O_R   0.066578 0.206191 0.388197 -0.366379
O20   O     O_R   0.919150 0.262392 0.328563 -0.295059
F2    F     F_    0.857065 0.707634 0.686311 -0.610017
N9    N     N_R   0.759298 0.469469 0.423696 0.216632
O21   O     O_R   0.766630 0.500628 0.349800 -0.370747
O22   O     O_R   0.729977 0.394049 0.424643 -0.352838
F3    F     F_    0.557696 0.344889 0.933871 -0.639712

loop_
_geom_bond_atom_site_label_1
_geom_bond_atom_site_label_2
_geom_bond_distance
_ccdc_geom_bond_type
C9    C15   1.440923 S    
C38   C40   1.428068 A    
C22   C23   1.427204 A    
N8    O19   1.301538 A    
C19   N5    1.435730 S    
C45   C46   1.406296 A    
N2    C49   1.353693 A    
C2    C16   1.399065 S    
N6    O15   1.301627 A    
H1    C10   1.113804 S    
C48   H22   1.081577 S    
C43   H17   1.083753 S    
N3    O9    1.301277 A    
C5    H2    1.115845 S    
N9    O22   1.299901 A    
C10   C11   1.551420 S    
C7    H6    1.113521 S    
C46   C48   1.404626 A    
C6    H3    1.113163 S    
C19   C23   1.413128 A    
C19   C20   1.393706 A    
O7    C4    1.306323 A    
C5    C9    1.564068 S    
C20   H13   1.083965 S    
C13   H7    1.109279 S    
C29   H12   1.083862 S    
C23   C27   1.403722 A    
C4    C8    1.399804 S    
O5    C3    1.314111 A    
C28   C29   1.390276 A    
C12   H9    1.113528 S    
C6    C7    1.544469 S    
C30   C32   1.398875 A    
C50   N7    1.432505 S    
C13   F3    1.387946 S    
C42   C43   1.386189 A    
N4    O12   1.301441 A    
C3    C18   1.451800 S    
C33   H11   1.083580 S    
Zn2   O8    1.958379 S    
Zn2   N1    2.061091 S    
C5    N3    1.471560 S    
C18   C34   1.401487 A    
C45   N8    1.438359 S    
C38   C39   1.416482 A    
C12   H8    1.113057 S    
N8    O20   1.301402 A    
C11   C14   1.440369 S    
C22   C24   1.419704 A    
O3    Zn1   1.958379 S    
C37   N9    1.432789 S    
N3    O10   1.301145 A    
C9    C13   1.555054 S    
C35   C39   1.400587 A    
C26   H14   1.082475 S    
C31   C34   1.411493 A    
C46   C47   1.420518 A    
C32   C33   1.390458 A    
C7    C11   1.551083 S    
C17   C21   1.405955 A    
C48   C49   1.386315 A    
O3    C2    1.304860 A    
C18   C33   1.402114 A    
C40   C41   1.417544 A    
C5    C10   1.555839 S    
C26   C27   1.388212 A    
O1    C1    1.311459 A    
N1    C36   1.354626 A    
Zn1   O7    1.981196 S    
C24   C25   1.406509 A    
Zn1   N2    2.061430 S    
C15   C16   1.185426 T    
C40   C44   1.408656 A    
C27   H10   1.080764 S    
N5    O14   1.301212 A    
C10   F1    1.388121 S    
C21   C22   1.416512 A    
O8    C4    1.305162 A    
C37   C38   1.415597 A    
N7    O18   1.301320 A    
C34   N4    1.448205 S    
C21   N6    1.434278 S    
C25   C26   1.406671 A    
C49   H18   1.081894 S    
C25   C31   1.412409 A    
C6    C9    1.550668 S    
Zn1   O5    1.910892 S    
C12   C13   1.544395 S    
O1    Zn1   1.942537 S    
N2    C50   1.362438 A    
C17   C20   1.398473 A    
O2    Zn2   1.910892 S    
C44   C45   1.393559 A    
O6    C3    1.309068 A    
O4    Zn2   1.981198 S    
N6    O16   1.301763 A    
C6    H4    1.113448 S    
N9    O21   1.301311 A    
C7    H5    1.113392 S    
O2    C1    1.318359 A    
O4    C2    1.306355 A    
C1    C17   1.468816 S    
C29   C30   1.395168 A    
N5    O13   1.301118 A    
N7    O17   1.300027 A    
C41   C47   1.427221 A    
C35   F2    1.358113 S    
C39   C43   1.391382 A    
C41   C42   1.412220 A    
C42   H20   1.073427 S    
C47   C50   1.416073 A    
C8    C14   1.185845 T    
C36   H19   1.079285 S    
C44   H21   1.074527 S    
C28   H15   1.079205 S    
C35   C36   1.387002 A    
N1    C37   1.364168 A    
Zn2   O6    1.942538 S    
C30   C31   1.418636 A    
C11   C12   1.548565 S    
C32   H16   1.083756 S    
N4    O11   1.302004 A    
C24   C28   1.411672 A    
