data_mof_unit_37169.cif
_audit_creation_date              2012-12-11T14:50:39-0500
_audit_creation_method            fapswitch 2.2
_symmetry_space_group_name_H-M    P1
_symmetry_Int_Tables_number       1
_space_group_crystal_system       triclinic
_cell_length_a                    10.996342
_cell_length_b                    10.996715
_cell_length_c                    18.832149
_cell_angle_alpha                 90.26282
_cell_angle_beta                  89.613282
_cell_angle_gamma                 60.704874
_cell_volume                      1985.88977085

loop_
_atom_site_label
_atom_site_type_symbol
_atom_type_description
_atom_site_fract_x
_atom_site_fract_y
_atom_site_fract_z
_atom_type_partial_charge
C1    C     C_R   0.241671 0.644528 0.611103 0.615778
C2    C     C_3   0.662296 0.548556 0.803521 0.523571
C3    C     C_3   0.696092 0.668925 0.814067 -0.043703
C4    C     C_3   0.662542 0.645878 0.678111 -0.080281
C5    C     C_3   0.791661 0.665932 0.690404 0.052940
C6    C     C_3   0.668595 0.521069 0.722078 0.207676
C7    C     C_R   0.785490 0.169426 0.709940 0.180066
C8    C     C_R   0.796143 0.154252 0.784323 0.231234
C9    C     C_R   0.684314 0.157330 0.823842 -0.034252
C10   C     C_R   0.563225 0.178372 0.787229 0.308567
C11   C     C_R   0.565935 0.170774 0.715205 0.431489
C12   C     C_R   0.649582 0.618295 0.602654 0.656197
C13   C     C_R   0.668333 0.177171 0.675263 -0.038208
C14   C     C_R   0.209616 0.548100 0.726112 0.258010
C15   C     C_R   0.196851 0.557252 0.799786 0.430868
C16   C     C_R   0.176518 0.676406 0.835126 -0.015828
C17   C     C_R   0.181697 0.782370 0.797849 -0.131404
C18   C     C_R   0.190513 0.778174 0.725205 0.161158
C19   C     C_R   0.204530 0.660147 0.687085 -0.019076
C20   C     C_R   0.720431 0.503518 0.264593 0.237213
C21   C     C_R   0.724574 0.527572 0.192856 -0.060291
C22   C     C_R   0.643592 0.660974 0.164311 0.006784
C23   C     C_R   0.628695 0.228480 0.602730 0.618457
C24   C     C_R   0.539297 0.766516 0.207363 0.218127
C25   C     C_R   0.528912 0.740122 0.279036 -0.082013
C26   C     C_R   0.623809 0.611735 0.309346 0.021022
C27   C     C_R   0.560468 0.307744 0.273205 0.353141
C28   C     C_R   0.572770 0.281387 0.200622 0.253825
C29   C     C_R   0.655144 0.144139 0.177144 -0.012312
C30   C     C_R   0.716371 0.033718 0.225227 -0.070568
C31   C     C_R   0.707590 0.060445 0.297379 0.356276
C32   C     C_R   0.633378 0.197800 0.320906 0.073178
C33   C     C_R   0.086805 0.812412 0.307111 0.432189
C34   C     C_R   0.217372 0.650825 0.402872 0.616616
C35   C     C_R   0.051746 0.830541 0.236577 0.373611
C36   C     C_R   0.055911 0.720846 0.196075 -0.086404
C37   C     C_R   0.079097 0.596828 0.230668 0.199257
C38   C     C_R   0.115250 0.578740 0.302611 0.225300
C39   C     C_R   0.132199 0.682260 0.338894 -0.029318
C40   C     C_R   0.701443 0.103041 0.896388 0.606355
C41   C     C_R   0.722794 0.686786 0.889121 0.612712
C42   C     C_R   0.118098 0.707310 0.906246 0.601297
C43   C     C_R   0.674545 0.107129 0.103472 0.595144
C44   C     C_R   0.693631 0.689111 0.096742 0.553785
C45   C     C_R   0.617370 0.589472 0.386101 0.589667
C46   C     C_R   0.030530 0.743898 0.119525 0.570705
C47   C     C_R   0.616050 0.230461 0.395044 0.641570
C48   C     C_3   0.570090 0.805880 0.784457 0.191983
C49   C     C_3   0.534531 0.777598 0.708950 0.115277
C50   C     C_3   0.831373 0.636638 0.769186 0.086147
Cr1   Cr    Cr6+3 0.392930 0.397900 0.502230 1.245737
Cr2   Cr    Cr6+3 0.398240 0.708600 0.501260 1.207370
Cr3   Cr    Cr6+3 0.708800 0.393470 0.496460 1.237458
Cr4   Cr    Cr6+3 0.937620 0.938540 0.007640 1.178433
Cr5   Cr    Cr6+3 0.625150 0.937450 0.994520 1.183308
Cr6   Cr    Cr6+3 0.937990 0.625080 0.001190 1.215288
H1    H     H_    0.768501 0.428607 0.709584 0.256248
H2    H     H_    0.174255 0.872422 0.825268 0.243443
H3    H     H_    0.475649 0.844203 0.818929 0.214713
H4    H     H_    0.801015 0.442640 0.160285 0.222014
H5    H     H_    0.449861 0.822877 0.311589 0.209918
H6    H     H_    0.770831 0.926713 0.206420 0.109676
H7    H     H_    0.447679 0.754849 0.713635 0.191370
H8    H     H_    0.874190 0.704978 0.786678 0.120899
H9    H     H_    0.760419 0.777176 0.680981 0.199435
O1    O     O_R   0.507430 0.255570 0.581420 -0.402667
O2    O     O_R   0.524460 0.695920 0.424060 -0.501915
O3    O     O_R   0.736530 0.504260 0.414810 -0.419955
O4    O     O_R   0.691460 0.277160 0.422180 -0.468419
O5    O     O_3   0.499990 0.499990 0.499980 -0.368246
O6    O     O_R   0.089490 0.825610 0.930610 -0.503614
O7    O     O_R   0.818370 0.054540 0.929880 -0.462316
O8    O     O_R   0.605870 0.077310 0.915530 -0.434492
O9    O     O_R   0.646440 0.806700 0.917570 -0.481079
O10   O     O_R   0.837200 0.593290 0.915250 -0.402177
O11   O     O_R   0.065330 0.635370 0.931590 -0.427965
O12   O     O_R   0.280190 0.527390 0.578910 -0.444961
O13   O     O_R   0.068300 0.828790 0.091860 -0.401429
O14   O     O_R   0.798730 0.057480 0.079370 -0.484785
O15   O     O_R   0.584680 0.080480 0.076790 -0.444433
O16   O     O_R   0.626790 0.809640 0.067050 -0.456922
O17   O     O_R   0.816010 0.596460 0.076500 -0.496924
O18   O     O_R   0.045680 0.638310 0.081070 -0.431903
O19   O     O_3   0.833590 0.833690 0.001120 -0.381993
O20   O     O_R   0.260310 0.739740 0.584580 -0.441716
O21   O     O_R   0.532250 0.695150 0.573830 -0.454179
O22   O     O_R   0.744930 0.503430 0.576380 -0.420010
O23   O     O_R   0.699250 0.276390 0.571950 -0.462901
O24   O     O_R   0.499020 0.256400 0.419850 -0.464216
O25   O     O_R   0.272400 0.528160 0.429140 -0.444381
O26   O     O_R   0.251910 0.740570 0.423020 -0.446093
F1    F     F_    0.607753 0.908376 0.782762 -0.624692
Cl1   Cl    Cl    0.966477 0.458807 0.780110 -0.250203
Cl2   Cl    Cl    0.932969 0.582630 0.628024 -0.457039
Cl3   Cl    Cl    0.916725 0.182472 0.661490 -0.332213
Cl4   Cl    Cl    0.947657 0.135792 0.826131 -0.331486
Cl5   Cl    Cl    0.408016 0.192380 0.825474 -0.198025
F2    F     F_    0.461778 0.161808 0.683730 -0.452173
Cl6   Cl    Cl    0.225117 0.397117 0.685959 -0.197435
F3    F     F_    0.197094 0.453403 0.837685 -0.486042
Cl7   Cl    Cl    0.187274 0.925859 0.688286 -0.354092
Cl8   Cl    Cl    0.844818 0.336317 0.294231 -0.386817
Cl9   Cl    Cl    0.423376 0.934804 0.176217 -0.418448
F4    F     F_    0.477198 0.439794 0.297609 -0.640743
Cl10  Cl    Cl    0.483625 0.419368 0.140832 -0.465361
F5    F     F_    0.767839 0.953590 0.343908 -0.611106
F6    F     F_    0.082832 0.921789 0.343095 -0.496593
F7    F     F_    0.016061 0.956634 0.207708 -0.524240
Cl11  Cl    Cl    0.070432 0.458891 0.186235 -0.383682
Cl12  Cl    Cl    0.138398 0.425620 0.345495 -0.342492
Cl13  Cl    Cl    0.475336 0.925339 0.652592 -0.298642
F8    F     F_    0.757087 0.429406 0.837959 -0.511312
Cl14  Cl    Cl    0.498659 0.587793 0.842957 -0.553273
F9    F     F_    0.563444 0.493021 0.702010 -0.673045

loop_
_geom_bond_atom_site_label_1
_geom_bond_atom_site_label_2
_ccdc_geom_bond_type
C49   H7    S    
C50   H8    S    
C3    C48   S    
C35   C36   A    
C8    Cl4   S    
C15   F3    S    
Cr3   O4    S    
Cr4   O19   S    
C5    Cl2   S    
C7    C8    A    
C2    F8    S    
C29   C30   A    
C48   H3    S    
C11   F2    S    
Cr6   O11   S    
C23   O1    A    
C36   C37   A    
C44   O17   A    
Cr1   O12   S    
Cr1   O25   S    
C30   C31   A    
C2    Cl14  S    
C20   Cl8   S    
C43   O14   A    
C15   C16   A    
C27   F4    S    
C1    O12   A    
C40   O8    A    
C13   C23   S    
C18   C19   A    
Cr3   O3    S    
C47   O4    A    
C34   O26   A    
C6    F9    S    
C35   F7    S    
C26   C45   S    
C41   O9    A    
Cr5   O9    S    
C22   C44   S    
Cr4   O6    S    
C32   C47   S    
C16   C17   A    
C33   F6    S    
C45   O2    A    
C36   C46   S    
Cr1   O5    S    
Cr5   O16   S    
C9    C10   A    
C37   Cl11  S    
C17   H2    S    
C49   Cl13  S    
Cr6   O10   S    
C21   C22   A    
C29   C43   S    
C47   O24   A    
C6    H1    S    
C2    C6    S    
Cr3   O5    S    
C3    C50   S    
Cr6   O19   S    
C1    O20   A    
C1    C19   S    
C34   C39   S    
C14   Cl6   S    
C24   C25   A    
C21   H4    S    
C5    H9    S    
C44   O16   A    
C46   O13   A    
C8    C9    A    
C25   H5    S    
C43   O15   A    
C9    C40   S    
Cr1   O1    S    
C10   Cl5   S    
C34   O25   A    
C37   C38   A    
C41   O10   A    
C31   C32   A    
C28   Cl10  S    
C45   O3    A    
C17   C18   A    
Cr3   O22   S    
C33   C39   A    
Cr2   O2    S    
C4    C6    S    
C48   C49   S    
Cr2   O20   S    
C23   O23   A    
C30   H6    S    
C31   F5    S    
C22   C24   A    
C5    C50   S    
C38   Cl12  S    
C28   C29   A    
C16   C42   S    
Cr6   O18   S    
Cr4   O14   S    
C3    C41   S    
C40   O7    A    
C12   O22   A    
C27   C32   A    
C14   C19   A    
C4    C5    S    
C50   Cl1   S    
Cr6   O17   S    
C7    Cl3   S    
C42   O11   A    
C12   O21   A    
C4    C49   S    
C24   Cl9   S    
Cr2   O21   S    
C2    C3    S    
C25   C26   A    
Cr1   O24   S    
Cr5   O15   S    
C11   C13   A    
C38   C39   A    
C20   C26   A    
C42   O6    A    
C33   C35   A    
Cr3   O23   S    
Cr2   O5    S    
C10   C11   A    
C46   O18   A    
Cr5   O8    S    
C7    C13   A    
Cr4   O7    S    
C20   C21   A    
C48   F1    S    
C27   C28   A    
C14   C15   A    
Cr2   O26   S    
Cr5   O19   S    
C4    C12   S    
C18   Cl7   S    
Cr4   O13   S    
