data_mof_unit_59680.cif
_audit_creation_date              2012-12-10T16:54:54-0500
_audit_creation_method            fapswitch 2.2
_symmetry_space_group_name_H-M    P1
_symmetry_Int_Tables_number       1
_space_group_crystal_system       triclinic
_cell_length_a                    7.926597
_cell_length_b                    8.552092
_cell_length_c                    15.723441
_cell_angle_alpha                 92.461716
_cell_angle_beta                  85.18671
_cell_angle_gamma                 93.272485
_cell_volume                      1059.60485249

loop_
_atom_site_label
_atom_site_type_symbol
_atom_type_description
_atom_site_fract_x
_atom_site_fract_y
_atom_site_fract_z
_atom_type_partial_charge
C1    C     C_R   0.545091 0.794075 0.502683 0.847593
C2    C     C_2   0.434734 0.042781 0.509321 -0.404553
C3    C     C_R   0.500980 0.500095 0.661074 0.889619
C4    C     C_R   0.455732 0.206648 0.506106 0.957390
C5    C     C_R   0.499066 0.499413 0.338884 0.891540
C6    C     C_3   0.339897 0.541347 0.956085 -0.465325
C7    C     C_3   0.656939 0.599308 0.947543 -0.170393
C8    C     C_3   0.644259 0.606822 0.047211 -0.053459
C9    C     C_1   0.496597 0.494935 0.250120 -0.193583
C10   C     C_3   0.512952 0.482781 0.915550 0.076837
C11   C     C_3   0.091407 0.323660 0.051789 -0.779743
C12   C     C_3   0.331834 0.537202 0.055462 0.013755
C13   C     C_3   0.656121 0.137588 0.140660 -0.864973
C14   C     C_2   0.725121 0.017152 0.559845 1.002347
C15   C     C_3   0.067764 0.714604 0.645279 -0.589449
C16   C     C_2   0.836224 0.584014 0.905559 0.958735
C17   C     C_3   0.883074 0.742322 0.116001 -0.751793
C18   C     C_3   0.625641 0.050347 0.899804 -0.822102
C19   C     C_3   0.503702 0.484206 0.082553 0.121415
C20   C     C_3   0.530256 0.313125 0.044720 0.059345
C21   C     C_3   0.522721 0.310141 0.944695 0.005426
C22   C     C_1   0.497621 0.489495 0.174709 -0.048157
C23   C     C_1   0.508406 0.489112 0.824322 -0.052928
C24   C     C_1   0.503773 0.494992 0.749508 -0.133213
C25   C     C_2   0.567651 0.956970 0.520235 -0.327453
H1    H     H_    0.315849 0.660269 0.079951 0.115403
H2    H     H_    0.135448 0.486603 0.153558 0.231423
H3    H     H_    0.015782 0.252368 0.099816 0.236884
H4    H     H_    0.171256 0.242436 0.012737 0.225178
H5    H     H_    0.007158 0.378852 0.010585 0.272854
H6    H     H_    0.775123 0.219734 0.027447 0.284837
H7    H     H_    0.779537 0.112121 0.163952 0.244478
H8    H     H_    0.595585 0.026289 0.116162 0.231928
H9    H     H_    0.574618 0.184454 0.195554 0.262089
H10   H     H_    0.881751 0.950127 0.458423 0.308271
H11   H     H_    0.856218 0.657918 0.585481 0.282323
H12   H     H_    0.233629 0.472955 0.928330 0.218806
H13   H     H_    0.998894 0.809790 0.680955 0.212635
H14   H     H_    0.197638 0.762598 0.628377 0.262492
H15   H     H_    0.068367 0.614664 0.688046 0.227126
H16   H     H_    0.001849 0.465351 0.826513 0.332202
H17   H     H_    0.818900 0.504572 0.121815 0.271675
H18   H     H_    0.015697 0.726726 0.129767 0.234037
H19   H     H_    0.810015 0.780055 0.176064 0.221469
H20   H     H_    0.884208 0.835492 0.068802 0.271061
H21   H     H_    0.675459 0.248092 0.833527 0.314006
H22   H     H_    0.520311 0.008728 0.860662 0.239653
H23   H     H_    0.313798 0.991877 0.490555 0.206080
H24   H     H_    0.594275 0.012868 0.966067 0.243232
H25   H     H_    0.742932 0.994130 0.873782 0.272963
H26   H     H_    0.009664 0.372184 0.440055 0.181969
H27   H     H_    0.326005 0.664239 0.937950 0.192073
H28   H     H_    0.624516 0.717060 0.928160 0.092327
H29   H     H_    0.596411 0.724429 0.067191 0.128839
H30   H     H_    0.400028 0.250278 0.929738 0.132450
H31   H     H_    0.419946 0.237406 0.069593 0.160373
N1    N     N_2   0.950340 0.457950 0.477370 -0.139813
N2    N     N_2   0.049660 0.542050 0.522630 0.006965
N3    N     N_2   0.189925 0.443328 0.096111 -0.289526
N4    N     N_2   0.682185 0.249825 0.073474 -0.303444
N5    N     N_2   0.982442 0.666975 0.570064 -0.202054
N6    N     N_2   0.808076 0.596114 0.082615 -0.264610
N7    N     N_2   0.652275 0.219354 0.896470 -0.259241
O1    O     O_R   0.389240 0.738570 0.505550 -0.602439
O2    O     O_R   0.886005 0.997905 0.518329 -0.772112
O3    O     O_2   0.943775 0.689023 0.917831 -0.650066
O4    O     O_R   0.878851 0.458101 0.850236 -0.821766
O5    O     O_R   0.678400 0.711630 0.491050 -0.653408
O6    O     O_R   0.355360 0.513470 0.630110 -0.627902
O7    O     O_R   0.644510 0.486530 0.615610 -0.618464
O8    O     O_R   0.321600 0.288370 0.508950 -0.608097
O9    O     O_R   0.610760 0.261430 0.494450 -0.604479
O10   O     O_R   0.355490 0.513470 0.384390 -0.621717
O11   O     O_R   0.644640 0.486530 0.369890 -0.612159
O12   O     O_2   0.713336 0.085389 0.629754 -0.586509
Zn1   Zn    Zn3+2 0.306930 0.517990 0.509680 0.977669
Zn2   Zn    Zn3+2 0.693070 0.482010 0.490320 0.975157

loop_
_geom_bond_atom_site_label_1
_geom_bond_atom_site_label_2
_ccdc_geom_bond_type
H6    N4    S    
C6    C10   S    
C7    C10   S    
C2    C4    S    
C23   C24   T    
C17   H18   S    
C15   H13   S    
C5    C9    S    
O9    Zn2   S    
H26   N1    S    
C17   N6    S    
C20   N4    S    
H17   N6    S    
C13   H7    S    
C19   C20   S    
H21   N7    S    
C20   H31   S    
C6    H27   S    
C14   O12   D    
C3    O7    A    
N2    N5    S    
O1    Zn1   S    
C17   H19   S    
N2    Zn1   S    
C7    C8    S    
C10   C21   S    
C16   O4    S    
H2    N3    S    
C18   H22   S    
O7    Zn2   S    
C6    C12   S    
C15   N5    S    
C15   H14   S    
N1    N2    D    
C11   H3    S    
C11   H5    S    
C11   N3    S    
C12   C19   S    
C7    C16   S    
C3    O6    A    
C3    C24   S    
C17   H20   S    
C9    C22   T    
C2    C25   D    
C8    N6    S    
C14   C25   S    
C5    O10   A    
O8    Zn1   S    
C10   C23   S    
O10   Zn1   S    
C18   N7    S    
C6    H12   S    
C8    C19   S    
C16   O3    D    
C11   H4    S    
C7    H28   S    
C15   H15   S    
H11   N5    S    
C1    O1    A    
N1    Zn2   S    
C4    O9    A    
C1    O5    A    
C20   C21   S    
C18   H25   S    
O6    Zn1   S    
H16   O4    S    
C19   C22   S    
C8    H29   S    
O5    Zn2   S    
C13   N4    S    
H10   O2    S    
C5    O11   A    
C21   H30   S    
C13   H9    S    
C13   H8    S    
C2    H23   S    
C12   N3    S    
C1    C25   S    
C4    O8    A    
C18   H24   S    
C12   H1    S    
C14   O2    S    
O11   Zn2   S    
C21   N7    S    
