data_mof_unit_26144.cif
_audit_creation_date              2012-12-11T14:23:13-0500
_audit_creation_method            fapswitch 2.2
_symmetry_space_group_name_H-M    P1
_symmetry_Int_Tables_number       1
_space_group_crystal_system       triclinic
_cell_length_a                    11.011536
_cell_length_b                    10.968867
_cell_length_c                    18.862615
_cell_angle_alpha                 90.267239
_cell_angle_beta                  89.856762
_cell_angle_gamma                 59.882687
_cell_volume                      1970.67985752

loop_
_atom_site_label
_atom_site_type_symbol
_atom_type_description
_atom_site_fract_x
_atom_site_fract_y
_atom_site_fract_z
_atom_type_partial_charge
C1    C     C_R   0.234325 0.646590 0.609283 0.538392
C2    C     C_R   0.577016 0.144218 0.709677 -0.156127
C3    C     C_R   0.583497 0.140198 0.781865 -0.140576
C4    C     C_R   0.629451 0.588463 0.609017 0.562529
C5    C     C_R   0.918271 0.142590 0.811922 -0.106908
C6    C     C_R   0.027799 0.134307 0.771184 -0.156504
C7    C     C_R   0.027575 0.121281 0.697878 -0.147478
C8    C     C_R   0.916078 0.120462 0.664510 -0.095349
C9    C     C_R   0.677772 0.154738 0.670132 -0.005809
C10   C     C_R   0.174156 0.671085 0.832834 0.029845
C11   C     C_R   0.192158 0.549830 0.796819 0.038509
C12   C     C_3   0.807660 0.511119 0.789997 -0.216449
C13   C     C_R   0.183756 0.550691 0.721633 0.022299
C14   C     C_R   0.178032 0.774882 0.721348 -0.164635
C15   C     C_R   0.173948 0.779109 0.794177 -0.138019
C16   C     C_R   0.630991 0.223413 0.601047 0.534303
C17   C     C_R   0.221365 0.426720 0.833819 -0.068108
C18   C     C_R   0.227848 0.312605 0.798389 -0.144008
C19   C     C_R   0.204273 0.319288 0.725877 -0.147259
C20   C     C_R   0.178742 0.438122 0.687898 -0.092647
C21   C     C_R   0.184650 0.662043 0.683456 -0.013079
C22   C     C_R   0.656227 0.674840 0.169056 0.001748
C23   C     C_3   0.693117 0.660274 0.815544 0.060282
C24   C     C_R   0.710839 0.538167 0.196218 0.021857
C25   C     C_R   0.739775 0.517525 0.269234 0.031314
C26   C     C_R   0.613188 0.771880 0.288691 -0.168047
C27   C     C_R   0.615858 0.789345 0.215860 -0.152496
C28   C     C_R   0.287365 0.621942 0.392827 0.565133
C29   C     C_R   0.762074 0.420306 0.150226 -0.084963
C30   C     C_R   0.873001 0.291440 0.171034 -0.117753
C31   C     C_R   0.920660 0.273912 0.240240 -0.153399
C32   C     C_R   0.851754 0.382535 0.289689 -0.093581
C33   C     C_R   0.668447 0.637155 0.316212 0.001689
C34   C     C_3   0.651109 0.616817 0.683630 0.028361
C35   C     C_R   0.656628 0.150191 0.177832 0.000759
C36   C     C_R   0.523187 0.208896 0.209214 0.016722
C37   C     C_R   0.516049 0.193370 0.282474 0.033943
C38   C     C_R   0.766452 0.111192 0.293075 -0.157200
C39   C     C_R   0.777643 0.092851 0.220632 -0.144290
C40   C     C_R   0.643772 0.618699 0.391076 0.547344
C41   C     C_R   0.398795 0.268058 0.168678 -0.085502
C42   C     C_R   0.276418 0.281436 0.196980 -0.116949
C43   C     C_R   0.271713 0.250467 0.267697 -0.152869
C44   C     C_R   0.390373 0.204189 0.309824 -0.096480
C45   C     C_3   0.685984 0.737119 0.687838 -0.235067
C46   C     C_R   0.635703 0.166951 0.324559 0.006393
C47   C     C_R   0.167982 0.657392 0.177934 0.015050
C48   C     C_R   0.259032 0.706380 0.198646 0.011567
C49   C     C_R   0.275172 0.721072 0.271360 0.013343
C50   C     C_R   0.168058 0.578684 0.296515 -0.110848
C51   C     C_R   0.113422 0.603978 0.229062 -0.040135
C52   C     C_R   0.615435 0.227092 0.395552 0.541270
C53   C     C_R   0.308431 0.768639 0.149418 -0.079578
C54   C     C_R   0.321469 0.882641 0.170459 -0.104726
C55   C     C_R   0.312375 0.915905 0.241976 -0.147470
C56   C     C_3   0.774450 0.481411 0.715940 -0.228414
C57   C     C_R   0.303440 0.828426 0.292304 -0.103174
C58   C     C_R   0.246770 0.638553 0.319042 -0.003730
C59   C     C_R   0.704551 0.097294 0.894417 0.560960
C60   C     C_R   0.722995 0.685786 0.888899 0.576708
C61   C     C_R   0.118015 0.705836 0.905434 0.554392
C62   C     C_R   0.676306 0.105081 0.104426 0.536463
C63   C     C_R   0.695190 0.690547 0.097199 0.535354
C64   C     C_3   0.546201 0.674393 0.808586 -0.045645
C65   C     C_R   0.095057 0.707426 0.111518 0.537709
C66   C     C_3   0.518406 0.657930 0.729361 -0.217957
C67   C     C_R   0.695694 0.136876 0.818940 0.025687
C68   C     C_3   0.699868 0.769577 0.765993 -0.256820
C69   C     C_3   0.981839 0.597208 0.218021 -0.356701
C70   C     C_R   0.805242 0.138088 0.779537 0.027042
C71   C     C_R   0.800053 0.136978 0.704005 0.014070
Cr1   Cr    Cr6+3 0.392940 0.397950 0.502230 0.992600
Cr2   Cr    Cr6+3 0.398400 0.708500 0.501260 0.986487
Cr3   Cr    Cr6+3 0.708640 0.393530 0.496460 0.988046
Cr4   Cr    Cr6+3 0.937880 0.938320 0.007620 0.996448
Cr5   Cr    Cr6+3 0.625560 0.937220 0.994510 1.002408
Cr6   Cr    Cr6+3 0.938080 0.625010 0.001190 0.998056
H1    H     H_    0.464211 0.780572 0.827552 0.129588
H2    H     H_    0.923837 0.102590 0.607851 0.136791
H3    H     H_    0.186190 0.856828 0.694624 0.150039
H4    H     H_    0.245534 0.415028 0.889773 0.143641
H5    H     H_    0.168897 0.869250 0.820488 0.151595
H6    H     H_    0.254101 0.217931 0.827460 0.094209
H7    H     H_    0.211336 0.230061 0.698254 0.100480
H8    H     H_    0.154123 0.439972 0.632447 0.138234
H9    H     H_    0.569325 0.863222 0.323465 0.116470
H10   H     H_    0.728487 0.431630 0.095522 0.136069
H11   H     H_    0.584201 0.893577 0.195943 0.148331
H12   H     H_    0.872101 0.439083 0.683535 0.154622
H13   H     H_    0.923420 0.205675 0.133167 0.130132
H14   H     H_    0.009453 0.174301 0.256158 0.109308
H15   H     H_    0.485827 0.577538 0.723181 0.150747
H16   H     H_    0.900942 0.360362 0.340826 0.147756
H17   H     H_    0.859361 0.081949 0.324415 0.128476
H18   H     H_    0.396879 0.297921 0.113923 0.135487
H19   H     H_    0.882405 0.035634 0.198156 0.156248
H20   H     H_    0.186841 0.311839 0.163250 0.115261
H21   H     H_    0.177265 0.258284 0.289682 0.100423
H22   H     H_    0.383439 0.168520 0.362126 0.138110
H23   H     H_    0.800388 0.769293 0.773259 0.125603
H24   H     H_    0.133368 0.527952 0.334139 0.145525
H25   H     H_    0.317350 0.743108 0.093392 0.135561
H26   H     H_    0.431405 0.760022 0.710114 0.116978
H27   H     H_    0.342046 0.942820 0.131818 0.126954
H28   H     H_    0.328209 0.999965 0.259120 0.119592
H29   H     H_    0.311643 0.854553 0.346229 0.163722
H30   H     H_    0.612866 0.876799 0.779649 0.125350
H31   H     H_    0.602254 0.834242 0.662290 0.131854
H32   H     H_    0.911922 0.504576 0.788941 0.148278
H33   H     H_    0.816720 0.428279 0.826762 0.169326
H34   H     H_    0.786080 0.705391 0.659138 0.137988
H35   H     H_    0.743954 0.399569 0.718636 0.157437
H36   H     H_    0.947390 0.570796 0.267870 0.118774
H37   H     H_    0.896567 0.702448 0.201453 0.151234
H38   H     H_    0.996860 0.517481 0.177774 0.177013
H39   H     H_    0.486250 0.148254 0.685211 0.146311
H40   H     H_    0.922729 0.156962 0.868183 0.149093
H41   H     H_    0.500034 0.133739 0.808326 0.148121
H42   H     H_    0.115938 0.131733 0.797128 0.104604
H43   H     H_    0.116527 0.105178 0.666436 0.098840
I1    I     I_    0.526595 0.524760 0.874941 -0.499477
O1    O     O_R   0.507340 0.255690 0.581430 -0.521432
O2    O     O_R   0.837290 0.593240 0.915240 -0.521295
O3    O     O_R   0.065320 0.635310 0.931580 -0.516769
O4    O     O_R   0.280360 0.527380 0.578910 -0.504290
O5    O     O_R   0.068470 0.828620 0.091850 -0.531300
O6    O     O_R   0.799150 0.057200 0.079350 -0.513814
O7    O     O_R   0.585220 0.080180 0.076770 -0.529608
O8    O     O_R   0.627170 0.809480 0.067050 -0.504926
O9    O     O_R   0.816200 0.596410 0.076500 -0.530178
O10   O     O_R   0.045770 0.638240 0.081070 -0.513212
O11   O     O_3   0.833840 0.833520 0.001110 -0.248738
O12   O     O_R   0.524510 0.695820 0.424050 -0.522260
O13   O     O_R   0.260600 0.739610 0.584580 -0.532528
O14   O     O_R   0.532370 0.695050 0.573830 -0.506182
O15   O     O_R   0.744850 0.503430 0.576380 -0.526312
O16   O     O_R   0.699080 0.276500 0.571950 -0.525659
O17   O     O_R   0.498860 0.256520 0.419860 -0.543669
O18   O     O_R   0.272490 0.528150 0.429140 -0.505426
O19   O     O_R   0.252110 0.740440 0.423010 -0.538271
O20   O     O_R   0.736370 0.504260 0.414810 -0.533534
O21   O     O_R   0.691220 0.277270 0.422180 -0.502195
O22   O     O_3   0.499990 0.499990 0.499980 -0.275654
O23   O     O_R   0.089570 0.825450 0.930590 -0.523503
O24   O     O_R   0.818700 0.054260 0.929860 -0.510725
O25   O     O_R   0.606310 0.077010 0.915520 -0.530505
O26   O     O_R   0.646730 0.806540 0.917560 -0.507043

loop_
_geom_bond_atom_site_label_1
_geom_bond_atom_site_label_2
_ccdc_geom_bond_type
Cr1   O22   S    
Cr3   O22   S    
C34   C56   S    
Cr5   O11   S    
C41   C42   A    
C16   O16   A    
C28   O19   A    
C43   H21   S    
C30   H13   S    
C34   C66   S    
C12   H33   S    
C7    C8    A    
C53   C54   A    
Cr4   O24   S    
C1    C21   S    
C12   C23   S    
C69   H36   S    
C26   C27   A    
C29   C30   A    
C55   H28   S    
C61   O3    A    
C5    C6    A    
C14   C21   A    
C54   H27   S    
C36   C37   A    
C9    C16   S    
C1    O4    A    
C10   C15   A    
C30   C31   A    
C44   H22   S    
C64   I1    S    
C46   C52   S    
C49   C57   A    
C18   C19   A    
Cr6   O10   S    
C63   O9    A    
C16   O1    A    
C24   C29   A    
C61   O23   A    
C59   C67   S    
C22   C63   S    
C2    H39   S    
Cr1   O18   S    
C69   H38   S    
C19   C20   A    
Cr5   O26   S    
Cr3   O15   S    
C8    H2    S    
C52   O17   A    
C70   C71   A    
C60   O26   A    
C14   H3    S    
C17   H4    S    
C45   H31   S    
C4    O15   A    
C25   C32   A    
Cr1   O17   S    
C32   H16   S    
Cr3   O21   S    
Cr5   O25   S    
C40   O20   A    
C36   C41   A    
C23   C60   S    
C28   O18   A    
C66   H26   S    
C12   H32   S    
C65   O10   A    
C18   H6    S    
C15   H5    S    
C48   C53   A    
Cr3   O16   S    
C4    C34   S    
C69   H37   S    
C33   C40   S    
C38   C46   A    
C50   C58   A    
Cr2   O14   S    
C38   C39   A    
C24   C25   A    
Cr4   O23   S    
C42   H20   S    
C66   H15   S    
C50   C51   A    
C52   O21   A    
C49   C58   A    
C5    H40   S    
Cr6   O11   S    
C64   C66   S    
C23   C68   S    
C60   O2    A    
C35   C39   A    
C43   C44   A    
C68   H23   S    
C5    C70   A    
Cr6   O2    S    
C3    H41   S    
Cr5   O8    S    
C26   C33   A    
C47   C48   A    
C53   H25   S    
C26   H9    S    
C20   H8    S    
C38   H17   S    
C45   C68   S    
C17   C18   A    
C13   C21   A    
C34   C45   S    
C12   C56   S    
C4    O14   A    
C59   O24   A    
C48   C49   A    
C68   H30   S    
Cr3   O20   S    
Cr2   O12   S    
C31   H14   S    
C22   C27   A    
C55   C57   A    
Cr5   O7    S    
C22   C24   A    
C10   C61   S    
C42   C43   A    
C1    O13   A    
C6    H42   S    
Cr4   O11   S    
Cr2   O22   S    
C56   H12   S    
C54   C55   A    
C11   C17   A    
C8    C71   A    
C13   C20   A    
Cr1   O1    S    
C64   H1    S    
C7    H43   S    
C31   C32   A    
C3    C67   A    
C9    C71   A    
C47   C51   A    
C45   H34   S    
C6    C7    A    
Cr2   O19   S    
C28   C58   S    
C40   O12   A    
Cr1   O4    S    
C67   C70   A    
C65   O5    A    
Cr4   O5    S    
C37   C44   A    
C2    C3    A    
C23   C64   S    
Cr6   O3    S    
C62   O7    A    
C11   C13   A    
C41   H18   S    
C47   C65   S    
C57   H29   S    
C35   C62   S    
Cr4   O6    S    
Cr6   O9    S    
C63   O8    A    
C27   H11   S    
C39   H19   S    
C29   H10   S    
C10   C11   A    
C59   O25   A    
C62   O6    A    
Cr2   O13   S    
C50   H24   S    
C14   C15   A    
C35   C36   A    
C51   C69   S    
C37   C46   A    
C2    C9    A    
C56   H35   S    
C19   H7    S    
C25   C33   A    
