data_mof_unit_19465.cif
_audit_creation_date              2012-10-26T20:13:52-0400
_audit_creation_method            fapswitch 2.2
_symmetry_space_group_name_H-M    P1
_symmetry_Int_Tables_number       1
_space_group_crystal_system       triclinic
_cell_length_a                    8.729455
_cell_length_b                    10.867313
_cell_length_c                    9.555404
_cell_angle_alpha                 90.250776
_cell_angle_beta                  97.796065
_cell_angle_gamma                 90.300047
_cell_volume                      898.077671109

loop_
_atom_site_label
_atom_site_type_symbol
_atom_type_description
_atom_site_fract_x
_atom_site_fract_y
_atom_site_fract_z
_atom_type_partial_charge
C1    C     C_R   0.498641 0.262788 0.499410 0.552565
C2    C     C_R   0.633748 0.519989 0.942948 0.159070
C3    C     C_3   0.734782 0.631061 0.948440 -0.279551
C4    C     C_R   0.203952 0.499035 0.463940 0.551246
C5    C     C_3   0.731216 0.635058 0.106781 -0.278517
C6    C     C_R   0.500124 0.737326 0.500083 0.555744
C7    C     C_R   0.796097 0.500049 0.536156 0.546833
C8    C     C_2   0.038220 0.496172 0.444352 -0.155387
C9    C     C_2   0.961949 0.501211 0.556163 -0.154651
C10   C     C_R   0.485035 0.062973 0.618123 -0.015185
C11   C     C_R   0.496799 0.130254 0.497141 0.006627
C12   C     C_R   0.509163 0.934991 0.372109 -0.169471
C13   C     C_R   0.508215 0.064095 0.371526 -0.164060
C14   C     C_3   0.319737 0.854942 0.947780 -0.303893
C15   C     C_R   0.499488 0.870062 0.498456 0.003040
C16   C     C_R   0.487771 0.938931 0.619165 0.034698
C17   C     C_3   0.475841 0.932527 0.773338 0.016591
C18   C     C_3   0.470253 0.074458 0.771179 -0.247407
C19   C     C_R   0.633300 0.521570 0.090146 0.158609
C20   C     C_R   0.371765 0.466985 0.058188 -0.022996
C21   C     C_R   0.371693 0.467155 0.909668 -0.013880
Cu1   Cu    Cu3+1 0.499990 0.499980 0.640670 0.949895
Cu2   Cu    Cu3+1 0.500010 0.500020 0.359330 0.929733
H1    H     H_    0.978793 0.488952 0.337231 0.115745
H2    H     H_    0.581159 0.894921 0.836199 0.123957
H3    H     H_    0.357420 0.114430 0.788894 0.137200
H4    H     H_    0.573649 0.118615 0.832215 0.121135
H5    H     H_    0.267168 0.441332 0.099840 0.117681
H6    H     H_    0.233385 0.909771 0.743254 0.254682
H7    H     H_    0.210695 0.804502 0.957242 0.141531
H8    H     H_    0.318777 0.944479 0.004269 0.131253
H9    H     H_    0.417845 0.798440 0.997518 0.154122
H10   H     H_    0.267038 0.441610 0.841927 0.113060
H11   H     H_    0.850970 0.609475 0.919770 0.120850
H12   H     H_    0.676501 0.709713 0.891166 0.145128
H13   H     H_    0.846349 0.618900 0.168425 0.123147
H14   H     H_    0.668521 0.715921 0.141800 0.135381
H15   H     H_    0.021484 0.507107 0.663571 0.115580
H16   H     H_    0.517135 0.111306 0.273340 0.135318
H17   H     H_    0.518208 0.886843 0.274122 0.125342
N1    N     N_R   0.500980 0.500930 0.148050 -0.233986
N2    N     N_R   0.500990 0.500890 0.852140 -0.227008
N3    N     N_2   0.332399 0.874861 0.800335 -0.490517
O1    O     O_R   0.500000 0.319640 0.618810 -0.501333
O2    O     O_R   0.500020 0.319680 0.381230 -0.506936
O3    O     O_R   0.274830 0.499980 0.591380 -0.504598
O4    O     O_R   0.274850 0.500020 0.353800 -0.512026
O5    O     O_R   0.499980 0.680320 0.618770 -0.477742
O6    O     O_R   0.500000 0.680360 0.381190 -0.512143
O7    O     O_R   0.725150 0.499980 0.646200 -0.505370
O8    O     O_R   0.725170 0.500020 0.408620 -0.499108

loop_
_geom_bond_atom_site_label_1
_geom_bond_atom_site_label_2
_ccdc_geom_bond_type
C12   H17   S    
Cu1   O5    S    
C17   N3    S    
Cu2   N1    S    
C5    C19   S    
C5    H14   S    
C1    O1    A    
Cu2   O8    S    
C18   H3    S    
C12   C15   A    
C3    H12   S    
C14   H8    S    
C4    C8    S    
C17   H2    S    
Cu2   O4    S    
C2    C3    S    
C2    C19   A    
C7    O8    A    
C10   C16   A    
H6    N3    S    
C12   C13   A    
C11   C13   A    
C1    O2    A    
Cu1   N2    S    
C6    O5    A    
C2    N2    A    
Cu2   O2    S    
C9    H15   S    
C8    H1    S    
C14   H7    S    
C20   N1    A    
C6    O6    A    
C10   C18   S    
C16   C17   S    
Cu2   O6    S    
C13   H16   S    
C10   C11   A    
C15   C16   A    
C5    H13   S    
C19   N1    A    
Cu1   O7    S    
C21   H10   S    
C20   C21   A    
C17   C18   S    
C7    C9    S    
Cu1   Cu2   S    
C8    C9    D    
C4    O3    A    
C20   H5    S    
C3    H11   S    
Cu1   O3    S    
C6    C15   S    
Cu1   O1    S    
C18   H4    S    
C21   N2    A    
C7    O7    A    
C14   H9    S    
C14   N3    S    
C3    C5    S    
C4    O4    A    
C1    C11   S    
