data_mof_unit_8668.cif
_audit_creation_date              2012-12-10T19:42:54-0500
_audit_creation_method            fapswitch 2.2
_symmetry_space_group_name_H-M    P1
_symmetry_Int_Tables_number       1
_space_group_crystal_system       triclinic
_cell_length_a                    10.911701
_cell_length_b                    12.951718
_cell_length_c                    11.751881
_cell_angle_alpha                 99.002333
_cell_angle_beta                  94.503114
_cell_angle_gamma                 92.246745
_cell_volume                      1633.07844117

loop_
_atom_site_label
_atom_site_type_symbol
_atom_type_description
_atom_site_fract_x
_atom_site_fract_y
_atom_site_fract_z
_atom_type_partial_charge
C1    C     C_R   0.503160 0.299734 0.479126 0.848000
C2    C     C_R   0.496840 0.700266 0.520874 0.848000
C3    C     C_R   0.871923 0.500652 0.503532 -0.100715
C4    C     C_R   0.128077 0.499346 0.496468 -0.100714
C5    C     C_R   0.949898 0.523036 0.607528 0.085496
C6    C     C_R   0.050102 0.476961 0.392472 0.085496
C7    C     C_R   0.487347 0.812883 0.532089 -0.125974
C8    C     C_R   0.512653 0.187117 0.467910 -0.125974
C9    C     C_R   0.586440 0.023455 0.375747 -0.142359
C10   C     C_R   0.413561 0.976545 0.624253 -0.142359
C11   C     C_R   0.577660 0.130980 0.380986 0.253490
C12   C     C_R   0.422341 0.869020 0.619014 0.253490
C13   C     C_R   0.458451 0.135323 0.548487 -0.211962
C14   C     C_R   0.541549 0.864677 0.451512 -0.211964
C15   C     C_R   0.467867 0.028162 0.543552 0.097947
C16   C     C_R   0.532133 0.971838 0.456448 0.097947
C17   C     C_R   0.433947 0.370837 0.023766 0.426633
C18   C     C_R   0.566053 0.629163 0.976233 0.426630
C19   C     C_R   0.431265 0.389088 0.145156 -0.128131
C20   C     C_R   0.568735 0.610912 0.854844 -0.128132
C21   C     C_R   0.525159 0.558819 0.156286 0.647786
C22   C     C_R   0.474840 0.441181 0.843714 0.647784
C23   C     C_R   0.262148 0.499211 0.498880 0.817536
C24   C     C_R   0.737852 0.500788 0.501120 0.817535
C25   C     C_R   0.522251 0.547918 0.033498 -0.112129
C26   C     C_R   0.477749 0.452082 0.966502 -0.112129
C27   C     C_R   0.154436 0.513730 0.102569 0.230150
C28   C     C_R   0.845560 0.486259 0.897427 0.230153
C29   C     C_R   0.132876 0.532962 0.219349 -0.168701
C30   C     C_R   0.867122 0.467031 0.780647 -0.168701
C31   C     C_R   0.093728 0.451486 0.275539 -0.088723
C32   C     C_R   0.906272 0.548508 0.724461 -0.088723
C33   C     C_R   0.081711 0.348416 0.215070 0.263720
C34   C     C_R   0.918290 0.651577 0.784933 0.263720
C35   C     C_R   0.103025 0.327715 0.097510 0.357697
C36   C     C_R   0.896973 0.672275 0.902493 0.357700
C37   C     C_R   0.135561 0.411852 0.039635 0.118536
C38   C     C_R   0.864435 0.588136 0.960364 0.118533
C39   C     C_R   0.923442 0.477953 0.397804 -0.123762
C40   C     C_R   0.076558 0.522044 0.602195 -0.123762
Cu1   Cu    Cu3+1 0.509250 0.507730 0.615930 1.001734
Cu2   Cu    Cu3+1 0.490750 0.492270 0.384070 1.001734
H1    H     H_    0.605073 0.671861 0.811892 0.171012
H2    H     H_    0.394927 0.328139 0.188108 0.171011
H3    H     H_    0.142244 0.612461 0.265607 0.212492
H4    H     H_    0.857753 0.387532 0.734387 0.212491
H5    H     H_    0.864717 0.459956 0.317665 0.217116
H6    H     H_    0.135283 0.540041 0.682335 0.217114
H7    H     H_    0.591830 0.821498 0.385200 0.206326
H8    H     H_    0.408170 0.178502 0.614800 0.206327
H9    H     H_    0.636883 0.980493 0.309443 0.197289
H10   H     H_    0.363117 0.019507 0.690558 0.197290
N1    N     N_R   0.523180 0.519350 0.790130 -0.258111
N2    N     N_R   0.476820 0.480650 0.209870 -0.258110
O1    O     O_R   0.506570 0.354460 0.582000 -0.572478
O2    O     O_R   0.493430 0.645540 0.418000 -0.572478
O3    O     O_R   0.490940 0.341410 0.386200 -0.560902
O4    O     O_R   0.509060 0.658590 0.613800 -0.560902
O5    O     O_R   0.327460 0.506540 0.597900 -0.590300
O6    O     O_R   0.672540 0.493460 0.402100 -0.590299
O7    O     O_R   0.311830 0.493480 0.402100 -0.583942
O8    O     O_R   0.688170 0.506520 0.597900 -0.583942
Br1   Br    Br    0.147091 0.390685 0.874976 -0.488120
Br2   Br    Br    0.852904 0.609298 0.125023 -0.488130
O9    O     O_3   0.417376 0.352773 0.779025 -0.640516
H11   H     H_    0.360510 0.376511 0.720044 0.357576
O10   O     O_3   0.582623 0.647227 0.220975 -0.640518
H12   H     H_    0.639490 0.623490 0.279956 0.357577
O11   O     O_3   0.395272 0.274122 0.961072 -0.624720
H13   H     H_    0.368457 0.227059 0.014350 0.338893
O12   O     O_3   0.604729 0.725878 0.038928 -0.624725
H14   H     H_    0.631544 0.772941 0.985650 0.338891
Br3   Br    Br    0.204697 0.630353 0.031467 -0.379901
Br4   Br    Br    0.795296 0.369633 0.968524 -0.379895
Br5   Br    Br    0.034366 0.234173 0.291922 -0.340326
Br6   Br    Br    0.965637 0.765822 0.708086 -0.340324
O13   O     O_3   0.087954 0.225080 0.042520 -0.615648
H15   H     H_    0.117612 0.218862 0.964633 0.383419
O14   O     O_3   0.912044 0.774908 0.957487 -0.615645
H16   H     H_    0.882375 0.781126 0.035370 0.383415
Br7   Br    Br    0.336472 0.803412 0.727827 -0.375418
Br8   Br    Br    0.663528 0.196588 0.272173 -0.375420

loop_
_geom_bond_atom_site_label_1
_geom_bond_atom_site_label_2
_ccdc_geom_bond_type
C17   O11   S    
C8    C13   A    
C27   C29   A    
C1    C8    S    
Cu1   Cu2   S    
C2    C7    S    
C9    H9    S    
C28   Br4   S    
O13   H15   S    
C23   O5    A    
C17   C26   A    
C35   C37   A    
C9    C16   A    
Cu1   O4    S    
C10   C15   A    
C21   N2    A    
C14   H7    S    
C15   C16   A    
Cu1   O1    S    
Cu2   O2    S    
C33   Br5   S    
C7    C14   A    
C4    C40   A    
C31   C33   A    
C34   C36   A    
C5    C32   S    
C6    C31   S    
C10   H10   S    
C21   O10   S    
C3    C24   S    
C18   C25   A    
Cu1   O8    S    
Cu2   O3    S    
C37   Br1   S    
C22   N1    A    
C38   Br2   S    
C11   Br8   S    
C7    C12   A    
O10   H12   S    
Cu1   O5    S    
C4    C6    A    
Cu2   O6    S    
C4    C23   S    
C17   C19   A    
C25   C26   A    
C35   O13   S    
O14   H16   S    
C29   H3    S    
C32   C34   A    
C22   O9    S    
C1    O3    A    
C28   C38   A    
C24   O6    A    
C9    C11   A    
Cu2   O7    S    
Cu1   N1    S    
C10   C12   A    
C19   N2    A    
C13   C15   A    
C14   C16   A    
C20   H1    S    
C19   H2    S    
C39   H5    S    
C18   O12   S    
C40   H6    S    
C21   C25   A    
C24   O8    A    
C30   H4    S    
C20   N1    A    
C3    C5    A    
C36   O14   S    
C2    O4    A    
C28   C30   A    
C1    O1    A    
O12   H14   S    
C29   C31   A    
C2    O2    A    
Cu2   N2    S    
C30   C32   A    
C27   C37   A    
C8    C11   A    
C36   C38   A    
C33   C35   A    
C12   Br7   S    
C18   C20   A    
O11   H13   S    
C3    C39   A    
C13   H8    S    
C23   O7    A    
O9    H11   S    
C22   C26   A    
C5    C40   A    
C6    C39   A    
C27   Br3   S    
C34   Br6   S    
