data_mof_unit_5326.cif
_audit_creation_date              2012-12-11T15:13:45-0500
_audit_creation_method            fapswitch 2.2
_symmetry_space_group_name_H-M    P1
_symmetry_Int_Tables_number       1
_space_group_crystal_system       triclinic
_cell_length_a                    6.949151
_cell_length_b                    13.658128
_cell_length_c                    20.060271
_cell_angle_alpha                 103.915357
_cell_angle_beta                  89.88856
_cell_angle_gamma                 90.407384
_cell_volume                      1848.04402108

loop_
_atom_site_label
_atom_site_type_symbol
_atom_type_description
_atom_site_fract_x
_atom_site_fract_y
_atom_site_fract_z
_atom_type_partial_charge
O1    O     O_R   0.506780 0.600060 0.449950 -0.539908
O2    O     O_R   0.179840 0.597110 0.589410 -0.544794
O3    O     O_R   0.004570 0.399940 0.550050 -0.541140
C1    C     C_R   0.347917 0.617752 0.617093 0.681827
O4    O     O_R   0.177380 0.612160 0.452890 -0.544163
O5    O     O_R   0.002100 0.415100 0.412560 -0.547328
C2    C     C_R   0.346988 0.637384 0.435298 0.712420
O6    O     O_R   0.509250 0.584900 0.587440 -0.539858
O7    O     O_3   0.337570 0.435330 0.486930 -0.370475
V1    V     V_3+5 0.064650 0.512000 0.502430 1.409798
O8    O     O_R   0.672090 0.402890 0.410590 -0.541162
C3    C     C_R   0.840415 0.382262 0.382697 0.691715
O9    O     O_R   0.674540 0.387840 0.547110 -0.536865
C4    C     C_R   0.843878 0.361646 0.563729 0.682920
V2    V     V_3+5 0.564040 0.488000 0.497570 1.425083
O10   O     O_3   0.840990 0.564670 0.513070 -0.371039
C5    C     C_R   0.002780 0.124473 0.609991 -0.142569
H1    H     H_    0.068439 0.006764 0.692380 0.124083
H2    H     H_    0.074313 0.054166 0.586696 0.141693
C6    C     C_R   0.861293 0.281498 0.600168 -0.113708
C7    C     C_R   0.794825 0.315425 0.930240 -0.032025
C8    C     C_R   0.764570 0.386410 0.891840 -0.201922
C9    C     C_R   0.787806 0.362142 0.821176 -0.138714
C10   C     C_R   0.847231 0.265235 0.785301 0.042592
C11   C     C_R   0.890035 0.192310 0.823750 0.000344
C12   C     C_R   0.871082 0.239947 0.712317 0.072993
C13   C     C_R   0.958644 0.147520 0.680064 0.065799
C14   C     C_R   0.004834 0.078441 0.717774 -0.254413
C15   C     C_R   0.965432 0.097568 0.787675 0.226009
C16   C     C_R   0.814078 0.303915 0.670072 -0.207072
C17   C     C_R   0.962086 0.192587 0.570193 -0.017346
C18   C     C_R   0.857006 0.217106 0.896601 -0.117859
H3    H     H_    0.739226 0.373662 0.690287 0.101353
H4    H     H_    0.763943 0.422683 0.796323 0.108115
H5    H     H_    0.722794 0.462568 0.916949 0.106616
C19   C     C_3   0.807530 0.158449 0.251971 -0.181396
C20   C     C_3   0.976363 0.221751 0.289075 0.318476
H6    H     H_    0.774535 0.079722 0.253172 0.100013
C21   C     C_3   0.848039 0.314080 0.311391 -0.081179
C22   C     C_3   0.676369 0.252394 0.273523 -0.188655
C23   C     C_3   0.733160 0.285006 0.207057 -0.067641
C24   C     C_3   0.904985 0.347336 0.245591 -0.151403
C25   C     C_3   0.037187 0.253629 0.223744 -0.128729
C26   C     C_3   0.864566 0.191892 0.186408 -0.042645
H7    H     H_    0.527889 0.252552 0.293965 0.131017
H8    H     H_    0.630983 0.311037 0.172601 0.153250
H9    H     H_    0.944153 0.425343 0.243138 0.136247
H10   H     H_    0.186588 0.253342 0.203963 0.127114
C27   C     C_3   0.523335 0.752622 0.719606 0.360284
C28   C     C_3   0.391575 0.843889 0.745190 -0.189590
H11   H     H_    0.420915 0.922108 0.740866 0.096292
C29   C     C_3   0.360575 0.809500 0.812576 -0.042138
C30   C     C_3   0.498892 0.719539 0.787301 -0.182190
C31   C     C_3   0.324370 0.653187 0.754941 -0.205305
C32   C     C_3   0.187072 0.743609 0.780951 -0.088838
C33   C     C_3   0.217777 0.777088 0.712954 -0.169527
C34   C     C_3   0.353869 0.687003 0.687573 -0.045267
H12   H     H_    0.616809 0.696568 0.817455 0.102989
H13   H     H_    0.296246 0.574508 0.758530 0.114241
H14   H     H_    0.046766 0.738171 0.806323 0.108124
H15   H     H_    0.104682 0.800890 0.681560 0.132378
C35   C     C_R   0.507490 0.871450 0.385705 0.311216
H16   H     H_    0.492555 0.822374 0.479529 0.103741
H17   H     H_    0.575169 0.987282 0.298451 0.160064
C36   C     C_R   0.364312 0.713730 0.395674 -0.079674
C37   C     C_R   0.275648 0.684119 0.066054 0.196123
C38   C     C_R   0.245455 0.609306 0.102636 0.009468
C39   C     C_R   0.280782 0.631608 0.173564 -0.220075
C40   C     C_R   0.349065 0.727289 0.209746 0.057504
C41   C     C_R   0.391425 0.800247 0.171586 0.041313
C42   C     C_R   0.378414 0.752639 0.282675 0.045163
C43   C     C_R   0.466645 0.846576 0.314480 0.106009
C44   C     C_R   0.512810 0.914740 0.274969 -0.214730
C45   C     C_R   0.472411 0.893398 0.205494 -0.210389
C46   C     C_R   0.324320 0.687977 0.325259 -0.236231
C47   C     C_R   0.455095 0.804846 0.425500 -0.222475
C48   C     C_R   0.349586 0.779612 0.100409 -0.139755
H18   H     H_    0.255327 0.615988 0.305366 0.108270
H19   H     H_    0.255960 0.571948 0.199218 0.161139
H20   H     H_    0.507223 0.951123 0.178685 0.124185
O11   O     O_R   0.203580 0.914920 0.912610 -0.538650
O12   O     O_R   0.535710 0.887810 0.047120 -0.546498
O13   O     O_R   0.710730 0.084950 0.087430 -0.541790
C49   C     C_R   0.365733 0.860054 0.062914 0.704165
O14   O     O_R   0.533010 0.902850 0.910600 -0.553919
O15   O     O_R   0.708010 0.100090 0.949930 -0.543540
C50   C     C_R   0.364947 0.880065 0.883288 0.671522
O16   O     O_R   0.206300 0.899780 0.050100 -0.549690
O17   O     O_3   0.375170 0.064580 0.013100 -0.363145
V3    V     V_3+5 0.648200 0.988020 0.997570 1.420271
O18   O     O_R   0.038030 0.112330 0.952840 -0.521114
C51   C     C_R   0.868915 0.139581 0.936636 0.877024
O19   O     O_R   0.040730 0.097300 0.089360 -0.540122
C52   C     C_R   0.872229 0.120118 0.116460 0.762426
V4    V     V_3+5 0.148780 0.012220 0.002360 1.464899
O20   O     O_3   0.871930 0.935430 0.986900 -0.387448
C53   C     C_2   0.030225 0.171535 0.498121 0.362216
H21   H     H_    0.971168 0.212444 0.462883 0.064268
O21   O     O_2   0.155302 0.109145 0.477578 -0.543336
N1    N     N_2   0.704748 0.754120 0.684273 -0.553554
H22   H     H_    0.773125 0.685374 0.672349 0.265696
C54   C     C_3   0.702859 0.805356 0.628863 -0.552462
H23   H     H_    0.845814 0.798892 0.603497 0.189593
H24   H     H_    0.671473 0.886669 0.649200 0.193717
H25   H     H_    0.593235 0.771695 0.589788 0.193291
N2    N     N_2   0.610136 0.961190 0.417216 -0.535971
H26   H     H_    0.577985 0.991240 0.468258 0.274084
C55   C     C_3   0.814632 0.959471 0.402605 -0.530925
H27   H     H_    0.897159 0.951625 0.448391 0.214253
H28   H     H_    0.855931 0.030953 0.389283 0.229996
H29   H     H_    0.854486 0.896167 0.358617 0.197305
N3    N     N_2   0.231386 0.662498 0.994537 -0.547863
H30   H     H_    0.161029 0.719105 0.978705 0.263977
C56   C     C_3   0.389765 0.621285 0.950026 -0.597693
H31   H     H_    0.507216 0.678116 0.954311 0.196959
H32   H     H_    0.339143 0.599799 0.895989 0.205371
H33   H     H_    0.445565 0.552768 0.963755 0.197186
C57   C     C_2   0.172282 0.507591 0.067045 0.363867
H34   H     H_    0.131377 0.491331 0.013321 0.093764
O22   O     O_2   0.157263 0.440195 0.097250 -0.527301
C58   C     C_2   0.760215 0.349300 0.005546 0.365513
H35   H     H_    0.689633 0.420880 0.026287 0.052820
O23   O     O_2   0.813065 0.300387 0.045535 -0.536692
N4    N     N_2   0.004305 0.019378 0.820635 -0.526600
H36   H     H_    0.139028 0.989255 0.809389 0.253348
C59   C     C_3   0.855566 0.943214 0.810329 -0.490497
H37   H     H_    0.877421 0.893147 0.845568 0.212679
H38   H     H_    0.862765 0.898277 0.757050 0.216242
H39   H     H_    0.711341 0.978255 0.820088 0.188751
N5    N     N_2   0.108463 0.189751 0.334989 -0.531655
H40   H     H_    0.202852 0.245943 0.358565 0.262661
C60   C     C_3   0.202373 0.095059 0.306772 -0.531084
H41   H     H_    0.292345 0.075559 0.347226 0.248129
H42   H     H_    0.295389 0.101180 0.262825 0.175366
H43   H     H_    0.094676 0.033793 0.289573 0.202403

loop_
_geom_bond_atom_site_label_1
_geom_bond_atom_site_label_2
_ccdc_geom_bond_type
C32   C33   S    
C20   C25   S    
O19   C52   A    
C30   H12   S    
C23   C24   S    
O2    C1    A    
V4    O20   S    
C1    O6    A    
N3    C56   S    
C53   H21   S    
C6    C16   A    
C30   C31   S    
C20   N5    S    
C8    H5    S    
C12   C13   A    
C59   H37   S    
C36   C47   A    
C7    C8    A    
C14   C15   A    
C10   C12   A    
O5    C3    A    
O11   V4    S    
N2    H26   S    
V2    O10   S    
C15   N4    S    
C27   C34   S    
C55   H27   S    
C54   H25   S    
C44   C45   A    
C40   C42   A    
C57   H34   S    
O8    V2    S    
C39   C40   A    
C1    C34   S    
C41   C45   A    
C28   C29   S    
H17   C44   S    
O1    V2    S    
O7    V1    S    
C29   C32   S    
C11   C18   A    
C17   C53   S    
C37   C38   A    
O16   V4    S    
O19   V4    S    
C45   H20   S    
O9    C4    A    
C41   C48   A    
C35   C47   A    
C54   H23   S    
N3    H30   S    
C53   O21   D    
C56   H31   S    
C21   C24   S    
C31   H13   S    
O14   C50   A    
C11   C15   A    
C22   H7    S    
C7    C18   A    
C38   C39   A    
C5    C13   A    
C4    C6    S    
C19   C22   S    
H1    C14   S    
C10   C11   A    
O15   V3    S    
O18   C51   A    
O4    C2    A    
C60   H41   S    
C48   C49   S    
C46   H18   S    
O13   C52   A    
C28   C33   S    
O17   V4    S    
N5    C60   S    
C25   C26   S    
C2    C36   S    
C23   H8    S    
C9    H4    S    
N1    C54   S    
C28   H11   S    
C35   C43   A    
C33   H15   S    
O12   V3    S    
C54   H24   S    
C58   H35   S    
O11   C50   A    
O3    C4    A    
C22   C23   S    
C12   C16   A    
O6    V2    S    
O12   C49   A    
O9    V2    S    
C5    C17   A    
C23   C26   S    
C19   C26   S    
C24   C25   S    
O2    V1    S    
C21   C22   S    
C29   C30   S    
N4    C59   S    
C25   H10   S    
C33   C34   S    
O13   V3    S    
C31   C32   S    
C19   C20   S    
C59   H38   S    
C16   H3    S    
O1    C2    A    
C29   C50   S    
C49   O16   A    
C43   C44   A    
C36   C46   A    
O5    V1    S    
C56   H32   S    
O14   V3    S    
V3    O20   S    
C35   N2    S    
C59   H39   S    
C55   H29   S    
C3    C21   S    
C19   H6    S    
N5    H40   S    
O7    V2    S    
C42   C43   A    
C20   C21   S    
O3    V1    S    
V1    O10   S    
C27   N1    S    
C42   C46   A    
C18   C51   S    
N2    C55   S    
C39   H19   S    
C60   H43   S    
C27   C30   S    
N1    H22   S    
C5    H2    S    
C55   H28   S    
C24   H9    S    
C37   C48   A    
C7    C58   S    
C40   C41   A    
C38   C57   S    
C57   O22   D    
C58   O23   D    
C56   H33   S    
C26   C52   S    
C9    C10   A    
O18   V4    S    
O4    V1    S    
C60   H42   S    
C27   C28   S    
H16   C47   S    
C13   C14   A    
C8    C9    A    
O15   C51   A    
C37   N3    S    
O17   V3    S    
C32   H14   S    
C6    C17   A    
O8    C3    A    
N4    H36   S    
C31   C34   S    
