data_mof_unit_59397.cif
_audit_creation_date              2012-12-10T17:18:54-0500
_audit_creation_method            fapswitch 2.2
_symmetry_space_group_name_H-M    P1
_symmetry_Int_Tables_number       1
_space_group_crystal_system       triclinic
_cell_length_a                    9.622041
_cell_length_b                    10.852066
_cell_length_c                    13.466196
_cell_angle_alpha                 93.228632
_cell_angle_beta                  73.405127
_cell_angle_gamma                 88.461475
_cell_volume                      1344.06514981

loop_
_atom_site_label
_atom_site_type_symbol
_atom_type_description
_atom_site_fract_x
_atom_site_fract_y
_atom_site_fract_z
_atom_type_partial_charge
C1    C     C_R   0.497758 0.738141 0.498244 0.782365
C2    C     C_R   0.441516 0.560689 0.979047 0.082129
C3    C     C_R   0.486645 0.560776 0.869192 0.089918
C4    C     C_R   0.548619 0.543433 0.031932 0.068543
C5    C     C_R   0.697565 0.533740 0.974704 0.172116
C6    C     C_R   0.739384 0.557611 0.870508 -0.250539
C7    C     C_R   0.635048 0.577172 0.820098 -0.189272
C8    C     C_R   0.512736 0.530805 0.139083 -0.207773
C9    C     C_R   0.765865 0.492525 0.129300 -0.195136
C10   C     C_R   0.381528 0.546902 0.813239 -0.101006
C11   C     C_R   0.220134 0.897931 0.524475 -0.186239
C12   C     C_R   0.423234 0.514719 0.699527 0.775700
C13   C     C_R   0.090558 0.966770 0.569012 -0.168884
C14   C     C_R   0.093088 0.084729 0.613625 -0.125201
C15   C     C_R   0.225514 0.138127 0.604890 -0.160642
C16   C     C_R   0.357937 0.072965 0.551959 0.106868
C17   C     C_R   0.356032 0.945601 0.524987 0.112958
C18   C     C_R   0.490039 0.873768 0.499599 -0.109816
C19   C     C_R   0.620881 0.933538 0.486464 -0.209247
C20   C     C_R   0.622045 0.060765 0.495004 -0.211146
C21   C     C_R   0.492006 0.131537 0.523741 -0.105725
C22   C     C_R   0.901496 0.314774 0.385167 -0.144079
C23   C     C_R   0.497134 0.264127 0.510190 0.845200
C24   C     C_R   0.975331 0.201754 0.358311 -0.288589
C25   C     C_R   0.111222 0.187346 0.370815 -0.170714
C26   C     C_R   0.181790 0.291444 0.393600 0.303824
C27   C     C_R   0.098224 0.402920 0.444692 0.130962
C28   C     C_R   0.948731 0.407136 0.443878 0.172496
C29   C     C_R   0.903214 0.590194 0.551770 -0.066555
C30   C     C_R   0.050328 0.589647 0.552479 -0.091540
C31   C     C_R   0.577308 0.502035 0.300757 0.849134
C32   C     C_R   0.803738 0.503873 0.022806 -0.196202
C33   C     C_R   0.620267 0.508268 0.188043 -0.031282
C34   C     C_R   0.233741 0.562826 0.868014 -0.194482
C35   C     C_R   0.190812 0.585159 0.975384 -0.150567
C36   C     C_R   0.291831 0.578869 0.030950 -0.161267
Cu1   Cu    Cu3+1 0.359340 0.500010 0.500010 0.955045
Cu2   Cu    Cu3+1 0.640660 0.499990 0.499990 0.935471
H1    H     H_    0.850072 0.471476 0.165446 0.156167
H2    H     H_    0.209806 0.811459 0.485038 0.170264
H3    H     H_    0.987885 0.928022 0.569332 0.131646
H4    H     H_    0.992482 0.136738 0.651490 0.142450
H5    H     H_    0.223031 0.230302 0.640535 0.153104
H6    H     H_    0.725425 0.103724 0.477975 0.171290
H7    H     H_    0.830273 0.665541 0.593174 0.121032
H8    H     H_    0.807108 0.325603 0.359705 0.212530
H9    H     H_    0.930935 0.127400 0.321549 0.170479
H10   H     H_    0.170745 0.100236 0.341456 0.189112
H11   H     H_    0.853084 0.562779 0.828047 0.139569
H12   H     H_    0.085083 0.662216 0.597047 0.132077
H13   H     H_    0.915602 0.488067 0.977198 0.133237
H14   H     H_    0.401490 0.537199 0.186182 0.166180
H15   H     H_    0.151069 0.560091 0.827765 0.147860
H16   H     H_    0.249348 0.592478 0.114136 0.127616
H17   H     H_    0.078131 0.605339 0.016963 0.140486
H18   H     H_    0.673479 0.610078 0.743931 0.173340
H19   H     H_    0.724147 0.881928 0.466722 0.162680
N1    N     N_R   0.852480 0.498790 0.499000 -0.189839
N2    N     N_R   0.148360 0.498710 0.498970 -0.191447
O1    O     O_R   0.381190 0.680360 0.500010 -0.601992
O2    O     O_R   0.618760 0.680340 0.500000 -0.589326
O3    O     O_R   0.323240 0.499990 0.650990 -0.590312
O4    O     O_R   0.560820 0.499960 0.650980 -0.584630
O5    O     O_R   0.381240 0.319660 0.500000 -0.562600
O6    O     O_R   0.618810 0.319640 0.499990 -0.598039
O7    O     O_R   0.439180 0.500040 0.349020 -0.544636
O8    O     O_R   0.676760 0.500010 0.349010 -0.611765
Br1   Br    Br    0.370429 0.271433 0.293761 -0.543360

loop_
_geom_bond_atom_site_label_1
_geom_bond_atom_site_label_2
_ccdc_geom_bond_type
C31   O7    A    
C2    C4    A    
C24   C25   A    
C31   C33   S    
C32   H13   S    
C29   C30   A    
C28   N1    A    
C12   O3    A    
C8    H14   S    
C35   C36   A    
Cu2   O6    S    
C4    C8    A    
C14   H4    S    
Cu2   O2    S    
C26   Br1   S    
C30   N2    A    
C23   O6    A    
C13   H3    S    
C17   C18   A    
C30   H12   S    
C15   H5    S    
C10   C34   A    
C3    C10   A    
C27   N2    A    
C13   C14   A    
C29   N1    A    
C31   O8    A    
C11   C13   A    
C25   H10   S    
C1    C18   S    
Cu1   N2    S    
C10   C12   S    
C7    H18   S    
C9    C33   A    
C5    C6    A    
C23   O5    A    
C22   H8    S    
Cu1   Cu2   S    
C2    C3    A    
C6    C7    A    
C3    C7    A    
C8    C33   A    
C21   C23   S    
C6    H11   S    
C26   C27   A    
C11   H2    S    
C22   C24   A    
Cu1   O1    S    
C36   H16   S    
Cu1   O7    S    
C35   H17   S    
C15   C16   A    
Cu2   O8    S    
C9    H1    S    
Cu1   O5    S    
C20   C21   A    
C34   H15   S    
C34   C35   A    
C1    O1    A    
C2    C36   A    
C27   C28   A    
C12   O4    A    
Cu1   O3    S    
C14   C15   A    
C18   C19   A    
C22   C28   A    
C9    C32   A    
C20   H6    S    
C25   C26   A    
Cu2   O4    S    
C24   H9    S    
C16   C21   A    
Cu2   N1    S    
C19   H19   S    
C5    C32   A    
C11   C17   A    
C19   C20   A    
C16   C17   A    
C29   H7    S    
C4    C5    A    
C1    O2    A    
