data_mof_unit_24042.cif
_audit_creation_date              2013-03-05T16:05:19-0500
_audit_creation_method            fapswitch 2.2
_symmetry_space_group_name_H-M    P1
_symmetry_Int_Tables_number       1
_space_group_crystal_system       triclinic
_cell_length_a                    27.238901
_cell_length_b                    7.200025
_cell_length_c                    22.7778
_cell_angle_alpha                 89.983045
_cell_angle_beta                  101.431763
_cell_angle_gamma                 89.97847
_cell_volume                      4378.57624334

loop_
_atom_site_label
_atom_site_type_symbol
_atom_site_description
_atom_site_fract_x
_atom_site_fract_y
_atom_site_fract_z
_atom_type_partial_charge
O1    O     O_R   0.707300 0.594030 0.176840 -0.593434
O2    O     O_R   0.292700 0.405970 0.823160 -0.593435
O3    O     O_R   0.792700 0.094030 0.323160 -0.593603
O4    O     O_R   0.207300 0.905970 0.676840 -0.593604
O5    O     O_R   0.697330 0.262360 0.295660 -0.561392
O6    O     O_R   0.302670 0.737640 0.704340 -0.561391
O7    O     O_R   0.802670 0.762360 0.204340 -0.561410
O8    O     O_R   0.197330 0.237640 0.795660 -0.561410
C1    C     C_R   0.684165 0.432441 0.310785 0.956243
C2    C     C_R   0.315835 0.567559 0.689215 0.956244
C3    C     C_R   0.815836 0.932423 0.189213 0.956422
C4    C     C_R   0.184164 0.067577 0.810787 0.956422
O9    O     O_R   0.701410 0.264250 0.175600 -0.571539
O10   O     O_R   0.298590 0.735750 0.824400 -0.571539
O11   O     O_R   0.798590 0.764250 0.324400 -0.571579
O12   O     O_R   0.201410 0.235750 0.675600 -0.571579
O13   O     O_R   0.796800 0.094950 0.202240 -0.589665
O14   O     O_R   0.203200 0.905050 0.797760 -0.589665
O15   O     O_R   0.703200 0.594950 0.297760 -0.589642
O16   O     O_R   0.296800 0.405050 0.702240 -0.589643
C5    C     C_R   0.689757 0.432582 0.153469 0.923027
C6    C     C_R   0.310243 0.567418 0.846531 0.923028
C7    C     C_R   0.810249 0.932472 0.346538 0.923075
C8    C     C_R   0.189751 0.067528 0.653462 0.923075
O17   O     O_3   0.781290 0.427390 0.258880 -0.265990
O18   O     O_3   0.218710 0.572610 0.741120 -0.265990
O19   O     O_3   0.718710 0.927390 0.241120 -0.265870
O20   O     O_3   0.281290 0.072610 0.758880 -0.265870
V1    V     V_3+5 0.744190 0.152150 0.248350 1.231958
V2    V     V_3+5 0.255810 0.847850 0.751650 1.231958
V3    V     V_3+5 0.755810 0.652150 0.251650 1.232044
V4    V     V_3+5 0.244190 0.347850 0.748350 1.232044
C9    C     C_R   0.154865 0.062664 0.594993 -0.098451
C10   C     C_R   0.845135 0.937336 0.405007 -0.098452
C11   C     C_R   0.345114 0.561972 0.904992 -0.097928
C12   C     C_R   0.654886 0.438028 0.095008 -0.097928
C13   C     C_R   0.139516 0.123168 0.488724 -0.151197
C14   C     C_R   0.860484 0.876832 0.511275 -0.151197
C15   C     C_R   0.360108 0.616110 0.011579 -0.150851
C16   C     C_R   0.639892 0.383890 0.988420 -0.150851
C17   C     C_R   0.172192 0.114705 0.543885 -0.172800
C18   C     C_R   0.827808 0.885295 0.456115 -0.172799
C19   C     C_R   0.327539 0.609746 0.956310 -0.173581
C20   C     C_R   0.672461 0.390254 0.043690 -0.173581
C21   C     C_R   0.103962 0.019694 0.590658 -0.178000
C22   C     C_R   0.896038 0.980306 0.409342 -0.178000
C23   C     C_R   0.396142 0.521311 0.909209 -0.178009
C24   C     C_R   0.603858 0.478689 0.090790 -0.178009
C25   C     C_R   0.069154 0.030174 0.534830 0.098212
C26   C     C_R   0.930846 0.969826 0.465170 0.098212
C27   C     C_R   0.430828 0.529646 0.965159 0.098083
C28   C     C_R   0.569172 0.470354 0.034841 0.098083
C29   C     C_R   0.088060 0.082800 0.483245 0.102106
C30   C     C_R   0.911940 0.917200 0.516755 0.102106
C31   C     C_R   0.411673 0.577701 0.016974 0.102104
C32   C     C_R   0.588327 0.422298 0.983026 0.102104
C33   C     C_R   0.016435 0.992454 0.528680 0.041410
C34   C     C_R   0.983565 0.007546 0.471320 0.041410
C35   C     C_R   0.483643 0.493876 0.971234 0.041394
C36   C     C_R   0.516357 0.506124 0.028766 0.041394
C37   C     C_R   0.004424 0.059356 0.421789 -0.212755
C38   C     C_R   0.995576 0.940644 0.578211 -0.212755
C39   C     C_R   0.495250 0.553197 0.078536 -0.212597
C40   C     C_R   0.504750 0.446802 0.921464 -0.212597
C41   C     C_R   0.055311 0.096026 0.427191 -0.008902
C42   C     C_R   0.944689 0.903974 0.572809 -0.008902
C43   C     C_R   0.444274 0.588148 0.073192 -0.008755
C44   C     C_R   0.555726 0.411852 0.926808 -0.008755
H1    H     H_    0.907013 0.017015 0.367991 0.126496
H2    H     H_    0.092987 0.982985 0.632008 0.126496
H3    H     H_    0.592726 0.512421 0.132284 0.126904
H4    H     H_    0.407274 0.487579 0.867716 0.126904
H5    H     H_    0.788729 0.849913 0.453225 0.105681
H6    H     H_    0.211271 0.150087 0.546774 0.105681
H7    H     H_    0.711657 0.356836 0.046480 0.105618
H8    H     H_    0.288343 0.643164 0.953519 0.105618
H9    H     H_    0.154949 0.164139 0.450392 0.126296
H10   H     H_    0.845051 0.835861 0.549608 0.126296
H11   H     H_    0.344487 0.653645 0.050090 0.126311
H12   H     H_    0.655513 0.346355 0.949910 0.126311
H13   H     H_    0.981921 0.073331 0.377497 0.153764
H14   H     H_    0.018079 0.926669 0.622503 0.153764
H15   H     H_    0.517614 0.564568 0.122984 0.153937
H16   H     H_    0.482386 0.435432 0.877016 0.153937
C45   C     C_R   0.853478 0.089755 0.111051 -0.117964
C46   C     C_R   0.146522 0.910245 0.888949 -0.117964
C47   C     C_R   0.646526 0.589673 0.388962 -0.118145
C48   C     C_R   0.353474 0.410327 0.611038 -0.118145
H17   H     H_    0.824199 0.193682 0.106621 0.137590
H18   H     H_    0.175800 0.806318 0.893379 0.137590
H19   H     H_    0.675811 0.693487 0.393408 0.137517
H20   H     H_    0.324189 0.306513 0.606592 0.137517
C49   C     C_R   0.888505 0.103082 0.073959 -0.111781
C50   C     C_R   0.111495 0.896918 0.926041 -0.111781
C51   C     C_R   0.611499 0.602993 0.426055 -0.111824
C52   C     C_R   0.388501 0.397006 0.573945 -0.111824
H21   H     H_    0.885251 0.216679 0.042259 0.111038
H22   H     H_    0.114749 0.783321 0.957740 0.111038
H23   H     H_    0.614759 0.716477 0.457772 0.111047
H24   H     H_    0.385241 0.283523 0.542228 0.111047
C53   C     C_R   0.926489 0.969718 0.076698 0.058610
C54   C     C_R   0.073511 0.030282 0.923302 0.058609
C55   C     C_R   0.573509 0.469757 0.423296 0.058655
C56   C     C_R   0.426491 0.530243 0.576704 0.058655
C57   C     C_R   0.928721 0.822971 0.117910 -0.261088
C58   C     C_R   0.071278 0.177029 0.882090 -0.261088
C59   C     C_R   0.571268 0.323153 0.382061 -0.261103
C60   C     C_R   0.428731 0.676847 0.617939 -0.261103
H25   H     H_    0.958739 0.722179 0.122027 0.157439
H26   H     H_    0.041261 0.277821 0.877973 0.157439
H27   H     H_    0.541246 0.222472 0.377928 0.157445
H28   H     H_    0.458754 0.777528 0.622072 0.157445
C61   C     C_R   0.894253 0.809618 0.156398 0.367774
C62   C     C_R   0.105747 0.190382 0.843602 0.367775
C63   C     C_R   0.605737 0.309813 0.343573 0.367751
C64   C     C_R   0.394263 0.690187 0.656427 0.367750
C65   C     C_R   0.855347 0.943261 0.152386 -0.290087
C66   C     C_R   0.144653 0.056738 0.847614 -0.290087
C67   C     C_R   0.644651 0.443313 0.347608 -0.289907
C68   C     C_R   0.355349 0.556686 0.652392 -0.289907
C69   C     C_R   0.981265 0.826057 0.011677 -0.174131
C70   C     C_R   0.018735 0.173943 0.988323 -0.174131
C71   C     C_R   0.518728 0.326040 0.488294 -0.174095
C72   C     C_R   0.481272 0.673960 0.511706 -0.174095
H29   H     H_    0.966722 0.690079 0.019276 0.115942
H30   H     H_    0.033278 0.309921 0.980724 0.115942
H31   H     H_    0.533265 0.190044 0.480673 0.115942
H32   H     H_    0.466734 0.809956 0.519327 0.115942
C73   C     C_R   0.016601 0.840661 0.974830 -0.154148
C74   C     C_R   0.983398 0.159339 0.025170 -0.154148
C75   C     C_R   0.483392 0.340625 0.525143 -0.154130
C76   C     C_R   0.516608 0.659375 0.474857 -0.154130
H33   H     H_    0.028235 0.715471 0.955043 0.122366
H34   H     H_    0.971764 0.284529 0.044957 0.122366
H35   H     H_    0.471753 0.215402 0.544909 0.122335
H36   H     H_    0.528247 0.784598 0.455091 0.122335
C77   C     C_R   0.035850 0.014808 0.962652 0.139490
C78   C     C_R   0.964149 0.985192 0.037348 0.139490
C79   C     C_R   0.464150 0.514788 0.537350 0.139478
C80   C     C_R   0.535850 0.485212 0.462650 0.139478
C81   C     C_1   0.072764 0.148577 0.373463 0.085095
N1    N     N_1   0.086644 0.190562 0.330481 -0.067657
C82   C     C_1   0.927236 0.851423 0.626537 0.085095
N2    N     N_1   0.913355 0.809438 0.669519 -0.067657
C83   C     C_1   0.426560 0.635743 0.127172 0.084836
N3    N     N_1   0.412471 0.673752 0.170357 -0.068057
C84   C     C_1   0.573440 0.364257 0.872828 0.084836
N4    N     N_1   0.587529 0.326248 0.829643 -0.068057
N5    N     N_R   0.901115 0.665826 0.201029 0.237998
O21   O     O_R   0.916194 0.501744 0.188403 -0.408016
O22   O     O_R   0.900526 0.706422 0.256562 -0.409494
N6    N     N_R   0.098885 0.334173 0.798970 0.237998
O23   O     O_R   0.083806 0.498256 0.811597 -0.408016
O24   O     O_R   0.099474 0.293577 0.743437 -0.409494
N7    N     N_R   0.598869 0.166188 0.298919 0.238032
O25   O     O_R   0.583776 0.002117 0.311518 -0.407838
O26   O     O_R   0.599469 0.206956 0.243395 -0.410048
N8    N     N_R   0.401131 0.833812 0.701080 0.238032
O27   O     O_R   0.416224 0.997883 0.688481 -0.407838
O28   O     O_R   0.400531 0.793044 0.756605 -0.410048

loop_
_geom_bond_atom_site_label_1
_geom_bond_atom_site_label_2
_geom_bond_distance
_ccdc_geom_bond_type
O17   V3    1.755375 S    
C48   C52   1.397459 A    
O1    C5    1.327752 A    
C47   H19   1.083399 S    
O19   V1    1.755943 S    
C9    C21   1.404990 A    
C72   C79   1.407160 A    
O3    C7    1.327956 A    
C84   N4    1.157354 T    
C10   C18   1.391416 A    
C62   N6    1.436733 S    
O15   V3    1.980683 S    
C83   N3    1.157354 T    
C25   C33   1.440861 A    
C33   C38   1.410262 A    
C5    C12   1.474947 S    
O5    C1    1.340070 A    
C6    C11   1.474947 S    
C35   C40   1.410319 A    
C26   C30   1.424476 A    
C58   C62   1.409098 A    
C36   C39   1.410319 A    
C40   C44   1.392443 A    
C57   C61   1.409098 A    
C14   C18   1.389661 A    
C75   H35   1.082897 S    
N5    O22   1.301526 A    
C58   H26   1.083101 S    
O4    C8    1.327955 A    
C51   H23   1.082783 S    
N7    O26   1.301527 A    
C50   H22   1.082780 S    
C82   N2    1.157359 T    
O1    V3    1.983189 S    
O13   V1    1.980596 S    
C31   C43   1.408298 A    
C72   C76   1.400786 A    
O2    V4    1.983190 S    
O3    V1    1.982768 S    
C40   H16   1.076300 S    
C22   H1    1.076055 S    
C46   C50   1.397450 A    
C17   H6    1.083863 S    
C45   C49   1.397450 A    
C1    O15   1.336838 A    
C15   C31   1.412702 A    
C76   C80   1.407822 A    
C48   H20   1.083399 S    
C2    O16   1.336836 A    
C16   C32   1.412702 A    
C47   C51   1.397459 A    
O2    C6    1.327751 A    
C16   H12   1.082368 S    
C54   C58   1.406409 A    
C10   C22   1.404990 A    
C48   C68   1.407803 A    
C11   C19   1.391323 A    
C16   C20   1.389726 A    
C76   H36   1.082897 S    
C72   H32   1.082945 S    
C13   C29   1.412623 A    
C34   C37   1.410262 A    
O11   C7    1.326392 A    
C38   H14   1.076308 S    
C11   C23   1.404869 A    
C35   C36   1.433981 A    
O12   C8    1.326392 A    
N8    O28   1.301527 A    
C47   C67   1.407803 A    
C74   H34   1.082898 S    
C81   N1    1.157359 T    
O10   V2    1.997079 S    
C51   C55   1.403588 A    
O5    V1    1.991269 S    
C53   C57   1.406409 A    
C39   C43   1.392443 A    
O7    V3    1.991397 S    
C38   C42   1.392424 A    
O8    V4    1.991399 S    
C61   N5    1.436734 S    
C2    C68   1.491948 S    
C46   H18   1.083397 S    
C49   C53   1.403579 A    
C45   H17   1.083397 S    
O18   V4    1.755374 S    
C15   C19   1.389726 A    
C42   C82   1.448230 S    
C14   H10   1.082370 S    
C32   C44   1.408298 A    
C13   H9    1.082372 S    
C71   C80   1.407160 A    
C43   C83   1.448223 S    
C64   C68   1.420613 A    
C39   H15   1.076300 S    
C54   C77   1.494195 S    
C26   C34   1.440861 A    
C69   C78   1.407156 A    
C70   H30   1.082943 S    
C20   H7    1.083851 S    
O7    C3    1.340030 A    
C64   N8    1.436741 S    
C37   C41   1.392424 A    
C41   C81   1.448230 S    
C71   H31   1.082945 S    
C14   C30   1.412626 A    
C21   C25   1.429566 A    
O8    C4    1.340029 A    
C7    C10   1.475219 S    
O9    C5    1.326548 A    
C46   C66   1.407803 A    
C45   C65   1.407803 A    
C59   C63   1.409087 A    
C62   C66   1.420614 A    
C44   C84   1.448223 S    
C61   C65   1.420614 A    
O6    V2    1.991269 S    
N6    O24   1.301526 A    
C69   H29   1.082943 S    
C73   H33   1.082898 S    
C63   C67   1.420613 A    
C52   C56   1.403588 A    
N8    O27   1.301456 A    
C1    C67   1.491948 S    
C4    C66   1.491969 S    
C12   C20   1.391323 A    
C27   C35   1.440810 A    
C24   H3    1.076049 S    
C3    C65   1.491969 S    
C49   H21   1.082780 S    
C56   C60   1.406407 A    
C29   C41   1.408329 A    
O16   V4    1.980685 S    
O9    V1    1.997076 S    
C19   H8    1.083851 S    
C57   H25   1.083100 S    
C3    O13   1.336783 A    
C18   H5    1.083863 S    
C71   C75   1.400786 A    
C21   H2    1.076055 S    
C59   H27   1.083101 S    
C70   C77   1.407156 A    
C69   C73   1.400788 A    
O6    C2    1.340071 A    
C23   C27   1.429382 A    
C53   C78   1.494195 S    
O11   V3    1.997828 S    
C30   C42   1.408329 A    
O12   V4    1.997829 S    
C22   C26   1.429566 A    
C8    C9    1.475219 S    
C56   C79   1.494193 S    
C9    C17   1.391416 A    
O10   C6    1.326548 A    
O20   V2    1.755945 S    
C63   N7    1.436741 S    
C37   H13   1.076308 S    
N5    O21   1.301454 A    
C60   C64   1.409087 A    
C33   C34   1.434073 A    
C25   C29   1.424476 A    
C52   H24   1.082783 S    
C12   C24   1.404869 A    
C27   C31   1.424473 A    
C13   C17   1.389663 A    
C23   H4    1.076049 S    
C75   C79   1.407822 A    
O14   V2    1.980590 S    
C60   H28   1.083101 S    
C24   C28   1.429382 A    
C73   C77   1.407825 A    
N6    O23   1.301454 A    
C50   C54   1.403579 A    
C28   C36   1.440810 A    
C4    O14   1.336785 A    
N7    O25   1.301456 A    
C55   C59   1.406407 A    
C55   C80   1.494193 S    
C70   C74   1.400788 A    
O4    V2    1.982767 S    
C28   C32   1.424473 A    
C15   H11   1.082368 S    
C74   C78   1.407825 A    
