data_mof_unit_67288.cif
_audit_creation_date              2013-03-05T16:01:59-0500
_audit_creation_method            fapswitch 2.2
_symmetry_space_group_name_H-M    P1
_symmetry_Int_Tables_number       1
_space_group_crystal_system       triclinic
_cell_length_a                    8.429936
_cell_length_b                    14.519314
_cell_length_c                    15.174117
_cell_angle_alpha                 97.064508
_cell_angle_beta                  97.795863
_cell_angle_gamma                 92.091937
_cell_volume                      1823.45616067

loop_
_atom_site_label
_atom_site_type_symbol
_atom_site_description
_atom_site_fract_x
_atom_site_fract_y
_atom_site_fract_z
_atom_type_partial_charge
P1    P     P_3+3 0.018620 0.416870 0.295980 0.642627
O1    O     O_2   0.841250 0.444240 0.280450 -0.282469
O2    O     O_3   0.112870 0.447390 0.393710 -0.351903
O3    O     O_3   0.597960 0.615760 0.327700 -0.347427
O4    O     O_2   0.687440 0.547749 0.174680 -0.266685
O5    O     O_3   0.983905 0.295967 0.284444 -0.455932
O6    O     O_3   0.587248 0.714854 0.177769 -0.471897
H1    H     H_    0.663416 0.780089 0.306580 0.117957
C1    C     C_3   0.586012 0.879615 0.219169 -0.027149
H2    H     H_    0.559425 0.933524 0.272847 0.090777
H3    H     H_    0.710763 0.893314 0.206651 0.218109
P2    P     P_3+3 0.635650 0.716500 0.560900 0.597895
P3    P     P_3+3 0.041858 0.784637 0.370567 0.583768
O7    O     O_2   0.802240 0.729720 0.532850 -0.358568
O8    O     O_3   0.017190 0.664840 0.371090 -0.288676
O9    O     O_2   0.914081 0.829244 0.423641 -0.385860
O10   O     O_3   0.682883 0.745628 0.677490 -0.560646
O11   O     O_3   0.978490 0.803268 0.259400 -0.471957
C2    C     C_3   0.093025 0.768662 0.206251 0.244109
H4    H     H_    0.118614 0.695811 0.215936 0.025435
H5    H     H_    0.205049 0.812952 0.224009 0.068911
C3    C     C_3   0.035325 0.770993 0.106530 0.505714
C4    C     C_3   0.071693 0.752670 0.728394 0.330152
H6    H     H_    0.079938 0.818178 0.698035 0.107415
H7    H     H_    0.961325 0.715138 0.693847 0.151222
C5    C     C_3   0.065160 0.778745 0.828335 -0.799489
H8    H     H_    0.179795 0.814341 0.861970 0.320204
H9    H     H_    0.969988 0.827528 0.838089 0.230351
H10   H     H_    0.039524 0.716697 0.860795 0.232364
Ba1   Ba    Ba6+2 0.833410 0.543320 0.453520 1.786881
C6    C     C_3   0.968968 0.267898 0.368751 0.489924
H11   H     H_    0.866651 0.300671 0.395735 0.075200
H12   H     H_    0.079451 0.288230 0.417045 0.121832
C7    C     C_3   0.945766 0.161858 0.360272 -0.765796
H13   H     H_    0.820956 0.138934 0.363283 0.220113
H14   H     H_    0.022351 0.135275 0.415958 0.226785
H15   H     H_    0.976737 0.128301 0.295689 0.353166
C8    C     C_3   0.576701 0.810396 0.708660 0.105038
H16   H     H_    0.459601 0.774586 0.708618 0.204379
H17   H     H_    0.561417 0.868716 0.668334 0.086480
C9    C     C_3   0.642095 0.854039 0.803322 0.013866
H18   H     H_    0.747114 0.901298 0.800834 0.165846
H19   H     H_    0.678672 0.799844 0.846415 0.199607
P4    P     P_3+3 0.171070 0.583210 0.704020 0.638634
O12   O     O_2   0.348460 0.555790 0.719610 -0.261862
O13   O     O_3   0.076820 0.552690 0.606290 -0.281978
O14   O     O_3   0.591740 0.384320 0.672310 -0.277018
O15   O     O_3   0.208545 0.704029 0.714017 -0.502349
P5    P     P_3+3 0.155903 0.214971 0.632438 0.552886
O16   O     O_3   0.629090 0.386360 0.459240 -0.286569
O17   O     O_3   0.172500 0.335240 0.628910 -0.339454
O18   O     O_2   0.271858 0.169999 0.571188 -0.336052
O19   O     O_3   0.238458 0.197050 0.740701 -0.423059
Ba2   Ba    Ba6+2 0.356410 0.456750 0.546480 1.786150
P6    P     P_3+3 0.554207 0.605134 0.210939 0.573106
C10   C     C_3   0.568785 0.783559 0.248871 0.338637
H20   H     H_    0.450166 0.774605 0.271425 -0.043963
O20   O     O_3   0.560600 0.613720 0.540760 -0.232734
C11   C     C_3   0.465699 0.233303 0.263798 0.880334
C12   C     C_3   0.489273 0.171221 0.177407 -0.057254
H21   H     H_    0.451943 0.098014 0.182162 0.203082
H22   H     H_    0.413745 0.193559 0.118750 0.165265
P7    P     P_3+3 0.564706 0.266692 0.444439 0.532320
O21   O     O_2   0.387470 0.270310 0.467210 -0.329495
O22   O     O_3   0.574471 0.210228 0.334797 -0.640819
H23   H     H_    0.134822 0.751951 0.067895 0.037621
C13   C     C_3   0.130402 0.228117 0.799120 0.280949
H24   H     H_    0.094668 0.299702 0.789577 -0.004293
H25   H     H_    0.023045 0.179549 0.786700 0.113202
C14   C     C_3   0.207291 0.230676 0.896427 0.110682
H26   H     H_    0.319242 0.275737 0.909586 0.140163
H27   H     H_    0.123504 0.259689 0.941732 0.083518
P8    P     P_3+3 0.639077 0.397838 0.789902 0.576097
C15   C     C_3   0.676815 0.225211 0.816176 0.803138
H28   H     H_    0.796346 0.249603 0.803035 -0.150705
O23   O     O_2   0.525476 0.470556 0.824112 -0.329870
O24   O     O_3   0.573818 0.297857 0.831547 -0.568913
C16   C     C_3   0.698525 0.174687 0.899260 0.049389
H29   H     H_    0.581943 0.143603 0.910171 0.219572
H30   H     H_    0.744580 0.224651 0.958998 0.146709
C17   C     C_R   0.349909 0.547856 0.166731 0.131625
H31   H     H_    0.491041 0.603127 0.036150 0.235101
C18   C     C_R   0.114527 0.466123 0.203740 0.151082
C19   C     C_R   0.915478 0.509554 0.780274 0.051082
C20   C     C_R   0.847839 0.447178 0.828774 0.191138
C21   C     C_R   0.937226 0.424616 0.906171 -0.336755
C22   C     C_R   0.076944 0.478221 0.947365 0.117043
C23   C     C_R   0.156364 0.532699 0.890159 -0.153061
C24   C     C_R   0.137518 0.481952 0.042887 -0.023330
C25   C     C_R   0.289734 0.530057 0.074089 -0.154260
C26   C     C_R   0.374330 0.568998 0.013834 -0.126846
C27   C     C_R   0.305190 0.579617 0.928081 0.366146
C28   C     C_R   0.052666 0.446521 0.110585 0.207215
C29   C     C_R   0.253062 0.523973 0.229065 -0.029352
C30   C     C_R   0.077934 0.539106 0.799896 0.059239
H32   H     H_    0.897126 0.363598 0.930616 0.160051
C31   C     C_R   0.715062 0.937194 0.541961 -0.046422
C32   C     C_R   0.509719 0.803567 0.503108 0.024483
C33   C     C_R   0.345056 0.780012 0.476885 0.139394
C34   C     C_R   0.248109 0.832038 0.421235 0.034693
C35   C     C_R   0.307153 0.919621 0.406932 0.259962
C36   C     C_R   0.458628 0.956061 0.452267 -0.071302
C37   C     C_R   0.564471 0.897406 0.497781 -0.121389
C38   C     C_R   0.645401 0.092001 0.505796 -0.038293
C39   C     C_R   0.756563 0.033008 0.545449 0.124082
C40   C     C_R   0.681396 0.190016 0.516588 0.189887
C41   C     C_R   0.827721 0.225881 0.565939 -0.047873
C42   C     C_R   0.946744 0.166589 0.594570 0.102970
C43   C     C_R   0.908994 0.070677 0.587033 -0.265107
C44   C     C_R   0.501396 0.051444 0.456401 -0.021151
H33   H     H_    0.999326 0.025495 0.612105 0.165030
H34   H     H_    0.798615 0.895672 0.577932 0.138407
H35   H     H_    0.416996 0.095357 0.424970 0.217919
Br1   Br    Br    0.481715 0.927075 0.854448 -0.298930
Br2   Br    Br    0.442055 0.889620 0.110120 -0.338060
Cl1   Cl    Cl    0.268209 0.206338 0.278940 -0.626337
Br3   Br    Br    0.496013 0.361246 0.246983 -0.436173
Br4   Br    Br    0.708716 0.169878 0.153275 -0.334048
Cl2   Cl    Cl    0.250207 0.116999 0.921987 -0.439995
Cl3   Cl    Cl    0.586835 0.146249 0.722032 -0.556277
Cl4   Cl    Cl    0.836892 0.085412 0.890455 -0.513995
Br5   Br    Br    0.302683 0.579140 0.349946 -0.383559
Br6   Br    Br    0.843136 0.383274 0.087169 -0.415580
Br7   Br    Br    0.777892 0.560606 0.692366 -0.340861
Br8   Br    Br    0.418379 0.677348 0.884161 -0.423433
Cl5   Cl    Cl    0.250489 0.698709 0.531138 -0.517113
Cl6   Cl    Cl    0.187449 0.984594 0.335309 -0.607780
Br9   Br    Br    0.865719 0.356944 0.590461 -0.452938
Cl7   Cl    Cl    0.872114 0.688677 0.066202 -0.551990
Br10  Br    Br    0.973221 0.893992 0.082907 -0.241079

loop_
_geom_bond_atom_site_label_1
_geom_bond_atom_site_label_2
_geom_bond_distance
_ccdc_geom_bond_type
C38   C44   1.405213 A    
C22   C23   1.454404 A    
P7    O22   1.775780 S    
C35   C36   1.416526 A    
C7    H15   1.107789 S    
C9    H18   1.107745 S    
C2    H4    1.110510 S    
O6    P6    1.752599 S    
C9    Br1   1.934194 S    
C27   Br8   1.916875 S    
H1    C10   1.109065 S    
C38   C40   1.428914 A    
C20   C21   1.388157 A    
C10   H20   1.108244 S    
Ba1   Ba2   4.620023 S    
C5    H8    1.107392 S    
O16   Ba2   2.957208 S    
P3    O11   1.755673 S    
C2    H5    1.105422 S    
C41   Br9   1.900334 S    
O11   C2    1.407868 S    
C43   H33   1.083621 S    
C8    H16   1.098665 S    
C7    H13   1.100494 S    
O2    Ba2   2.866745 S    
C16   H30   1.104946 S    
C40   C41   1.400037 A    
C32   C37   1.437778 A    
C18   C28   1.428736 A    
C42   C43   1.404352 A    
C12   H22   1.111366 S    
P1    O1    1.555621 D    
C4    C5    1.526156 S    
C16   Cl4   1.780056 S    
C3    H23   1.110896 S    
C23   C27   1.419341 A    
C11   Cl1   1.748149 S    
P5    O17   1.754694 S    
C15   O24   1.407867 S    
P2    O10   1.754954 S    
C4    H6    1.110564 S    
C6    H12   1.110488 S    
C12   Br4   1.934225 S    
C14   H26   1.109151 S    
P6    C17   1.884799 S    
C1    H2    1.109873 S    
P2    C32   1.900583 S    
C31   C39   1.414866 A    
O5    C6    1.409506 S    
Ba1   O16   2.823201 S    
C23   C30   1.453246 A    
C11   C12   1.537390 S    
C11   Br3   1.918569 S    
C3    Br10  1.940791 S    
O16   P7    1.779328 S    
C9    H19   1.109694 S    
O6    C10   1.405542 S    
O7    Ba1   2.859908 S    
C38   C39   1.416424 A    
P4    O13   1.587397 S    
C33   Cl5   1.747889 S    
C15   H28   1.107412 S    
C13   H24   1.113559 S    
C1    Br2   1.938849 S    
C2    C3    1.530222 S    
C19   C20   1.388187 A    
O14   P8    1.759732 S    
C8    C9    1.518051 S    
C26   C27   1.380882 A    
C31   H34   1.079409 S    
C21   C22   1.413294 A    
C18   C29   1.394369 A    
H31   C26   1.077476 S    
P1    O5    1.752375 S    
C12   H21   1.111130 S    
P1    O2    1.587397 S    
C19   C30   1.401191 A    
O2    Ba1   2.970229 S    
C6    H11   1.102672 S    
C14   Cl2   1.780034 S    
C41   C42   1.404784 A    
P5    O18   1.545780 D    
O13   Ba2   2.971229 S    
C6    C7    1.532225 S    
C1    C10   1.525414 S    
P7    C40   1.869016 S    
C1    H3    1.108973 S    
C44   H35   1.075200 S    
P8    C20   1.865640 S    
C31   C37   1.419519 A    
C21   H32   1.062890 S    
O14   Ba2   2.881966 S    
C17   C25   1.416993 A    
C29   Br5   1.893953 S    
P2    O7    1.533872 D    
O12   Ba2   2.845965 S    
P3    O8    1.745325 S    
C3    Cl7   1.779754 S    
P8    O23   1.541154 D    
C36   C44   1.409932 A    
P1    C18   1.906595 S    
P4    O12   1.556054 D    
O8    Ba1   2.818995 S    
Ba2   O20   2.822676 S    
C39   C43   1.411492 A    
C4    O15   1.402543 S    
P2    Ba1   3.433926 S    
C16   H29   1.107745 S    
O4    P6    1.543235 D    
C28   Br6   1.928854 S    
C14   H27   1.109584 S    
C19   Br7   1.886857 S    
C15   Cl3   1.780512 S    
C5    H9    1.102346 S    
C33   C34   1.402262 A    
Ba1   O13   2.866071 S    
O1    Ba1   2.845250 S    
O17   Ba2   2.819543 S    
C13   C14   1.525391 S    
P3    C34   1.872872 S    
C22   C24   1.463728 A    
P2    O20   1.577039 S    
O3    P6    1.746496 S    
P4    C30   1.909278 S    
C11   O22   1.398900 S    
C8    H17   1.105486 S    
C17   C29   1.396764 A    
C25   C26   1.392417 A    
Ba2   O21   2.859969 S    
P5    O19   1.749002 S    
Ba1   O20   2.958187 S    
P1    Ba1   3.415458 S    
C35   Cl6   1.764530 S    
C7    H14   1.109137 S    
O10   C8    1.405753 S    
C4    H7    1.094438 S    
C24   C28   1.460826 A    
C36   C37   1.425246 A    
O19   C13   1.403473 S    
P5    C42   1.862236 S    
P7    O21   1.579801 D    
P4    Ba2   3.416153 S    
C5    H10   1.106676 S    
C32   C33   1.408590 A    
C15   C16   1.528306 S    
P3    O9    1.544750 D    
P8    O24   1.752413 S    
C34   C35   1.401033 A    
C13   H25   1.107382 S    
C24   C25   1.430722 A    
O3    Ba1   2.882561 S    
P4    O15   1.755319 S    
