data_mof_unit_50414.cif
_audit_creation_date              2012-12-10T20:32:00-0500
_audit_creation_method            fapswitch 2.2
_symmetry_space_group_name_H-M    P1
_symmetry_Int_Tables_number       1
_space_group_crystal_system       triclinic
_cell_length_a                    9.874371
_cell_length_b                    10.679077
_cell_length_c                    15.471695
_cell_angle_alpha                 90.121015
_cell_angle_beta                  67.693174
_cell_angle_gamma                 90.059097
_cell_volume                      1509.38153901

loop_
_atom_site_label
_atom_site_type_symbol
_atom_type_description
_atom_site_fract_x
_atom_site_fract_y
_atom_site_fract_z
_atom_type_partial_charge
C1    C     C_R   0.498356 0.740028 0.502831 0.937843
C2    C     C_R   0.707380 0.613062 0.042283 -0.221324
C3    C     C_R   0.571308 0.554068 0.092669 -0.033904
C4    C     C_R   0.407845 0.501404 0.676215 0.911796
C5    C     C_R   0.811922 0.625996 0.083619 0.587164
C6    C     C_R   0.780226 0.583565 0.174563 0.513302
C7    C     C_R   0.549954 0.500684 0.179053 -0.274996
C8    C     C_R   0.364936 0.935942 0.521200 -0.084775
C9    C     C_R   0.489265 0.871401 0.517864 -0.064067
C10   C     C_R   0.602436 0.935492 0.532942 -0.136920
C11   C     C_R   0.602113 0.064930 0.533268 -0.133327
C12   C     C_R   0.396091 0.552127 0.918076 0.133990
C13   C     C_R   0.488541 0.128679 0.518574 -0.138879
C14   C     C_R   0.364089 0.063770 0.522168 0.032558
C15   C     C_3   0.278627 0.071013 0.460572 0.396344
C16   C     C_R   0.498127 0.259964 0.503055 0.883120
C17   C     C_3   0.279998 0.929029 0.459199 0.407450
C18   C     C_R   0.904234 0.594802 0.542201 0.077404
C19   C     C_R   0.957751 0.413716 0.450110 0.672896
C20   C     C_R   0.101591 0.413697 0.450241 -0.133724
C21   C     C_R   0.047181 0.595340 0.541516 0.065513
C22   C     C_3   0.996552 0.632441 0.641476 -0.445406
C23   C     C_R   0.255647 0.503796 0.972422 0.066015
C24   C     C_3   0.842025 0.627996 0.643386 0.432393
C25   C     C_R   0.591670 0.501761 0.323792 0.962604
C26   C     C_R   0.347291 0.509436 0.778177 -0.204582
C27   C     C_R   0.647094 0.522659 0.222986 -0.261937
C28   C     C_R   0.159781 0.466194 0.929665 -0.168020
C29   C     C_R   0.205963 0.467142 0.832661 0.657594
C30   C     C_R   0.436868 0.557514 0.821271 -0.307274
C31   C     C_R   0.496170 0.582542 0.960943 0.006173
C32   C     C_R   0.460926 0.547889 0.055117 0.114504
C33   C     C_R   0.315793 0.509726 0.109145 -0.148322
C34   C     C_R   0.214623 0.489328 0.068283 -0.089996
C35   C     C_R   0.631499 0.643011 0.912477 -0.321196
C36   C     C_R   0.734637 0.659044 0.952628 0.733959
F1    F     F_    0.941457 0.685042 0.038391 -0.572603
F2    F     F_    0.139757 0.118712 0.508225 -0.640833
F3    F     F_    0.362500 0.881393 0.371591 -0.646083
F4    F     F_    0.919528 0.325018 0.400840 -0.627352
F5    F     F_    0.775745 0.744479 0.658499 -0.648286
F6    F     F_    0.876187 0.607321 0.216319 -0.617069
F7    F     F_    0.862156 0.718030 0.902269 -0.586815
F8    F     F_    0.115603 0.421090 0.792550 -0.653117
H1    H     H_    0.106000 0.456422 0.111266 0.190106
H2    H     H_    0.170709 0.884528 0.493182 0.136870
H3    H     H_    0.179024 0.342834 0.411317 0.186736
H4    H     H_    0.033830 0.728198 0.650230 0.239325
H5    H     H_    0.051890 0.430183 0.971041 0.160853
H6    H     H_    0.541817 0.592541 0.776918 0.196179
H7    H     H_    0.695652 0.886870 0.537551 0.227053
H8    H     H_    0.018173 0.559423 0.685635 0.238963
H9    H     H_    0.455069 0.443755 0.215369 0.182107
H10   H     H_    0.774823 0.552011 0.688084 0.079625
H11   H     H_    0.276471 0.496587 0.183773 0.161704
H12   H     H_    0.659292 0.682785 0.844023 0.212817
H13   H     H_    0.695148 0.113877 0.538107 0.214297
H14   H     H_    0.338671 0.116120 0.391846 0.106790
N1    N     N_R   0.856900 0.500860 0.500610 -0.189772
N2    N     N_R   0.142540 0.500820 0.500610 -0.124605
O1    O     O_R   0.385310 0.683210 0.499990 -0.599458
O2    O     O_R   0.614650 0.683240 0.500000 -0.606238
O3    O     O_R   0.319830 0.499970 0.632240 -0.563695
O4    O     O_R   0.549170 0.500000 0.632250 -0.637501
O5    O     O_R   0.385350 0.316760 0.500000 -0.603895
O6    O     O_R   0.614690 0.316790 0.500010 -0.574876
O7    O     O_R   0.450830 0.500000 0.367750 -0.624533
O8    O     O_R   0.680170 0.500030 0.367760 -0.525918
Zn1   Zn    Zn3+2 0.346870 0.499980 0.499990 1.023141
Zn2   Zn    Zn3+2 0.653130 0.500020 0.500010 1.062113

loop_
_geom_bond_atom_site_label_1
_geom_bond_atom_site_label_2
_ccdc_geom_bond_type
C33   H11   S    
C22   H4    S    
C15   F2    S    
O4    Zn2   S    
C20   N2    A    
C18   C21   A    
C28   H5    S    
C4    O4    A    
C3    C7    A    
C6    C27   A    
C12   C23   A    
C23   C34   A    
C12   C30   A    
C1    O2    A    
C22   C24   S    
C2    C3    A    
C30   H6    S    
C1    C9    S    
C3    C32   A    
C29   F8    S    
C34   H1    S    
C23   C28   A    
C32   C33   A    
C8    C17   S    
C24   F5    S    
C11   C13   A    
C4    O3    A    
O6    Zn2   S    
C25   O8    A    
N2    Zn1   S    
C21   N2    A    
C18   C24   S    
C10   H7    S    
C31   C35   A    
C21   C22   S    
C28   C29   A    
C33   C34   A    
C26   C30   A    
C22   H8    S    
C5    F1    S    
C19   F4    S    
C12   C31   A    
C6    F6    S    
C5    C6    A    
C15   H14   S    
O5    Zn1   S    
C4    C26   S    
C35   C36   A    
C20   H3    S    
C16   O6    A    
C10   C11   A    
C7    H9    S    
N1    Zn2   S    
O1    Zn1   S    
C2    C5    A    
O3    Zn1   S    
C18   N1    A    
C7    C27   A    
C17   H2    S    
O2    Zn2   S    
C26   C29   A    
O8    Zn2   S    
C9    C10   A    
C13   C16   S    
C2    C36   A    
C15   C17   S    
C17   F3    S    
C14   C15   S    
C36   F7    S    
C8    C14   A    
C16   O5    A    
C25   O7    A    
C13   C14   A    
C19   N1    A    
C35   H12   S    
C11   H13   S    
C24   H10   S    
C31   C32   A    
C19   C20   A    
C8    C9    A    
O7    Zn1   S    
C25   C27   S    
C1    O1    A    
