data_mof_unit_41850.cif
_audit_creation_date              2012-12-11T14:52:51-0500
_audit_creation_method            fapswitch 2.2
_symmetry_space_group_name_H-M    P1
_symmetry_Int_Tables_number       1
_space_group_crystal_system       triclinic
_cell_length_a                    20.604113
_cell_length_b                    7.256261
_cell_length_c                    20.363699
_cell_angle_alpha                 89.649738
_cell_angle_beta                  101.374331
_cell_angle_gamma                 89.530487
_cell_volume                      2984.56351219

loop_
_atom_site_label
_atom_site_type_symbol
_atom_type_description
_atom_site_fract_x
_atom_site_fract_y
_atom_site_fract_z
_atom_type_partial_charge
O1    O     O_R   0.673670 0.377510 0.185950 -0.519627
O2    O     O_R   0.326330 0.622490 0.814050 -0.519627
O3    O     O_R   0.826330 0.877510 0.314050 -0.536750
O4    O     O_R   0.173670 0.122490 0.685950 -0.536750
O5    O     O_R   0.806260 0.705340 0.185590 -0.536924
O6    O     O_R   0.193740 0.294660 0.814410 -0.536924
O7    O     O_R   0.693740 0.205340 0.314410 -0.537250
O8    O     O_R   0.306260 0.794660 0.685590 -0.537251
C1    C     C_R   0.825580 0.538481 0.170765 0.731909
C2    C     C_R   0.174420 0.461519 0.829235 0.731909
C3    C     C_R   0.674420 0.038683 0.329217 0.708946
C4    C     C_R   0.325580 0.961317 0.670783 0.708946
O9    O     O_R   0.672940 0.707120 0.178050 -0.547961
O10   O     O_R   0.327060 0.292880 0.821950 -0.547962
O11   O     O_R   0.827060 0.207120 0.321950 -0.539378
O12   O     O_R   0.172940 0.792880 0.678050 -0.539378
O13   O     O_R   0.692060 0.879040 0.306460 -0.536064
O14   O     O_R   0.307940 0.120960 0.693540 -0.536064
O15   O     O_R   0.807940 0.379040 0.193540 -0.528624
O16   O     O_R   0.192060 0.620960 0.806460 -0.528624
C5    C     C_R   0.648802 0.540153 0.161455 0.747151
C6    C     C_R   0.351198 0.459847 0.838545 0.747151
C7    C     C_R   0.850754 0.037606 0.338836 0.688274
C8    C     C_R   0.149246 0.962394 0.661164 0.688273
O17   O     O_3   0.756430 0.544390 0.292140 -0.379884
O18   O     O_3   0.243570 0.455610 0.707860 -0.379884
O19   O     O_3   0.743570 0.044390 0.207860 -0.369497
O20   O     O_3   0.256430 0.955610 0.792140 -0.369497
V1    V     V_3+5 0.748810 0.818610 0.242180 1.424364
V2    V     V_3+5 0.251190 0.181390 0.757820 1.424364
V3    V     V_3+5 0.751190 0.318610 0.257820 1.441805
V4    V     V_3+5 0.248810 0.681390 0.742180 1.441805
C9    C     C_R   0.087609 0.976077 0.609113 -0.124224
C10   C     C_R   0.912391 0.023922 0.390887 -0.124224
C11   C     C_R   0.412657 0.462716 0.891323 -0.090727
C12   C     C_R   0.587343 0.537284 0.108677 -0.090727
C13   C     C_R   0.031089 0.960546 0.420087 -0.040476
C14   C     C_R   0.968911 0.039453 0.579913 -0.040476
C15   C     C_R   0.473104 0.638110 0.068440 -0.026521
C16   C     C_R   0.526895 0.361888 0.931561 -0.026521
C17   C     C_R   0.972580 0.982693 0.371654 0.087101
C18   C     C_R   0.027420 0.017306 0.628346 0.087100
C19   C     C_R   0.530424 0.630949 0.118972 0.093362
C20   C     C_R   0.469576 0.369049 0.881028 0.093363
C21   C     C_R   0.910297 0.043710 0.459337 0.118709
C22   C     C_R   0.089703 0.956290 0.540663 0.118709
C23   C     C_R   0.587089 0.446833 0.047804 0.117496
C24   C     C_R   0.412912 0.553168 0.952195 0.117495
C25   C     C_R   0.969261 0.021302 0.509946 -0.000936
C26   C     C_R   0.030739 0.978698 0.490054 -0.000936
C27   C     C_R   0.529079 0.450848 0.994761 -0.031197
C28   C     C_R   0.470921 0.549152 0.005238 -0.031197
C29   C     C_3   0.560561 0.041334 0.535543 -0.153429
C30   C     C_3   0.439439 0.958666 0.464457 -0.153429
C31   C     C_3   0.939453 0.545740 0.964507 -0.154077
C32   C     C_3   0.060546 0.454259 0.035493 -0.154077
C33   C     C_3   0.519512 0.869910 0.545571 -0.008153
C34   C     C_3   0.480488 0.130090 0.454429 -0.008153
C35   C     C_3   0.980556 0.373179 0.954102 -0.009642
C36   C     C_3   0.019444 0.626821 0.045898 -0.009642
H1    H     H_    0.610453 0.073792 0.564877 0.147884
H2    H     H_    0.389547 0.926208 0.435123 0.147884
H3    H     H_    0.889566 0.581788 0.935221 0.144131
H4    H     H_    0.110434 0.418212 0.064779 0.144131
H5    H     H_    0.505695 0.701710 0.444587 0.147209
H6    H     H_    0.494305 0.298290 0.555413 0.147209
H7    H     H_    0.994331 0.198928 0.054661 0.146184
H8    H     H_    0.005669 0.801072 0.945339 0.146184
C37   C     C_1   0.371078 0.970094 0.624850 -0.159149
C38   C     C_1   0.628922 0.029905 0.375150 -0.159149
C39   C     C_1   0.128941 0.470704 0.875169 -0.161206
C40   C     C_1   0.871059 0.529296 0.124831 -0.161206
C41   C     C_3   0.497186 0.163336 0.530721 -0.170804
C42   C     C_3   0.502814 0.836664 0.469279 -0.170803
C43   C     C_3   0.002802 0.664899 0.969691 -0.171226
C44   C     C_3   0.997197 0.335101 0.030309 -0.171226
C45   C     C_3   0.457069 0.989931 0.540909 0.103073
C46   C     C_3   0.542931 0.010069 0.459091 0.103073
C47   C     C_3   0.042971 0.490405 0.959124 0.105160
C48   C     C_3   0.957029 0.509595 0.040877 0.105160
C49   C     C_1   0.409616 0.978638 0.586857 -0.020386
C50   C     C_1   0.590384 0.021362 0.413143 -0.020386
C51   C     C_1   0.090421 0.479331 0.913176 -0.023357
C52   C     C_1   0.909579 0.520669 0.086824 -0.023357
N1    N     N_3   0.152447 0.916482 0.523007 -0.669135
H9    H     H_    0.170721 0.791448 0.545297 0.238927
H10   H     H_    0.185637 0.021105 0.541252 0.224210
N2    N     N_3   0.847553 0.083518 0.476993 -0.669135
H11   H     H_    0.829279 0.208552 0.454703 0.238927
H12   H     H_    0.814363 0.978895 0.458748 0.224210
N3    N     N_3   0.352102 0.643222 0.958183 -0.671402
H13   H     H_    0.359400 0.784961 0.963982 0.248633
H14   H     H_    0.332849 0.582979 0.996882 0.242796
N4    N     N_3   0.647899 0.356781 0.041817 -0.671403
H15   H     H_    0.640602 0.215042 0.036018 0.248633
H16   H     H_    0.667151 0.417024 0.003117 0.242797
N5    N     N_3   0.024818 0.036264 0.698091 -0.645467
H17   H     H_    0.042896 0.914792 0.723341 0.232293
H18   H     H_    0.055175 0.145249 0.717964 0.238596
N6    N     N_3   0.975182 0.963736 0.301909 -0.645467
H19   H     H_    0.957104 0.085207 0.276659 0.232292
H20   H     H_    0.944825 0.854751 0.282036 0.238596
N7    N     N_3   0.470571 0.281981 0.817855 -0.643933
H21   H     H_    0.437370 0.172508 0.811340 0.241704
H22   H     H_    0.456218 0.378214 0.779171 0.229307
N8    N     N_3   0.529429 0.718013 0.182145 -0.643933
H23   H     H_    0.562629 0.827487 0.188662 0.241703
H24   H     H_    0.543781 0.621778 0.220829 0.229307
C53   C     C_1   0.090520 0.917752 0.394886 0.477944
N9    N     N_1   0.137654 0.883606 0.374210 -0.306827
C54   C     C_1   0.909480 0.082248 0.605114 0.477945
N10   N     N_1   0.862346 0.116393 0.625790 -0.306828
C55   C     C_1   0.418138 0.741818 0.084910 0.372576
N11   N     N_1   0.374806 0.825320 0.099008 -0.329310
C56   C     C_1   0.581861 0.258176 0.915090 0.372574
N12   N     N_1   0.625193 0.174672 0.900993 -0.329309
C57   C     C_1   0.541182 0.725328 0.595960 0.301437
N13   N     N_1   0.558254 0.611318 0.635733 -0.334720
C58   C     C_1   0.458818 0.274672 0.404040 0.301437
N14   N     N_1   0.441746 0.388682 0.364267 -0.334720
C59   C     C_1   0.959040 0.232292 0.903288 0.300818
N15   N     N_1   0.942111 0.121222 0.863171 -0.323734
C60   C     C_1   0.040960 0.767707 0.096712 0.300818
N16   N     N_1   0.057889 0.878778 0.136829 -0.323734

loop_
_geom_bond_atom_site_label_1
_geom_bond_atom_site_label_2
_ccdc_geom_bond_type
C35   C59   S    
C4    C37   S    
O1    C5    A    
C32   C44   S    
C31   C35   S    
O19   V1    S    
O13   V1    S    
O3    C7    A    
C54   N10   T    
C1    C40   S    
C48   C52   S    
O15   V3    S    
N5    H17   S    
C3    C38   S    
C60   N16   T    
C5    C12   S    
N1    H9    S    
H8    C43   S    
O7    C3    A    
C6    C11   S    
C32   C47   S    
C9    C18   A    
O9    V1    S    
C14   C18   A    
C30   C34   S    
O4    C8    A    
C16   C56   S    
N8    H23   S    
C56   N12   T    
O1    V3    S    
C12   C23   A    
O2    V4    S    
O3    V1    S    
C34   C58   S    
C30   C42   S    
C29   H1    S    
C1    O15   A    
C36   C48   S    
C2    O16   A    
C15   C55   S    
C24   N3    S    
C31   H3    S    
O2    C6    A    
C32   H4    S    
O14   V2    S    
C45   C49   S    
C16   C20   A    
C13   C53   S    
C30   C45   S    
C31   C43   S    
C2    C39   S    
O11   C7    A    
C15   C28   A    
O12   C8    A    
C9    C22   A    
C10   C17   A    
O10   V2    S    
C11   C24   A    
N5    H18   S    
C20   N7    S    
C39   C51   T    
N1    H10   S    
O7    V3    S    
C27   C28   A    
O8    V4    S    
C33   C45   S    
C21   N2    S    
C18   N5    S    
C35   C47   S    
N3    H13   S    
C14   C25   A    
C29   C33   S    
O18   V4    S    
C15   C19   A    
C30   H2    S    
H6    C41   S    
H5    C42   S    
C32   C36   S    
C19   N8    S    
C33   C42   S    
C36   C60   S    
O5    C1    A    
N3    H14   S    
C46   C50   S    
C21   C25   A    
O8    C4    A    
C7    C10   S    
N6    H20   S    
C17   N6    S    
O9    C5    A    
N7    H22   S    
C10   C21   A    
N4    H16   S    
C11   C20   A    
C59   N15   T    
C40   C52   T    
O6    V2    S    
N2    H12   S    
O5    V1    S    
C33   C57   S    
C55   N11   T    
O16   V4    S    
C3    O13   A    
O17   V3    S    
C29   C41   S    
C44   C48   S    
O6    C2    A    
C23   C27   A    
C58   N14   T    
O11   V3    S    
O12   V4    S    
C16   C27   A    
C22   C26   A    
C36   C43   S    
C8    C9    S    
C22   N1    S    
O20   V2    S    
C29   C46   S    
C53   N9    T    
C47   C51   S    
C31   C48   S    
O10   C6    A    
N8    H24   S    
C13   C26   A    
N6    H19   S    
C23   N4    S    
C13   C17   A    
N4    H15   S    
C38   C50   T    
C37   C49   T    
C34   C46   S    
C24   C28   A    
N2    H11   S    
C25   C26   A    
C42   C46   S    
C4    O14   A    
N7    H21   S    
C41   C45   S    
C12   C19   A    
H7    C44   S    
C14   C54   S    
C57   N13   T    
C43   C47   S    
C35   C44   S    
O4    V2    S    
C34   C41   S    
