data_mof_unit_53273.cif
_audit_creation_date              2012-12-11T15:26:44-0500
_audit_creation_method            fapswitch 2.2
_symmetry_space_group_name_H-M    P1
_symmetry_Int_Tables_number       1
_space_group_crystal_system       triclinic
_cell_length_a                    7.25227
_cell_length_b                    12.066478
_cell_length_c                    28.993455
_cell_angle_alpha                 89.937765
_cell_angle_beta                  89.557238
_cell_angle_gamma                 89.950037
_cell_volume                      2537.12038798

loop_
_atom_site_label
_atom_site_type_symbol
_atom_type_description
_atom_site_fract_x
_atom_site_fract_y
_atom_site_fract_z
_atom_type_partial_charge
O1    O     O_R   0.647170 0.849180 0.201220 -0.533538
O2    O     O_R   0.352830 0.150820 0.798780 -0.533539
O3    O     O_R   0.352830 0.150820 0.701220 -0.532717
O4    O     O_R   0.647170 0.849180 0.298780 -0.532719
O5    O     O_R   0.147170 0.650820 0.298780 -0.532334
O6    O     O_R   0.852830 0.349180 0.701220 -0.532334
O7    O     O_R   0.852830 0.349180 0.798780 -0.533785
O8    O     O_R   0.147170 0.650820 0.201220 -0.533783
O9    O     O_R   0.317430 0.862210 0.298450 -0.535595
O10   O     O_R   0.682570 0.137790 0.701550 -0.535594
O11   O     O_R   0.682570 0.137790 0.798450 -0.537215
O12   O     O_R   0.317430 0.862210 0.201550 -0.537213
O13   O     O_R   0.817430 0.637790 0.201550 -0.537313
O14   O     O_R   0.182570 0.362210 0.798450 -0.537314
O15   O     O_R   0.182570 0.362210 0.701550 -0.537162
O16   O     O_R   0.817430 0.637790 0.298450 -0.537164
C1    C     C_R   0.485249 0.887717 0.313455 0.683662
C2    C     C_R   0.514751 0.112283 0.686545 0.683664
C3    C     C_R   0.513866 0.111982 0.813330 0.681457
C4    C     C_R   0.486133 0.888017 0.186669 0.681460
C5    C     C_R   0.986215 0.612094 0.186646 0.680867
C6    C     C_R   0.013785 0.387906 0.813354 0.680866
C7    C     C_R   0.014939 0.388223 0.686714 0.685662
C8    C     C_R   0.985061 0.611777 0.313286 0.685659
H1    H     H_    0.035442 0.611200 0.691696 0.101635
H2    H     H_    0.964653 0.388795 0.308305 0.101631
H3    H     H_    0.015319 0.389554 0.192092 0.100997
H4    H     H_    0.984681 0.610446 0.807908 0.101001
H5    H     H_    0.484938 0.889436 0.808043 0.100934
H6    H     H_    0.515042 0.110564 0.191958 0.100933
H7    H     H_    0.477785 0.110738 0.308070 0.101233
H8    H     H_    0.522245 0.889263 0.691929 0.101230
H9    H     H_    0.931847 0.260572 0.371477 0.165614
H10   H     H_    0.068242 0.739421 0.628523 0.165642
H11   H     H_    0.995449 0.741182 0.870360 0.166019
H12   H     H_    0.004554 0.258818 0.129640 0.166015
H13   H     H_    0.504291 0.241315 0.129376 0.165918
H14   H     H_    0.495696 0.758687 0.870627 0.165906
H15   H     H_    0.544254 0.759660 0.629121 0.164509
H16   H     H_    0.455775 0.240344 0.370877 0.164516
H17   H     H_    0.018732 0.340058 0.598817 0.177059
H18   H     H_    0.981196 0.659947 0.401184 0.177067
H19   H     H_    0.955153 0.658156 0.098699 0.157212
H20   H     H_    0.044850 0.341844 0.901301 0.157218
H21   H     H_    0.545092 0.157989 0.901186 0.156896
H22   H     H_    0.454924 0.842012 0.098811 0.156920
H23   H     H_    0.484513 0.839800 0.401716 0.148912
H24   H     H_    0.515464 0.160202 0.598285 0.148922
O17   O     O_3   0.480630 0.680630 0.250000 -0.377831
O18   O     O_3   0.519370 0.319370 0.750000 -0.377832
O19   O     O_3   0.980630 0.819370 0.250000 -0.376825
O20   O     O_3   0.019370 0.180630 0.750000 -0.376823
V1    V     V_3+5 0.205800 0.762860 0.250000 1.467647
V2    V     V_3+5 0.794200 0.237140 0.750000 1.467646
V3    V     V_3+5 0.705800 0.737140 0.250000 1.464419
V4    V     V_3+5 0.294200 0.262860 0.750000 1.464420
C9    C     C_R   0.989740 0.532586 0.351584 -0.060026
C10   C     C_R   0.010260 0.467416 0.648416 -0.060034
C11   C     C_R   0.004201 0.466867 0.851615 -0.052748
C12   C     C_R   0.995800 0.533133 0.148385 -0.052737
C13   C     C_R   0.495520 0.967013 0.148372 -0.052946
C14   C     C_R   0.504480 0.032988 0.851627 -0.052939
C15   C     C_R   0.507980 0.033221 0.648287 -0.049940
C16   C     C_R   0.492020 0.966780 0.351713 -0.049945
C17   C     C_R   0.960715 0.345711 0.380106 -0.060220
C18   C     C_R   0.039330 0.654288 0.619894 -0.060175
C19   C     C_R   0.992030 0.654574 0.879519 -0.085614
C20   C     C_R   0.007973 0.345426 0.120481 -0.085604
C21   C     C_R   0.507730 0.154699 0.120304 -0.085115
C22   C     C_R   0.492265 0.845304 0.879698 -0.085120
C23   C     C_R   0.523706 0.845639 0.620246 -0.071688
C24   C     C_R   0.476309 0.154364 0.379753 -0.071708
C25   C     C_R   0.974709 0.419502 0.343305 -0.194703
C26   C     C_R   0.025342 0.580497 0.656696 -0.194720
C27   C     C_R   0.989494 0.579809 0.843027 -0.190112
C28   C     C_R   0.010507 0.420191 0.156973 -0.190103
C29   C     C_R   0.510232 0.079937 0.156866 -0.189871
C30   C     C_R   0.489759 0.920064 0.843135 -0.189869
C31   C     C_R   0.514995 0.919967 0.656850 -0.193339
C32   C     C_R   0.485022 0.080034 0.343149 -0.193356
C33   C     C_R   0.993769 0.571498 0.396815 -0.101571
C34   C     C_R   0.006188 0.428508 0.603185 -0.101560
C35   C     C_R   0.013360 0.428560 0.896929 -0.099606
C36   C     C_R   0.986642 0.571440 0.103071 -0.099611
C37   C     C_R   0.486411 0.928698 0.103107 -0.099283
C38   C     C_R   0.513600 0.071305 0.896891 -0.099295
C39   C     C_R   0.501883 0.071879 0.602945 -0.092801
C40   C     C_R   0.498104 0.928122 0.397055 -0.092783
C41   C     C_R   0.998628 0.497983 0.434967 0.088019
C42   C     C_R   0.001332 0.502025 0.565033 0.088002
C43   C     C_R   0.994889 0.501503 0.935019 0.099415
C44   C     C_R   0.005115 0.498497 0.064981 0.099411
C45   C     C_R   0.505001 0.001591 0.064962 0.099372
C46   C     C_R   0.495013 0.998415 0.935038 0.099369
C47   C     C_R   0.494279 0.998038 0.564961 0.097744
C48   C     C_R   0.505712 0.001964 0.435039 0.097744
C49   C     C_R   0.971484 0.382942 0.426330 0.079380
C50   C     C_R   0.028506 0.617063 0.573672 0.079382
C51   C     C_R   0.998250 0.617537 0.925907 0.069953
C52   C     C_R   0.001754 0.382463 0.074093 0.069952
C53   C     C_R   0.501587 0.117636 0.073954 0.069926
C54   C     C_R   0.498422 0.882370 0.926047 0.069925
C55   C     C_R   0.518076 0.882884 0.573902 0.084389
C56   C     C_R   0.481924 0.117119 0.426097 0.084364
C57   C     C_R   0.020259 0.536522 0.481349 -0.066229
C58   C     C_R   0.979685 0.463488 0.518652 -0.066211
C59   C     C_R   0.985131 0.462048 0.981612 -0.055198
C60   C     C_R   0.014873 0.537952 0.018388 -0.055222
C61   C     C_R   0.514889 0.962066 0.018426 -0.055128
C62   C     C_R   0.485129 0.037943 0.981574 -0.055126
C63   C     C_R   0.477002 0.036488 0.518439 -0.054242
C64   C     C_R   0.522985 0.963514 0.481561 -0.054220
C65   C     C_R   0.915982 0.354839 0.508513 0.309093
C66   C     C_R   0.083959 0.645169 0.491488 0.309032
C67   C     C_R   0.053648 0.650988 0.007727 0.297587
C68   C     C_R   0.946357 0.349012 0.992273 0.297574
C69   C     C_R   0.446241 0.151027 0.992102 0.297138
C70   C     C_R   0.553791 0.848982 0.007899 0.297192
C71   C     C_R   0.582298 0.853908 0.492048 0.259575
C72   C     C_R   0.417691 0.146095 0.507951 0.259622
C73   C     C_R   0.940226 0.309896 0.463852 -0.110023
C74   C     C_R   0.059741 0.690110 0.536149 -0.110010
C75   C     C_R   0.025071 0.692785 0.962704 -0.075316
C76   C     C_R   0.974935 0.307215 0.037295 -0.075328
C77   C     C_R   0.474769 0.192867 0.037076 -0.075562
C78   C     C_R   0.525248 0.807139 0.962926 -0.075586
C79   C     C_R   0.554705 0.809647 0.536842 -0.101093
C80   C     C_R   0.445290 0.190356 0.463157 -0.101055
C81   C     C_2   0.938289 0.186585 0.458394 0.391318
H25   H     H_    0.861163 0.134178 0.481926 0.078856
O21   O     O_2   0.033967 0.140534 0.429388 -0.538863
C82   C     C_2   0.061686 0.813422 0.541603 0.391283
H26   H     H_    0.138702 0.865823 0.518045 0.078979
O22   O     O_2   0.966119 0.859481 0.570630 -0.538869
C83   C     C_2   0.040915 0.814474 0.954556 0.356304
H27   H     H_    0.149004 0.861877 0.970859 0.072724
O23   O     O_2   0.927973 0.864193 0.931411 -0.545215
C84   C     C_2   0.959096 0.185526 0.045444 0.356299
H28   H     H_    0.851009 0.138122 0.029140 0.072716
O24   O     O_2   0.072040 0.135808 0.068588 -0.545208
C85   C     C_2   0.458871 0.314578 0.045090 0.356844
H29   H     H_    0.350786 0.362061 0.028725 0.072607
O25   O     O_2   0.571756 0.364219 0.068192 -0.545210
C86   C     C_2   0.541130 0.685427 0.954910 0.356843
H30   H     H_    0.649239 0.637940 0.971262 0.072540
O26   O     O_2   0.428207 0.635792 0.931816 -0.545202
C87   C     C_2   0.576420 0.688161 0.544512 0.337918
H31   H     H_    0.686094 0.642414 0.527732 0.077401
O27   O     O_2   0.466042 0.636613 0.568151 -0.542745
C88   C     C_2   0.423565 0.311841 0.455487 0.337975
H32   H     H_    0.313886 0.357585 0.472267 0.077401
O28   O     O_2   0.533941 0.363393 0.431848 -0.542758
O29   O     O_3   0.823150 0.295649 0.542146 -0.653093
H33   H     H_    0.727565 0.250115 0.527377 0.273621
O30   O     O_3   0.176773 0.704368 0.457855 -0.653096
H34   H     H_    0.272460 0.749828 0.472622 0.273632
O31   O     O_3   0.137727 0.716636 0.040414 -0.661198
H35   H     H_    0.082572 0.791651 0.039451 0.290694
O32   O     O_3   0.862278 0.283363 0.959585 -0.661224
H36   H     H_    0.917434 0.208349 0.960549 0.290692
O33   O     O_3   0.362116 0.216690 0.959338 -0.661370
H37   H     H_    0.417227 0.291659 0.960216 0.290777
O34   O     O_3   0.637949 0.783333 0.040664 -0.661369
H38   H     H_    0.582975 0.708328 0.039771 0.290753
O35   O     O_3   0.680428 0.794949 0.459180 -0.645608
H39   H     H_    0.643936 0.716092 0.460496 0.278616
O36   O     O_3   0.319560 0.205055 0.540818 -0.645601
H40   H     H_    0.356063 0.283911 0.539503 0.278629

loop_
_geom_bond_atom_site_label_1
_geom_bond_atom_site_label_2
_ccdc_geom_bond_type
C7    C10   S    
O14   V4    S    
H14   C22   S    
O35   H39   S    
H13   C21   S    
C22   C30   A    
C21   C29   A    
O34   H38   S    
H20   C35   S    
H10   C18   S    
C23   C31   A    
O33   H37   S    
H9    C17   S    
C83   H27   S    
C15   C31   A    
C81   O21   D    
C14   C38   A    
O11   C3    A    
O31   H35   S    
C67   O31   S    
C60   C67   A    
C76   C84   S    
C87   O27   D    
C11   C35   A    
C45   C61   A    
C10   C34   A    
C1    C16   S    
C2    C15   S    
H17   C34   S    
C3    C14   S    
C18   C26   A    
H2    C25   S    
C17   C25   A    
O3    C2    A    
C83   O23   D    
H1    C26   S    
C9    C25   A    
C4    C13   S    
C41   C49   A    
C49   C73   A    
C38   C46   A    
H6    C29   S    
C37   C45   A    
C44   C60   A    
H5    C30   S    
C87   H31   S    
O20   V2    S    
C82   H26   S    
C39   C47   A    
C53   C77   A    
C59   C60   A    
C10   C26   A    
C65   C73   A    
C22   C54   A    
C55   C79   A    
C71   O35   S    
O12   V1    S    
C19   C51   A    
H22   C37   S    
C33   C41   A    
O15   C7    A    
O16   C8    A    
H16   C24   S    
H19   C36   S    
C16   C32   A    
H18   C33   S    
O6    V2    S    
C62   C69   A    
C74   C82   S    
C47   C55   A    
C61   C70   A    
C70   O34   S    
C67   C75   A    
C58   C65   A    
C43   C59   A    
C57   C66   A    
H7    C32   S    
C42   C58   A    
C5    C12   S    
C86   O26   D    
C77   C85   S    
C6    C11   S    
C8    C9    S    
C65   O29   S    
C24   C56   A    
C69   O33   S    
O17   V3    S    
C46   C62   A    
O18   V4    S    
C75   C83   S    
C40   C48   A    
C52   C76   A    
C20   C52   A    
C48   C64   A    
O3    V4    S    
O32   H36   S    
C56   C80   A    
H11   C19   S    
O12   C4    A    
C72   C80   A    
O8    C5    A    
H24   C39   S    
O13   C5    A    
C36   C44   A    
O11   V2    S    
C13   C37   A    
C68   O32   S    
O4    C1    A    
O9    C1    A    
C13   C29   A    
C48   C56   A    
O4    V3    S    
C9    C33   A    
O9    V1    S    
C45   C53   A    
H3    C28   S    
C11   C27   A    
C66   O30   S    
O36   H40   S    
C44   C52   A    
C51   C75   A    
C81   H25   S    
O5    V1    S    
C50   C74   A    
C23   C55   A    
O1    C4    A    
C16   C40   A    
C68   C76   A    
C63   C64   A    
C15   C39   A    
O2    C3    A    
C14   C30   A    
C80   C88   S    
C73   C81   S    
C86   H30   S    
C54   C78   A    
O8    V1    S    
C64   C71   A    
H12   C20   S    
C84   O24   D    
C21   C53   A    
C20   C28   A    
O7    C6    A    
C35   C43   A    
C57   C58   A    
C34   C42   A    
C43   C51   A    
H23   C40   S    
C18   C50   A    
C85   O25   D    
H21   C38   S    
O1    V3    S    
O16   V3    S    
C17   C49   A    
C24   C32   A    
O2    V4    S    
C61   C62   A    
O15   V4    S    
H8    C31   S    
C12   C36   A    
O14   C6    A    
O5    C8    A    
O10   C2    A    
O6    C7    A    
C78   C86   S    
C12   C28   A    
C88   O28   D    
O10   V2    S    
C59   C68   A    
C84   H28   S    
C66   C74   A    
C19   C27   A    
C46   C54   A    
C82   O22   D    
C41   C57   A    
O30   H34   S    
H15   C23   S    
C88   H32   S    
C63   C72   A    
C47   C63   A    
C70   C78   A    
O7    V2    S    
O19   V1    S    
O29   H33   S    
C85   H29   S    
H4    C27   S    
C69   C77   A    
C42   C50   A    
C72   O36   S    
C79   C87   S    
O13   V3    S    
C71   C79   A    
