data_mof_unit_53152.cif
_audit_creation_date              2012-12-10T17:28:36-0500
_audit_creation_method            fapswitch 2.2
_symmetry_space_group_name_H-M    P1
_symmetry_Int_Tables_number       1
_space_group_crystal_system       triclinic
_cell_length_a                    10.478905
_cell_length_b                    12.023688
_cell_length_c                    12.936641
_cell_angle_alpha                 92.802449
_cell_angle_beta                  90.664551
_cell_angle_gamma                 89.335067
_cell_volume                      1627.79490168

loop_
_atom_site_label
_atom_site_type_symbol
_atom_type_description
_atom_site_fract_x
_atom_site_fract_y
_atom_site_fract_z
_atom_type_partial_charge
C1    C     C_R   0.496689 0.520618 0.700303 0.874905
C2    C     C_R   0.543097 0.564554 0.128492 -0.082954
C3    C     C_R   0.528989 0.443107 0.975133 0.065315
C4    C     C_R   0.561323 0.547952 0.021955 -0.020203
C5    C     C_R   0.391298 0.947373 0.393935 -0.256234
C6    C     C_R   0.604725 0.052743 0.607437 -0.303355
C7    C     C_R   0.401572 0.832987 0.405229 0.055016
C8    C     C_R   0.595902 0.166905 0.596114 0.011386
C9    C     C_R   0.541011 0.862303 0.549954 0.070769
C10   C     C_R   0.457822 0.138891 0.449696 0.074227
C11   C     C_R   0.536386 0.978758 0.539783 0.015432
C12   C     C_R   0.507193 0.479551 0.299522 0.871811
C13   C     C_R   0.461924 0.021947 0.459437 0.095591
C14   C     C_R   0.739693 0.501287 0.484281 0.912420
C15   C     C_R   0.260084 0.498572 0.515060 0.875624
C16   C     C_R   0.890609 0.308390 0.402090 -0.102742
C17   C     C_R   0.108718 0.691698 0.594204 -0.101110
C18   C     C_R   0.946944 0.203123 0.411265 0.006911
C19   C     C_R   0.054527 0.797236 0.581864 0.006733
C20   C     C_R   0.050581 0.191925 0.479034 -0.301094
C21   C     C_R   0.952392 0.807828 0.512589 -0.218286
C22   C     C_R   0.102752 0.285564 0.532101 0.207310
C23   C     C_R   0.528042 0.469690 0.188473 -0.151603
C24   C     C_R   0.898707 0.713451 0.461817 0.231055
C25   C     C_R   0.058213 0.393974 0.508659 0.093603
C26   C     C_R   0.941782 0.605412 0.487609 0.097696
C27   C     C_R   0.942074 0.403077 0.455444 -0.002909
C28   C     C_R   0.057310 0.596498 0.541580 -0.002081
C29   C     C_R   0.123456 0.493792 0.536076 -0.222436
C30   C     C_R   0.875958 0.505722 0.461503 -0.251346
C31   C     C_2   0.893812 0.103302 0.355851 0.426515
C32   C     C_2   0.108329 0.897733 0.635628 0.400609
C33   C     C_3   0.188384 0.265133 0.623779 -0.796657
C34   C     C_R   0.512046 0.530248 0.811249 -0.146093
C35   C     C_3   0.810895 0.732502 0.371360 -0.711460
C36   C     C_2   0.510848 0.679490 0.168209 0.414693
C37   C     C_2   0.392855 0.352156 0.836848 0.334545
C38   C     C_2   0.676868 0.730206 0.999309 0.453867
C39   C     C_2   0.548304 0.233009 0.986789 0.513718
C40   C     C_2   0.383179 0.187844 0.365268 0.402608
C41   C     C_2   0.608164 0.818355 0.639962 0.434493
C42   C     C_R   0.598536 0.634908 0.959201 -0.065475
C43   C     C_R   0.534437 0.347545 0.034586 -0.016450
C44   C     C_R   0.573930 0.623827 0.853907 -0.146288
C45   C     C_R   0.536925 0.362688 0.141574 -0.157783
C46   C     C_R   0.485368 0.439459 0.872421 -0.077098
H1    H     H_    0.916116 0.889927 0.496137 0.124652
H2    H     H_    0.348478 0.776288 0.353968 0.139176
H3    H     H_    0.941158 0.023103 0.361789 0.039266
H4    H     H_    0.062126 0.978115 0.627653 0.053322
H5    H     H_    0.210825 0.343553 0.668590 0.240582
H6    H     H_    0.277921 0.222972 0.598121 0.227428
H7    H     H_    0.139270 0.210385 0.677050 0.247354
H8    H     H_    0.859093 0.785438 0.315989 0.218191
H9    H     H_    0.785666 0.653537 0.328394 0.232288
H10   H     H_    0.723004 0.776400 0.398512 0.281470
H11   H     H_    0.424780 0.719944 0.140562 0.083908
H12   H     H_    0.088264 0.109739 0.493383 0.128043
H13   H     H_    0.408301 0.300390 0.767266 0.103951
H14   H     H_    0.730782 0.724481 0.070926 0.109453
H15   H     H_    0.574803 0.220586 0.906195 0.016049
H16   H     H_    0.318059 0.256408 0.381111 0.114565
H17   H     H_    0.580230 0.848062 0.717026 0.077820
H18   H     H_    0.327222 0.975561 0.334455 0.189409
H19   H     H_    0.665064 0.023657 0.669174 0.155831
H20   H     H_    0.806316 0.316995 0.353599 0.178621
H21   H     H_    0.191966 0.683393 0.643899 0.181323
H22   H     H_    0.540376 0.290487 0.188231 0.249663
H23   H     H_    0.606124 0.687220 0.804667 0.206742
H24   H     H_    0.647209 0.223419 0.648821 0.145507
N1    N     N_R   0.523130 0.207800 0.519340 -0.147367
N2    N     N_R   0.476870 0.792200 0.480660 -0.117904
O1    O     O_R   0.506170 0.421700 0.658830 -0.656089
O2    O     O_2   0.204541 0.892192 0.689404 -0.564688
O3    O     O_2   0.583073 0.731432 0.226691 -0.577384
O4    O     O_2   0.298591 0.335457 0.888277 -0.531004
O5    O     O_2   0.684081 0.815203 0.951799 -0.536694
O6    O     O_2   0.532376 0.151146 0.037250 -0.477655
O7    O     O_2   0.395369 0.152597 0.275798 -0.538196
O8    O     O_2   0.700290 0.756459 0.629648 -0.557669
O9    O     O_R   0.493830 0.578300 0.341170 -0.592193
O10   O     O_R   0.491330 0.609310 0.646410 -0.603071
O11   O     O_R   0.508670 0.390690 0.353590 -0.635623
O12   O     O_R   0.690650 0.406190 0.506220 -0.612212
O13   O     O_R   0.309350 0.593810 0.493780 -0.620441
O14   O     O_R   0.675800 0.593810 0.493800 -0.551629
O15   O     O_R   0.324200 0.406190 0.506200 -0.642051
O16   O     O_2   0.796896 0.109211 0.302953 -0.526509
Zn1   Zn    Zn3+2 0.509910 0.374730 0.508290 0.932839
Zn2   Zn    Zn3+2 0.490090 0.625270 0.491710 0.997726

loop_
_geom_bond_atom_site_label_1
_geom_bond_atom_site_label_2
_ccdc_geom_bond_type
C23   C45   A    
C9    N2    A    
C14   O12   A    
C41   O8    D    
C33   H6    S    
C12   C23   S    
C3    C43   A    
C28   C29   A    
C19   C21   A    
C31   H3    S    
C38   C42   S    
C32   O2    D    
C40   H16   S    
C10   C40   S    
C6    H19   S    
C22   C25   A    
C34   C46   A    
C5    C13   A    
C15   O13   A    
C10   N1    A    
C16   C27   A    
C27   C30   A    
C25   C29   A    
C42   C44   A    
C14   C30   S    
O11   Zn1   S    
C19   C32   S    
C26   C28   A    
C1    C34   S    
C15   C29   S    
C33   H7    S    
C39   H15   S    
C17   H21   S    
C24   C35   S    
C35   H9    S    
C39   O6    D    
C34   C44   A    
C14   O14   A    
C36   H11   S    
O14   Zn2   S    
C6    C11   A    
C5    C7    A    
C6    C8    A    
C1    O10   A    
C33   H5    S    
C5    H18   S    
C2    C4    A    
C36   O3    D    
N2    Zn2   S    
N1    Zn1   S    
C45   H22   S    
C40   O7    D    
C44   H23   S    
C9    C11   A    
C32   H4    S    
C37   H13   S    
C38   H14   S    
O9    Zn2   S    
C37   O4    D    
C20   C22   A    
C26   C30   A    
O15   Zn1   S    
C16   H20   S    
O12   Zn1   S    
C41   H17   S    
C20   H12   S    
C3    C4    A    
C7    N2    A    
C15   O15   A    
C2    C36   S    
C22   C33   S    
C8    N1    A    
C31   O16   D    
C35   H10   S    
C17   C28   A    
C8    H24   S    
C24   C26   A    
C10   C13   A    
C39   C43   S    
O13   Zn2   S    
C38   O5    D    
C25   C27   A    
C3    C46   A    
C9    C41   S    
O10   Zn2   S    
C1    O1    A    
C7    H2    S    
O1    Zn1   S    
C43   C45   A    
C11   C13   A    
C4    C42   A    
C17   C19   A    
C12   O9    A    
C18   C20   A    
C12   O11   A    
C16   C18   A    
C21   C24   A    
C2    C23   A    
C18   C31   S    
C21   H1    S    
C37   C46   S    
C35   H8    S    
