data_mof_unit_25444.cif
_audit_creation_date              2012-12-10T18:05:58-0500
_audit_creation_method            fapswitch 2.2
_symmetry_space_group_name_H-M    P1
_symmetry_Int_Tables_number       1
_space_group_crystal_system       triclinic
_cell_length_a                    12.589697
_cell_length_b                    13.022324
_cell_length_c                    15.004836
_cell_angle_alpha                 90.546341
_cell_angle_beta                  102.47835
_cell_angle_gamma                 82.443394
_cell_volume                      2380.57638233

loop_
_atom_site_label
_atom_site_type_symbol
_atom_type_description
_atom_site_fract_x
_atom_site_fract_y
_atom_site_fract_z
_atom_type_partial_charge
C1    C     C_R   0.438825 0.691730 0.493985 0.878482
C2    C     C_R   0.598195 0.509236 0.832969 -0.267279
C3    C     C_R   0.500927 0.500245 0.769314 -0.072516
C4    C     C_R   0.500435 0.500306 0.673141 0.881261
C5    C     C_R   0.403656 0.490320 0.797456 -0.257581
C6    C     C_R   0.704424 0.066218 0.639679 -0.205640
C7    C     C_R   0.596642 0.199284 0.534464 -0.074100
C8    C     C_R   0.294077 0.840007 0.445393 -0.248644
C9    C     C_R   0.255802 0.946497 0.440394 0.104104
C10   C     C_R   0.330058 0.016041 0.479272 0.146724
C11   C     C_R   0.439965 0.976439 0.523343 0.023878
C12   C     C_R   0.402644 0.487076 0.074871 0.119549
C13   C     C_R   0.465414 0.870561 0.545864 0.051115
C14   C     C_R   0.526049 0.037940 0.546760 0.095329
C15   C     C_R   0.622403 0.001884 0.612686 0.172494
C16   C     C_R   0.561019 0.308237 0.511669 0.863139
C17   C     C_R   0.634768 0.902327 0.650010 -0.256391
C18   C     C_R   0.557883 0.836435 0.615650 -0.179770
C19   C     C_R   0.521443 0.131694 0.501867 -0.215120
C20   C     C_R   0.690039 0.166229 0.602379 -0.197288
C21   C     C_R   0.398278 0.801990 0.497147 -0.158398
C22   C     C_R   0.084918 0.354691 0.363202 0.119508
C23   C     C_R   0.695735 0.515719 0.082316 -0.220423
C24   C     C_R   0.801409 0.627658 0.610846 0.021306
C25   C     C_R   0.906304 0.655830 0.633206 -0.255636
C26   C     C_R   0.986751 0.608047 0.590351 -0.200575
C27   C     C_R   0.962576 0.530546 0.525139 0.035727
C28   C     C_R   0.499752 0.499202 0.326899 0.885745
C29   C     C_R   0.854153 0.504855 0.504836 0.239527
C30   C     C_R   0.041087 0.478063 0.479332 -0.058210
C31   C     C_R   0.008924 0.403738 0.411920 0.151715
C32   C     C_R   0.902235 0.378435 0.395566 -0.284361
C33   C     C_R   0.826865 0.427545 0.441858 -0.238081
C34   C     C_R   0.695889 0.516646 0.989737 -0.220214
C35   C     C_R   0.151105 0.495994 0.498080 -0.083028
C36   C     C_R   0.192642 0.376386 0.386049 -0.077998
C37   C     C_R   0.402974 0.487257 0.167211 -0.264188
C38   C     C_R   0.499946 0.497290 0.230853 -0.074414
C39   C     C_R   0.597597 0.505940 0.202814 -0.261776
C40   C     C_R   0.598670 0.505991 0.110855 0.117953
C41   C     C_R   0.500785 0.496799 0.046516 0.061317
C42   C     C_3   0.271752 0.159186 0.569666 -0.740262
C43   C     C_3   0.138148 0.988168 0.393494 -0.421721
C44   C     C_3   0.060586 0.906623 0.362479 -0.356332
C45   C     C_R   0.598944 0.507950 0.925393 0.120000
C46   C     C_3   0.943594 0.957998 0.323971 -0.856431
C47   C     C_3   0.001086 0.334858 0.204865 -0.806931
C48   C     C_R   0.500924 0.497802 0.953781 0.061317
C49   C     C_R   0.402943 0.488970 0.889449 0.116535
C50   C     C_R   0.305937 0.478986 0.917990 -0.220787
C51   C     C_R   0.305795 0.478015 0.010560 -0.221296
H1    H     H_    0.327590 0.480428 0.189270 0.160673
H2    H     H_    0.183365 0.549550 0.548607 0.135551
H3    H     H_    0.739103 0.663671 0.644622 0.125342
H4    H     H_    0.066371 0.633635 0.609566 0.135703
H5    H     H_    0.925199 0.714597 0.683553 0.145464
H6    H     H_    0.747563 0.402883 0.426984 0.216294
H7    H     H_    0.771115 0.523091 0.131484 0.144335
H8    H     H_    0.771468 0.524400 0.968461 0.144555
H9    H     H_    0.673365 0.516738 0.810830 0.160358
H10   H     H_    0.328211 0.483740 0.747950 0.161000
H11   H     H_    0.230409 0.472112 0.868800 0.146295
H12   H     H_    0.705925 0.873940 0.702583 0.137912
H13   H     H_    0.230168 0.470477 0.031849 0.143135
H14   H     H_    0.748966 0.218548 0.628886 0.160082
H15   H     H_    0.231799 0.154189 0.427867 0.209130
H16   H     H_    0.248584 0.244557 0.566681 0.246653
H17   H     H_    0.346793 0.140418 0.624355 0.250946
H18   H     H_    0.203661 0.122261 0.586503 0.224332
H19   H     H_    0.911410 0.004670 0.377089 0.262855
H20   H     H_    0.941519 0.009058 0.264552 0.262523
H21   H     H_    0.889669 0.897522 0.301205 0.250874
H22   H     H_    0.088765 0.858650 0.308225 0.220568
H23   H     H_    0.777345 0.040504 0.691437 0.136681
H24   H     H_    0.059675 0.855751 0.421346 0.228989
H25   H     H_    0.102116 0.039790 0.441831 0.217181
H26   H     H_    0.140486 0.035327 0.332768 0.190197
H27   H     H_    0.116407 0.227385 0.284925 0.208125
H28   H     H_    0.059357 0.377926 0.179162 0.233571
H29   H     H_    0.927720 0.389361 0.211480 0.247346
H30   H     H_    0.974081 0.275501 0.154419 0.242336
H31   H     H_    0.456950 0.155426 0.442774 0.166600
H32   H     H_    0.243191 0.785405 0.409706 0.167328
H33   H     H_    0.569991 0.759274 0.645153 0.153514
H34   H     H_    0.253254 0.339778 0.350402 0.135547
H35   H     H_    0.876320 0.319448 0.347350 0.190090
H36   H     H_    0.672922 0.512945 0.252326 0.169590
N1    N     N_R   0.222190 0.444670 0.452360 -0.109943
N2    N     N_R   0.776970 0.554790 0.547140 -0.129138
N3    N     N_2   0.291959 0.124002 0.482381 -0.326496
N4    N     N_2   0.053936 0.284662 0.291665 -0.318983
O1    O     O_R   0.366740 0.627160 0.477250 -0.616476
O2    O     O_R   0.544830 0.662520 0.507680 -0.607594
O3    O     O_R   0.410940 0.482340 0.616930 -0.623265
O4    O     O_R   0.589030 0.517700 0.647360 -0.636764
O5    O     O_R   0.455170 0.337480 0.492320 -0.596958
O6    O     O_R   0.633260 0.372840 0.522750 -0.639299
O7    O     O_R   0.410970 0.482300 0.352640 -0.623482
O8    O     O_R   0.589060 0.517660 0.383070 -0.636916
Zn1   Zn    Zn3+2 0.381090 0.476390 0.479680 0.935692
Zn2   Zn    Zn3+2 0.618910 0.523610 0.520320 0.926613

loop_
_geom_bond_atom_site_label_1
_geom_bond_atom_site_label_2
_ccdc_geom_bond_type
C23   H7    S    
C1    C21   S    
C35   H2    S    
C8    H32   S    
O3    Zn1   S    
C25   H5    S    
C39   H36   S    
C24   N2    A    
C29   N2    A    
H15   N3    S    
C36   N1    A    
C26   C27   A    
C12   C41   A    
C30   C35   A    
C30   C31   A    
C11   C14   A    
C2    H9    S    
C16   O6    A    
C27   C29   A    
C24   H3    S    
C23   C40   A    
C29   C33   A    
C12   C37   A    
C6    C15   A    
C8    C9    A    
C18   H33   S    
C22   N4    S    
C47   H28   S    
C19   H31   S    
C9    C10   A    
C46   H21   S    
C26   H4    S    
C27   C30   A    
C42   H17   S    
C5    C49   A    
C47   H29   S    
C44   C46   S    
C6    H23   S    
C2    C45   A    
C38   C39   A    
C16   O5    A    
C9    C43   S    
C22   C31   A    
C5    H10   S    
C20   H14   S    
C24   C25   A    
O2    Zn2   S    
C39   C40   A    
C37   H1    S    
C50   C51   A    
C25   C26   A    
C42   H18   S    
C42   N3    S    
C44   H24   S    
C43   C44   S    
C37   C38   A    
C4    O4    A    
C35   N1    A    
C31   C32   A    
C28   C38   S    
C23   C34   A    
C32   H35   S    
C17   C18   A    
C13   C21   A    
C34   C45   A    
C46   H20   S    
N1    Zn1   S    
C4    O3    A    
C13   C18   A    
C28   O8    A    
C48   C49   A    
O8    Zn2   S    
C49   C50   A    
C1    O1    A    
C7    C19   A    
C34   H8    S    
C36   H34   S    
C3    C4    S    
C12   C51   A    
C6    C20   A    
O1    Zn1   S    
C45   C48   A    
C28   O7    A    
C43   H25   S    
C15   C17   A    
C7    C16   S    
C33   H6    S    
N2    Zn2   S    
C47   N4    S    
C14   C19   A    
C51   H13   S    
C3    C5    A    
C8    C21   A    
H27   N4    S    
C43   H26   S    
C22   C36   A    
O7    Zn1   S    
C32   C33   A    
C2    C3    A    
C17   H12   S    
C11   C13   A    
C42   H16   S    
C50   H11   S    
O5    Zn1   S    
C41   C48   A    
C47   H30   S    
C44   H22   S    
C46   H19   S    
C10   C11   A    
C10   N3    S    
C1    O2    A    
C7    C20   A    
C14   C15   A    
C40   C41   A    
O6    Zn2   S    
O4    Zn2   S    
