data_mof_unit_56784.cif
_audit_creation_date              2012-12-11T16:05:07-0500
_audit_creation_method            fapswitch 2.2
_symmetry_space_group_name_H-M    P1
_symmetry_Int_Tables_number       1
_space_group_crystal_system       triclinic
_cell_length_a                    10.651362
_cell_length_b                    10.63884
_cell_length_c                    16.922618
_cell_angle_alpha                 98.710504
_cell_angle_beta                  98.881344
_cell_angle_gamma                 61.43672
_cell_volume                      1657.37785267

loop_
_atom_site_label
_atom_site_type_symbol
_atom_type_description
_atom_site_fract_x
_atom_site_fract_y
_atom_site_fract_z
_atom_type_partial_charge
C1    C     C_R   0.350619 0.782848 0.401770 0.544372
C2    C     C_3   0.423010 0.714980 0.262096 -0.112252
C3    C     C_3   0.333107 0.834390 0.324288 0.005078
C4    C     C_R   0.368861 0.345644 0.359349 0.539712
C5    C     C_3   0.369243 0.942220 0.295011 -0.179900
C6    C     C_3   0.232346 0.985945 0.234939 -0.169906
C7    C     C_3   0.195726 0.878744 0.266111 -0.108557
C8    C     C_3   0.286365 0.761724 0.204685 0.230667
C9    C     C_3   0.321538 0.865595 0.172784 0.108521
C10   C     C_3   0.462110 0.250118 0.784425 -0.109812
C11   C     C_3   0.410133 0.400996 0.759459 0.174922
C12   C     C_3   0.685033 0.334709 0.235240 -0.147393
C13   C     C_3   0.368204 0.354025 0.674512 0.108641
C14   C     C_3   0.418355 0.201917 0.698580 -0.166176
C15   C     C_3   0.265633 0.251942 0.720367 -0.014217
C16   C     C_R   0.712509 0.412009 0.390252 0.552711
C17   C     C_3   0.217272 0.402701 0.696946 0.193558
C18   C     C_3   0.257181 0.453913 0.782951 -0.116883
C19   C     C_3   0.307811 0.300263 0.805710 -0.003285
C20   C     C_1   0.838916 0.332626 0.706908 -0.001296
C21   C     C_1   0.883600 0.299406 0.774101 0.041793
C22   C     C_1   0.358072 0.764992 0.714689 0.057775
C23   C     C_3   0.760957 0.376983 0.310849 0.040166
C24   C     C_1   0.327097 0.809997 0.782490 0.054617
C25   C     C_R   0.895852 0.308847 0.091886 0.557361
C26   C     C_R   0.318278 0.298295 0.120787 0.569981
C27   C     C_R   0.294108 0.893176 0.089480 0.595939
C28   C     C_R   0.379390 0.716569 0.631763 0.559808
C29   C     C_R   0.938164 0.277679 0.855773 0.585935
C30   C     C_R   0.283450 0.260307 0.877411 0.587683
C31   C     C_R   0.283076 0.878894 0.860198 0.574827
C32   C     C_R   0.405946 0.375145 0.601393 0.585965
C33   C     C_R   0.776683 0.378441 0.629191 0.557103
C34   C     C_3   0.907768 0.258556 0.288357 -0.119931
C35   C     C_1   0.340183 0.333786 0.275799 -0.074392
C36   C     C_1   0.328888 0.323281 0.204577 -0.062724
C37   C     C_3   0.832904 0.216120 0.210935 -0.118124
C38   C     C_2   0.188989 0.165126 0.691423 0.199399
C39   C     C_2   0.596004 0.806430 0.210470 0.217192
C40   C     C_3   0.921016 0.367852 0.244397 -0.109897
C41   C     C_3   0.774067 0.486226 0.268083 -0.091431
C42   C     C_3   0.698047 0.444531 0.191114 -0.112174
C43   C     C_3   0.843827 0.327526 0.168412 0.052060
C44   C     C_3   0.456351 0.824295 0.231255 -0.016834
Cr1   Cr    Cr6+3 0.608340 0.611040 0.520430 1.036916
Cr2   Cr    Cr6+3 0.287650 0.601120 0.489350 1.058862
Cr3   Cr    Cr6+3 0.604040 0.287870 0.490280 1.025299
Cr4   Cr    Cr6+3 0.054020 0.052700 0.970850 1.052847
Cr5   Cr    Cr6+3 0.059230 0.375120 0.993390 1.070572
Cr6   Cr    Cr6+3 0.374950 0.061200 0.992340 1.073049
H1    H     H_    0.588229 0.321049 0.233784 0.129437
H2    H     H_    0.754640 0.593671 0.296963 0.131226
H3    H     H_    0.613772 0.516164 0.148001 0.173715
H4    H     H_    0.489653 0.604070 0.278333 0.098777
H5    H     H_    0.401470 0.017494 0.334278 0.136761
H6    H     H_    0.211878 0.627211 0.192143 0.326699
H7    H     H_    0.500470 0.490806 0.836886 0.335815
H8    H     H_    0.152153 0.157388 0.628313 0.142145
H9    H     H_    0.011851 0.502690 0.681930 0.330031
H10   H     H_    0.661521 0.840168 0.254873 0.104039
H11   H     H_    0.158365 0.096914 0.219444 0.112818
H12   H     H_    0.088493 0.901690 0.281095 0.126321
H13   H     H_    0.564653 0.188770 0.820977 0.159769
H14   H     H_    0.484119 0.098062 0.664587 0.152091
H15   H     H_    0.191467 0.556450 0.817921 0.141351
H16   H     H_    0.858080 0.105114 0.185324 0.141577
H17   H     H_    0.991133 0.184832 0.330997 0.129201
H18   H     H_    0.018740 0.381070 0.246154 0.121190
O1    O     O_R   0.751220 0.499230 0.435170 -0.503061
O2    O     O_R   0.412990 0.180750 0.091610 -0.501543
O3    O     O_R   0.366620 0.943130 0.065760 -0.478833
O4    O     O_R   0.477220 0.727600 0.436870 -0.515307
O5    O     O_R   0.160510 0.906330 0.879210 -0.503089
O6    O     O_R   0.930190 0.179050 0.889450 -0.485149
O7    O     O_R   0.909140 0.398170 0.896710 -0.514197
O8    O     O_R   0.186190 0.363460 0.918830 -0.510812
O9    O     O_R   0.401670 0.173200 0.913310 -0.511224
O10   O     O_R   0.356120 0.936130 0.900470 -0.496164
O11   O     O_3   0.162740 0.163010 0.985530 -0.311105
O12   O     O_R   0.297880 0.469080 0.560050 -0.454710
O13   O     O_R   0.258650 0.745120 0.411470 -0.516212
O14   O     O_R   0.297070 0.467240 0.395960 -0.492129
O15   O     O_R   0.488830 0.252610 0.387790 -0.522100
O16   O     O_R   0.724400 0.302390 0.420980 -0.495071
O17   O     O_R   0.752100 0.501210 0.612190 -0.500898
O18   O     O_R   0.478040 0.729440 0.600970 -0.497320
O19   O     O_R   0.259530 0.747110 0.588490 -0.495611
O20   O     O_3   0.245759 0.666650 0.155578 -0.682593
O21   O     O_3   0.490371 0.475646 0.777476 -0.741865
O22   O     O_2   0.169824 0.100759 0.737957 -0.564860
O23   O     O_R   0.489720 0.254590 0.564810 -0.529331
O24   O     O_3   0.090688 0.481283 0.649394 -0.663797
O25   O     O_2   0.638277 0.751754 0.144692 -0.492742
O26   O     O_R   0.725220 0.304230 0.585080 -0.499065
O27   O     O_3   0.500010 0.500010 0.500020 -0.321832
O28   O     O_R   0.171830 0.913880 0.057510 -0.493182
O29   O     O_R   0.940690 0.186050 0.054730 -0.513358
O30   O     O_R   0.920470 0.405720 0.075010 -0.483121
O31   O     O_R   0.196690 0.370460 0.084120 -0.480827

loop_
_geom_bond_atom_site_label_1
_geom_bond_atom_site_label_2
_ccdc_geom_bond_type
C11   C18   S    
C34   C37   S    
C41   C42   S    
C13   C32   S    
C10   H13   S    
C33   O26   A    
C25   C43   S    
C6    C9    S    
C7    C8    S    
C15   C38   S    
C18   H15   S    
C15   C19   S    
Cr4   O29   S    
C12   C23   S    
H7    O21   S    
C34   C40   S    
C6    H11   S    
C3    C7    S    
C42   H3    S    
C5    C6    S    
H6    O20   S    
C32   O23   A    
Cr5   O31   S    
C1    O13   A    
C16   O16   A    
C18   C19   S    
C12   C37   S    
C33   O17   A    
C39   O25   D    
C12   C42   S    
Cr5   O30   S    
Cr2   O14   S    
C30   O9    A    
C40   C43   S    
Cr2   O27   S    
C35   C36   T    
C2    C44   S    
C8    C9    S    
Cr5   O7    S    
Cr3   O15   S    
C41   H2    S    
C26   O31   A    
C4    C35   S    
C22   C28   S    
C13   C14   S    
Cr6   O11   S    
Cr1   O4    S    
C27   O28   A    
C17   O24   S    
Cr6   O10   S    
C1    O4    A    
Cr1   O1    S    
Cr4   O6    S    
C2    H4    S    
C29   O6    A    
C21   C29   S    
Cr5   O11   S    
C1    C3    S    
C37   C43   S    
Cr1   O17   S    
Cr6   O3    S    
C7    H12   S    
C32   O12   A    
Cr2   O13   S    
C30   O8    A    
C11   O21   S    
C10   C19   S    
C23   C34   S    
C14   H14   S    
C37   H16   S    
C28   O19   A    
C17   C18   S    
Cr5   O8    S    
C38   H8    S    
Cr3   O16   S    
C6    C7    S    
C20   C33   S    
C26   C36   S    
C40   C41   S    
C5    C44   S    
C16   C23   S    
C28   O18   A    
C26   O2    A    
C22   C24   T    
C42   C43   S    
Cr1   O27   S    
Cr6   O9    S    
C12   H1    S    
C27   O3    A    
C9    C27   S    
C31   O10   A    
Cr2   O19   S    
C25   O29   A    
C15   C17   S    
C9    C44   S    
Cr4   O28   S    
Cr3   O23   S    
Cr4   O5    S    
C5    H5    S    
C2    C8    S    
C16   O1    A    
C3    C5    S    
C34   H17   S    
C39   C44   S    
C29   O7    A    
C38   O22   D    
C23   C41   S    
C13   C17   S    
Cr1   O18   S    
Cr6   O2    S    
C24   C31   S    
Cr2   O12   S    
C11   C13   S    
C4    O15   A    
C39   H10   S    
Cr3   O26   S    
C2    C3    S    
H9    O24   S    
Cr4   O11   S    
C31   O5    A    
C10   C11   S    
C25   O30   A    
C4    O14   A    
C20   C21   T    
C40   H18   S    
Cr3   O27   S    
C14   C15   S    
C8    O20   S    
C19   C30   S    
C10   C14   S    
