data_mof_unit_14554.cif
_audit_creation_date              2012-12-11T14:21:18-0500
_audit_creation_method            fapswitch 2.2
_symmetry_space_group_name_H-M    P1
_symmetry_Int_Tables_number       1
_space_group_crystal_system       triclinic
_cell_length_a                    21.995397
_cell_length_b                    7.200148
_cell_length_c                    14.902019
_cell_angle_alpha                 90.332706
_cell_angle_beta                  106.902995
_cell_angle_gamma                 90.452461
_cell_volume                      2257.9257639

loop_
_atom_site_label
_atom_site_type_symbol
_atom_type_description
_atom_site_fract_x
_atom_site_fract_y
_atom_site_fract_z
_atom_type_partial_charge
O1    O     O_R   0.584770 0.505770 0.002090 -0.540242
O2    O     O_R   0.415230 0.005770 0.997910 -0.537930
O3    O     O_R   0.467060 0.173340 0.861950 -0.537845
O4    O     O_R   0.532940 0.673340 0.138050 -0.542432
C1    C     C_R   0.455597 0.343448 0.825808 0.677502
C2    C     C_R   0.544204 0.845183 0.174133 0.676319
O5    O     O_R   0.587510 0.175890 0.993210 -0.541016
O6    O     O_R   0.412490 0.675890 0.006790 -0.539648
O7    O     O_R   0.536540 0.008150 0.130100 -0.534270
O8    O     O_R   0.463460 0.508150 0.869900 -0.538004
C3    C     C_R   0.613198 0.345182 0.999146 0.710877
C4    C     C_R   0.387035 0.843735 0.000949 0.708724
O9    O     O_3   0.483140 0.340040 0.044760 -0.376082
O10   O     O_3   0.516860 0.840040 0.955240 -0.377840
V1    V     V_3+5 0.503130 0.064190 0.991700 1.405453
V2    V     V_3+5 0.496870 0.564190 0.008300 1.400780
C5    C     C_2   0.214964 0.736727 0.007578 -0.224615
C6    C     C_2   0.788834 0.238588 0.014672 -0.230684
C7    C     C_2   0.181580 0.896419 0.000726 0.319779
C8    C     C_2   0.816069 0.387305 0.985864 0.320710
H1    H     H_    0.190792 0.605088 0.008727 0.109683
H2    H     H_    0.818527 0.124400 0.048663 0.090330
C9    C     C_2   0.284585 0.723896 0.018529 -0.119269
C10   C     C_2   0.719165 0.217481 0.001953 -0.106045
C11   C     C_2   0.318698 0.856070 0.990886 -0.263835
C12   C     C_2   0.681390 0.362132 0.005473 -0.257132
H3    H     H_    0.307895 0.596492 0.048179 0.139179
H4    H     H_    0.699885 0.077223 0.996489 0.121561
H5    H     H_    0.296501 0.979163 0.956171 0.178928
H6    H     H_    0.701683 0.500614 0.018745 0.163729
C13   C     C_R   0.925340 0.881176 0.724455 -0.025291
C14   C     C_R   0.074493 0.392803 0.276034 -0.032541
C15   C     C_R   0.571539 0.856421 0.275794 -0.023406
C16   C     C_R   0.428361 0.347113 0.723968 -0.027509
C17   C     C_R   0.933579 0.819495 0.569421 -0.163094
C18   C     C_R   0.068098 0.458293 0.431807 -0.163880
C19   C     C_R   0.962367 0.843022 0.665077 -0.177253
C20   C     C_R   0.038871 0.442100 0.335919 -0.173563
C21   C     C_R   0.859308 0.895439 0.688441 -0.201995
C22   C     C_R   0.139747 0.360672 0.312026 -0.212654
C23   C     C_R   0.828423 0.868922 0.591471 0.093150
C24   C     C_R   0.171372 0.382557 0.409158 0.091698
C25   C     C_R   0.867291 0.831204 0.532381 0.142762
C26   C     C_R   0.133750 0.430740 0.468636 0.144914
C27   C     C_R   0.760719 0.876839 0.551382 0.030964
C28   C     C_R   0.238734 0.361555 0.448966 0.031323
C29   C     C_R   0.733550 0.850359 0.452760 0.055313
C30   C     C_R   0.266726 0.385938 0.547617 0.056763
C31   C     C_R   0.774709 0.811449 0.397671 -0.179527
C32   C     C_R   0.226665 0.433352 0.603203 -0.183204
C33   C     C_R   0.839934 0.802828 0.436787 -0.205542
C34   C     C_R   0.161819 0.454675 0.564383 -0.207967
C35   C     C_R   0.719546 0.908592 0.606889 -0.209825
C36   C     C_R   0.278832 0.319355 0.393079 -0.220103
C37   C     C_R   0.653508 0.916273 0.568793 0.066320
C38   C     C_R   0.344468 0.298002 0.430836 0.065022
C39   C     C_R   0.626177 0.892632 0.470984 0.113535
C40   C     C_R   0.372471 0.318010 0.528697 0.114729
C41   C     C_R   0.666187 0.861704 0.412285 0.057084
C42   C     C_R   0.333732 0.362441 0.587697 0.056473
C43   C     C_R   0.559572 0.901063 0.429960 -0.174896
C44   C     C_R   0.438428 0.291544 0.569483 -0.175849
C45   C     C_R   0.532770 0.882939 0.333537 -0.204793
C46   C     C_R   0.465702 0.304210 0.665944 -0.198361
C47   C     C_R   0.637166 0.845848 0.314273 -0.192195
C48   C     C_R   0.363518 0.377769 0.685632 -0.195375
H7    H     H_    0.869325 0.772290 0.391479 0.118155
H8    H     H_    0.133331 0.492101 0.610036 0.117975
H9    H     H_    0.663890 0.829170 0.264735 0.089087
H10   H     H_    0.337741 0.406365 0.735338 0.092086
H11   H     H_    0.481680 0.891420 0.303807 0.109294
H12   H     H_    0.516055 0.278854 0.695554 0.111231
H13   H     H_    0.963157 0.789723 0.524331 0.112036
H14   H     H_    0.039515 0.496497 0.477165 0.111781
H15   H     H_    0.013443 0.830084 0.692952 0.098931
H16   H     H_    0.988547 0.469782 0.308205 0.101804
H17   H     H_    0.833950 0.924655 0.738687 0.096163
H18   H     H_    0.164194 0.324643 0.261506 0.106850
H19   H     H_    0.758412 0.783728 0.323524 0.117962
H20   H     H_    0.243562 0.457652 0.677598 0.118096
H21   H     H_    0.737410 0.925969 0.681677 0.128252
H22   H     H_    0.260418 0.303654 0.318274 0.130251
H23   H     H_    0.527131 0.922434 0.471191 0.120925
H24   H     H_    0.469873 0.257936 0.528118 0.120713
O11   O     O_R   0.036450 0.233070 0.130130 -0.534556
O12   O     O_R   0.963550 0.733070 0.869870 -0.535047
O13   O     O_R   0.912470 0.560570 0.006790 -0.542053
O14   O     O_R   0.087530 0.060570 0.993210 -0.528740
C49   C     C_R   0.886204 0.392278 0.998958 0.629493
C50   C     C_R   0.113118 0.893549 0.997575 0.629957
O15   O     O_R   0.032920 0.562940 0.138050 -0.537739
O16   O     O_R   0.967080 0.062940 0.861950 -0.539543
O17   O     O_R   0.084790 0.730500 0.002090 -0.553334
O18   O     O_R   0.915210 0.230500 0.997910 -0.550288
C51   C     C_R   0.045310 0.395460 0.174538 0.692407
C52   C     C_R   0.954726 0.893561 0.825595 0.680461
O19   O     O_3   0.016820 0.396170 0.955260 -0.377723
O20   O     O_3   0.983180 0.896170 0.044740 -0.378598
V3    V     V_3+5 0.996880 0.672090 0.008300 1.405790
V4    V     V_3+5 0.003120 0.172090 0.991700 1.416249
O21   O     O_3   0.213239 0.066827 0.011805 -0.544817
C53   C     C_3   0.192636 0.171608 0.928429 -0.265704
H25   H     H_    0.152989 0.264056 0.930568 0.169299
H26   H     H_    0.179076 0.084198 0.863451 0.105694
H27   H     H_    0.232342 0.263657 0.923978 0.144582
O22   O     O_3   0.776801 0.515461 0.927303 -0.547295
C54   C     C_3   0.789780 0.698579 0.962644 -0.230304
H28   H     H_    0.823832 0.767923 0.931101 0.162824
H29   H     H_    0.807081 0.706092 0.040748 0.106920
H30   H     H_    0.745028 0.778414 0.940517 0.140802
C55   C     C_3   0.614062 0.952855 0.635569 -0.365374
C56   C     C_3   0.584865 0.772282 0.659557 -0.332273
C57   C     C_3   0.543014 0.810250 0.723187 -0.697215
H31   H     H_    0.570879 0.881452 0.788767 0.226382
H32   H     H_    0.502180 0.898152 0.686518 0.226907
H33   H     H_    0.524366 0.676950 0.741936 0.220378
H34   H     H_    0.555712 0.701320 0.594746 0.197673
H35   H     H_    0.623574 0.676900 0.696047 0.209882
H36   H     H_    0.644118 0.016452 0.702087 0.175921
H37   H     H_    0.576942 0.057384 0.605843 0.164352
C58   C     C_3   0.382792 0.251769 0.363638 -0.361605
C59   C     C_3   0.417718 0.424302 0.342863 -0.335679
C60   C     C_3   0.459256 0.375571 0.280181 -0.702885
H38   H     H_    0.496857 0.277051 0.316396 0.228693
H39   H     H_    0.430058 0.312407 0.213145 0.229125
H40   H     H_    0.482397 0.503515 0.264254 0.224559
H41   H     H_    0.382311 0.529285 0.306884 0.198617
H42   H     H_    0.448220 0.487878 0.408888 0.199100
H43   H     H_    0.416315 0.137208 0.391708 0.164502
H44   H     H_    0.351105 0.197449 0.295972 0.180717

loop_
_geom_bond_atom_site_label_1
_geom_bond_atom_site_label_2
_ccdc_geom_bond_type
C40   C44   A    
O21   C53   S    
O11   C51   A    
C59   H41   S    
C55   C56   S    
O1    C3    A    
C58   H44   S    
C46   H12   S    
O2    C4    A    
C16   C48   A    
C2    O7    A    
C15   C47   A    
C60   H38   S    
C29   C31   A    
C20   H16   S    
C18   H14   S    
O5    C3    A    
C5    C9    S    
C6    C10   S    
C21   H17   S    
C35   H21   S    
C17   C19   A    
C10   C12   D    
C56   H34   S    
C39   C41   A    
O22   C54   S    
C40   C42   A    
C13   C52   S    
O16   C52   A    
C53   H27   S    
C55   H36   S    
C24   C28   A    
C27   C29   A    
C49   O18   A    
C43   C45   A    
C44   C46   A    
C13   C21   A    
C31   C33   A    
C32   C34   A    
C54   H28   S    
C9    H3    S    
C17   C25   A    
O17   V3    S    
O13   V3    S    
C34   H8    S    
C15   C45   A    
C57   H33   S    
C26   C34   A    
C30   C32   A    
C19   H15   S    
C42   C48   A    
O6    V2    S    
C23   C25   A    
C24   C26   A    
C56   C57   S    
C30   C42   A    
C8    O22   S    
C35   C37   A    
C11   H5    S    
C36   C38   A    
O4    C2    A    
C43   H23   S    
C60   H40   S    
O5    V1    S    
C3    C12   S    
O15   C51   A    
C27   C35   A    
C5    H1    S    
C31   H19   S    
C55   H37   S    
O4    V2    S    
C54   H29   S    
O2    V1    S    
O18   V4    S    
O6    C4    A    
C1    C16   S    
C28   C36   A    
C16   C46   A    
O1    V2    S    
C33   H7    S    
C53   H26   S    
O12   V3    S    
C58   C59   S    
O14   V4    S    
O12   C52   A    
O14   C50   A    
C12   H6    S    
C14   C20   A    
C37   C39   A    
C54   H30   S    
C22   H18   S    
C18   C26   A    
C36   H22   S    
C14   C22   A    
O3    V1    S    
O16   V4    S    
C50   O17   A    
C57   H31   S    
C44   H24   S    
C17   H13   S    
O19   V4    S    
C37   C55   S    
C6    H2    S    
C10   H4    S    
C58   H43   S    
O3    C1    A    
C32   H20   S    
C39   C43   A    
C8    C49   S    
C2    C15   S    
C4    C11   S    
C38   C58   S    
C18   C20   A    
O7    V1    S    
C1    O8    A    
C7    C50   S    
O8    V2    S    
C41   C47   A    
C56   H35   S    
C7    O21   S    
C25   C33   A    
C48   H10   S    
C47   H9    S    
C22   C24   A    
C5    C7    D    
C38   C40   A    
C6    C8    D    
C9    C11   D    
C59   H42   S    
C53   H25   S    
C60   H39   S    
C29   C41   A    
C28   C30   A    
C13   C19   A    
C14   C51   S    
C21   C23   A    
O20   V3    S    
O9    V2    S    
O11   V4    S    
O13   C49   A    
C23   C27   A    
O10   V1    S    
O15   V3    S    
C59   C60   S    
C45   H11   S    
C57   H32   S    
