data_mof_unit_12927.cif
_audit_creation_date              2012-12-10T17:35:32-0500
_audit_creation_method            fapswitch 2.2
_symmetry_space_group_name_H-M    P1
_symmetry_Int_Tables_number       1
_space_group_crystal_system       triclinic
_cell_length_a                    10.733271
_cell_length_b                    12.330351
_cell_length_c                    13.029919
_cell_angle_alpha                 116.128599
_cell_angle_beta                  77.275983
_cell_angle_gamma                 100.77809
_cell_volume                      1502.20182829

loop_
_atom_site_label
_atom_site_type_symbol
_atom_type_description
_atom_site_fract_x
_atom_site_fract_y
_atom_site_fract_z
_atom_type_partial_charge
C1    C     C_R   0.513619 0.855487 0.285815 0.756078
C2    C     C_3   0.122425 0.000202 0.496128 0.046737
C3    C     C_3   0.056566 0.090961 0.615138 0.016229
C4    C     C_3   0.050512 0.871679 0.477567 -0.477309
C5    C     C_R   0.322804 0.289029 0.031644 -0.245018
C6    C     C_R   0.449790 0.228491 0.839536 -0.165736
C7    C     C_R   0.612340 0.812799 0.083194 -0.162527
C8    C     C_R   0.643719 0.731547 0.968782 -0.117701
C9    C     C_R   0.594251 0.609994 0.931921 -0.176137
C10   C     C_R   0.506598 0.567994 0.008496 0.096352
C11   C     C_R   0.464239 0.654675 0.121585 0.084597
C12   C     C_R   0.739948 0.996850 0.496220 0.763951
C13   C     C_R   0.459423 0.443312 0.977500 0.090057
C14   C     C_R   0.366665 0.410371 0.057344 0.091861
C15   C     C_R   0.315391 0.498969 0.161887 -0.195702
C16   C     C_R   0.361082 0.619612 0.192316 -0.190847
C17   C     C_R   0.501391 0.350209 0.870258 -0.291652
C18   C     C_R   0.362985 0.197057 0.924412 0.401954
C19   C     C_R   0.525780 0.774678 0.161392 -0.100725
C20   C     C_R   0.710560 0.349248 0.331179 -0.283254
C21   C     C_R   0.315806 0.751522 0.635042 0.151395
C22   C     C_R   0.276606 0.654345 0.665762 -0.213078
C23   C     C_R   0.477781 0.144982 0.715031 0.863104
C24   C     C_R   0.348412 0.555648 0.617340 -0.172419
C25   C     C_R   0.459180 0.551594 0.534878 -0.008186
C26   C     C_R   0.496542 0.654664 0.507321 0.282147
C27   C     C_R   0.532027 0.448235 0.476729 -0.028084
C28   C     C_R   0.639006 0.449378 0.391150 0.174021
C29   C     C_R   0.673498 0.549928 0.365080 -0.279785
C30   C     C_R   0.603895 0.649947 0.421644 -0.184950
C31   C     C_R   0.503166 0.342463 0.498574 0.062966
C32   C     C_R   0.676358 0.247941 0.355939 0.088076
C33   C     C_R   0.260247 0.999634 0.498051 0.809980
C34   C     C_3   0.958534 0.013382 0.387731 -0.397724
C35   C     C_3   0.103221 0.025251 0.392379 0.063165
C36   C     C_3   0.918861 0.100465 0.606054 -0.385546
C37   C     C_3   0.905372 0.872583 0.486683 -0.389224
C38   C     C_3   0.877636 0.995226 0.494341 0.084662
Cu1   Cu    Cu3+1 0.529690 0.098270 0.475420 0.968487
Cu2   Cu    Cu3+1 0.470310 0.901730 0.524580 0.972489
H1    H     H_    0.933945 0.095298 0.384434 0.203871
H2    H     H_    0.065341 0.842876 0.543522 0.203847
H3    H     H_    0.852549 0.097613 0.683880 0.149162
H4    H     H_    0.049343 0.052217 0.679046 0.155884
H5    H     H_    0.239403 0.474919 0.220770 0.153844
H6    H     H_    0.252847 0.266700 0.095171 0.193365
H7    H     H_    0.572934 0.370410 0.807192 0.165784
H8    H     H_    0.659265 0.904682 0.111428 0.155429
H9    H     H_    0.625493 0.552040 0.842767 0.132240
H10   H     H_    0.710728 0.761980 0.909107 0.150909
H11   H     H_    0.935002 0.934856 0.306792 0.146992
H12   H     H_    0.313549 0.684976 0.271816 0.159694
H13   H     H_    0.731318 0.170463 0.309932 0.122519
H14   H     H_    0.754949 0.551074 0.299232 0.150805
H15   H     H_    0.792366 0.349281 0.265366 0.144661
H16   H     H_    0.424858 0.334503 0.563249 0.158896
H17   H     H_    0.256477 0.824351 0.669030 0.208853
H18   H     H_    0.313272 0.482771 0.643799 0.180627
H19   H     H_    0.189281 0.654915 0.726266 0.172554
H20   H     H_    0.636293 0.720619 0.393172 0.199523
H21   H     H_    0.148379 0.954819 0.310588 0.126665
H22   H     H_    0.913456 0.188926 0.604450 0.212527
H23   H     H_    0.853985 0.858978 0.564924 0.197768
H24   H     H_    0.870682 0.795731 0.409707 0.167010
H25   H     H_    0.088316 0.802603 0.391211 0.171388
N1    N     N_R   0.574690 0.246280 0.438200 -0.182016
N2    N     N_R   0.426100 0.754320 0.561190 -0.217412
O1    O     O_R   0.537340 0.972510 0.318130 -0.572085
O2    O     O_R   0.487200 0.806530 0.359650 -0.608692
O3    O     O_R   0.707380 0.082980 0.479220 -0.594069
O4    O     O_R   0.657240 0.917000 0.520740 -0.604283
O5    O     O_R   0.512800 0.193470 0.640350 -0.589873
O6    O     O_R   0.462660 0.027490 0.681870 -0.500293
O7    O     O_R   0.342760 0.083000 0.479260 -0.535242
O8    O     O_R   0.292620 0.917020 0.520780 -0.601352
S1    S     S_3+6 0.289225 0.048987 0.900383 -0.009435
O9    O     O_2   0.388373 0.960348 0.851497 -0.263217
O10   O     O_2   0.216529 0.043872 0.011180 -0.291494
O11   O     O_3   0.185146 0.011870 0.808150 -0.584249
H26   H     H_    0.116794 0.066548 0.852245 0.344902
I1    I     I_    0.191701 0.194971 0.383662 -0.348516
I2    I     I_    0.156187 0.268205 0.698814 -0.430195

loop_
_geom_bond_atom_site_label_1
_geom_bond_atom_site_label_2
_ccdc_geom_bond_type
C2    C35   S    
C31   N1    A    
Cu2   O4    S    
Cu1   O1    S    
S1    O11   S    
C35   I1    S    
C7    C8    A    
C11   C19   A    
C34   H11   S    
C29   C30   A    
C26   N2    A    
C28   C29   A    
S1    O10   D    
C4    H25   S    
C29   H14   S    
C15   C16   A    
C1    O1    A    
Cu2   O6    S    
C34   C35   S    
Cu1   O7    S    
C33   O8    A    
C8    C9    A    
Cu2   N2    S    
C30   H20   S    
Cu1   O5    S    
C31   H16   S    
C9    C10   A    
C13   C14   A    
C21   N2    A    
C34   H1    S    
C23   O6    A    
C20   H15   S    
C36   H22   S    
C37   H23   S    
C6    C18   A    
C3    H4    S    
C1    C19   S    
Cu2   O2    S    
C27   C31   A    
C17   H7    S    
C9    H9    S    
C24   C25   A    
Cu1   Cu2   S    
C5    C18   A    
C20   C28   A    
C25   C26   A    
C1    O2    A    
C2    C4    S    
C21   H17   S    
C37   C38   S    
C11   C16   A    
C3    I2    S    
C35   H21   S    
S1    O9    D    
C5    C14   A    
C2    C33   S    
C12   O4    A    
C26   C30   A    
C7    C19   A    
Cu1   N1    S    
C22   C24   A    
C15   H5    S    
C8    H10   S    
C32   H13   S    
C22   H19   S    
C37   H24   S    
C32   N1    A    
C20   C32   A    
C6    C17   A    
C12   O3    A    
C18   S1    S    
C34   C38   S    
C23   O5    A    
C16   H12   S    
C10   C13   A    
C25   C27   A    
C5    H6    S    
Cu2   O8    S    
C13   C17   A    
C7    H8    S    
C36   C38   S    
C2    C3    S    
C4    H2    S    
C3    C36   S    
C6    C23   S    
Cu1   O3    S    
C12   C38   S    
C10   C11   A    
O11   H26   S    
C33   O7    A    
C4    C37   S    
C24   H18   S    
C27   C28   A    
C14   C15   A    
C36   H3    S    
C21   C22   A    
