data_mof_unit_34900.cif
_audit_creation_date              2012-12-10T19:33:10-0500
_audit_creation_method            fapswitch 2.2
_symmetry_space_group_name_H-M    P1
_symmetry_Int_Tables_number       1
_space_group_crystal_system       triclinic
_cell_length_a                    8.705932
_cell_length_b                    15.87336
_cell_length_c                    17.125187
_cell_angle_alpha                 96.426256
_cell_angle_beta                  92.892415
_cell_angle_gamma                 83.504073
_cell_volume                      2334.88972622

loop_
_atom_site_label
_atom_site_type_symbol
_atom_type_description
_atom_site_fract_x
_atom_site_fract_y
_atom_site_fract_z
_atom_type_partial_charge
C1    C     C_R   0.507514 0.488321 0.348647 0.793136
C2    C     C_R   0.492561 0.511676 0.651359 0.793140
C3    C     C_R   0.404574 0.763321 0.473974 0.152337
C4    C     C_R   0.595374 0.236668 0.526043 0.152184
C5    C     C_R   0.413171 0.851411 0.476707 -0.316956
C6    C     C_R   0.586726 0.148585 0.523327 -0.316891
C7    C     C_R   0.538815 0.888605 0.514565 0.364681
C8    C     C_R   0.461079 0.111402 0.485467 0.364604
C9    C     C_R   0.653556 0.834591 0.550656 -0.327625
C10   C     C_R   0.346366 0.165427 0.449370 -0.327581
C11   C     C_R   0.640834 0.746333 0.548186 0.042158
C12   C     C_R   0.359142 0.253680 0.451823 0.042320
C13   C     C_R   0.205351 0.522175 0.501412 0.888682
C14   C     C_R   0.794648 0.477826 0.498578 0.888660
C15   C     C_2   0.040020 0.534010 0.505007 -0.359548
C16   C     C_2   0.959977 0.465993 0.494968 -0.359651
C17   C     C_R   0.522441 0.479214 0.262287 -0.074638
C18   C     C_R   0.477998 0.520781 0.737741 -0.074631
C19   C     C_R   0.538062 0.552247 0.225473 -0.267060
C20   C     C_R   0.462987 0.447713 0.774607 -0.266839
C21   C     C_R   0.534255 0.549250 0.144084 -0.167472
C22   C     C_R   0.467281 0.450709 0.855997 -0.167559
C23   C     C_R   0.517794 0.471925 0.097197 0.370763
C24   C     C_R   0.483654 0.528069 0.902847 0.370815
C25   C     C_R   0.514783 0.397701 0.133076 -0.242514
C26   C     C_R   0.486130 0.602318 0.866931 -0.242545
C27   C     C_R   0.520377 0.399533 0.215017 -0.032162
C28   C     C_R   0.479983 0.600486 0.784983 -0.032044
Cu1   Cu    Cu3+1 0.492520 0.415770 0.496210 0.945079
Cu2   Cu    Cu3+1 0.507480 0.584230 0.503790 0.945093
H1    H     H_    0.457690 0.392435 0.881890 0.151848
H2    H     H_    0.544254 0.607494 0.118220 0.151856
H3    H     H_    0.510543 0.337553 0.096525 0.141813
H4    H     H_    0.490254 0.662483 0.903459 0.141791
H5    H     H_    0.678104 0.109731 0.552194 0.161229
H6    H     H_    0.321756 0.890264 0.447865 0.161208
H7    H     H_    0.752479 0.860699 0.581088 0.138114
H8    H     H_    0.247443 0.139327 0.418931 0.138142
N1    N     N_2   0.508448 0.465101 0.013943 -0.264450
N2    N     N_2   0.493174 0.534912 0.986105 -0.264371
N3    N     N_R   0.518730 0.710760 0.509500 -0.178610
N4    N     N_R   0.481270 0.289240 0.490500 -0.178651
N5    N     N_2   0.553424 0.978442 0.517425 -0.248648
N6    N     N_2   0.446452 0.021566 0.482609 -0.248677
O1    O     O_R   0.493000 0.421040 0.382520 -0.576310
O2    O     O_R   0.507000 0.578960 0.617480 -0.576290
O3    O     O_R   0.505640 0.563310 0.388930 -0.585898
O4    O     O_R   0.494360 0.436690 0.611070 -0.585719
O5    O     O_R   0.269980 0.445280 0.497530 -0.593363
O6    O     O_R   0.730020 0.554720 0.502470 -0.593336
O7    O     O_R   0.282610 0.587550 0.503940 -0.580324
O8    O     O_R   0.717390 0.412450 0.496060 -0.580449
H9    H     H_    0.984147 0.598438 0.517553 0.164621
H10   H     H_    0.015852 0.401567 0.482415 0.164498
H11   H     H_    0.446122 0.387892 0.740622 0.155674
H12   H     H_    0.555028 0.612041 0.259497 0.155578
C29   C     C_R   0.536225 0.316138 0.247326 0.149099
C30   C     C_R   0.419162 0.261710 0.232773 -0.167611
C31   C     C_R   0.439942 0.180219 0.257926 -0.150606
C32   C     C_R   0.577728 0.152439 0.297340 -0.092659
C33   C     C_R   0.694562 0.206288 0.312174 -0.139924
C34   C     C_R   0.674476 0.287747 0.286999 -0.092260
H13   H     H_    0.312666 0.282185 0.201481 0.125124
H14   H     H_    0.349403 0.138491 0.246702 0.128025
H15   H     H_    0.593693 0.089295 0.316658 0.135556
H16   H     H_    0.801282 0.184536 0.342452 0.110966
H17   H     H_    0.766930 0.328389 0.297645 0.105005
C35   C     C_R   0.463316 0.683882 0.752641 0.149027
C36   C     C_R   0.324819 0.711891 0.712973 -0.092103
C37   C     C_R   0.303992 0.793292 0.687685 -0.139959
C38   C     C_R   0.420335 0.847466 0.702385 -0.092701
C39   C     C_R   0.558331 0.820090 0.741828 -0.150197
C40   C     C_R   0.579847 0.738660 0.767105 -0.167671
H18   H     H_    0.232750 0.670987 0.702405 0.104945
H19   H     H_    0.197074 0.814747 0.657427 0.110776
H20   H     H_    0.403805 0.910558 0.682958 0.135494
H21   H     H_    0.648467 0.862084 0.752972 0.128052
H22   H     H_    0.686517 0.718500 0.798404 0.125071
C41   C     C_R   0.728950 0.268282 0.571817 0.172436
C42   C     C_R   0.717202 0.292971 0.652580 -0.122389
C43   C     C_R   0.846389 0.315781 0.698509 -0.154291
C44   C     C_R   0.990438 0.309753 0.664681 -0.108437
C45   C     C_R   0.005487 0.279529 0.585337 -0.153698
C46   C     C_R   0.875605 0.258124 0.539034 -0.157921
H23   H     H_    0.608986 0.291604 0.680032 0.112743
H24   H     H_    0.835444 0.336240 0.760614 0.138088
H25   H     H_    0.090922 0.326697 0.700270 0.128000
H26   H     H_    0.117782 0.272790 0.559781 0.140671
H27   H     H_    0.889079 0.234069 0.477817 0.109572
C47   C     C_R   0.270938 0.731688 0.428248 0.172193
C48   C     C_R   0.124226 0.742082 0.460991 -0.158248
C49   C     C_R   0.994344 0.720579 0.414737 -0.153676
C50   C     C_R   0.009459 0.689971 0.335485 -0.108460
C51   C     C_R   0.153578 0.683665 0.301685 -0.154534
C52   C     C_R   0.282756 0.706609 0.347551 -0.121717
H28   H     H_    0.110690 0.766419 0.522133 0.109572
H29   H     H_    0.882003 0.727530 0.440265 0.140695
H30   H     H_    0.908980 0.672932 0.299941 0.128006
H31   H     H_    0.164592 0.662869 0.239645 0.138126
H32   H     H_    0.391046 0.707717 0.320095 0.112996
H33   H     H_    0.729978 0.706446 0.577123 0.129791
H34   H     H_    0.270026 0.293572 0.422873 0.129823

loop_
_geom_bond_atom_site_label_1
_geom_bond_atom_site_label_2
_ccdc_geom_bond_type
C19   H12   S    
Cu2   O7    S    
C50   C51   A    
Cu1   N4    S    
C2    C18   S    
C43   C44   A    
C29   C30   A    
C47   C52   A    
Cu1   O5    S    
C2    O2    A    
C31   H14   S    
Cu1   Cu2   S    
C34   H17   S    
C3    C47   S    
C15   H9    S    
C28   C35   S    
C24   C26   A    
C41   C46   A    
C42   C43   A    
C15   C16   D    
C5    H6    S    
C6    H5    S    
C12   N4    A    
C39   H21   S    
C17   C19   A    
C48   H28   S    
C13   O7    A    
C33   H16   S    
C26   H4    S    
C14   O8    A    
C35   C36   A    
C40   H22   S    
Cu2   N3    S    
C37   C38   A    
C7    N5    S    
C18   C20   A    
C43   H24   S    
C45   H26   S    
Cu2   O6    S    
C31   C32   A    
C36   C37   A    
C20   H11   S    
C49   H29   S    
C21   H2    S    
C22   H1    S    
C14   O6    A    
Cu1   O4    S    
C17   C27   A    
Cu2   O3    S    
C29   C34   A    
C18   C28   A    
C4    C41   S    
C4    C6    A    
C27   C29   S    
N1    N2    D    
C5    C7    A    
C52   H32   S    
C1    O3    A    
C6    C8    A    
C2    O4    A    
C30   C31   A    
Cu1   O1    S    
C32   C33   A    
N5    N6    D    
C12   H34   S    
C42   H23   S    
C45   C46   A    
C9    H7    S    
C36   H18   S    
C11   H33   S    
C9    C11   A    
C10   C12   A    
C13   O5    A    
C20   C22   A    
C32   H15   S    
C51   C52   A    
C13   C15   S    
C14   C16   S    
C46   H27   S    
C48   C49   A    
C30   H13   S    
C7    C9    A    
C3    N3    A    
C19   C21   A    
C26   C28   A    
Cu2   O2    S    
C8    N6    S    
C39   C40   A    
C3    C5    A    
C25   C27   A    
C1    C17   S    
C10   H8    S    
C21   C23   A    
C35   C40   A    
C38   C39   A    
C1    O1    A    
C47   C48   A    
C38   H20   S    
C4    N4    A    
C51   H31   S    
C23   N1    S    
C49   C50   A    
C24   N2    S    
C11   N3    A    
C22   C24   A    
C23   C25   A    
C33   C34   A    
C16   H10   S    
C41   C42   A    
C8    C10   A    
C44   C45   A    
C37   H19   S    
C50   H30   S    
C44   H25   S    
C25   H3    S    
Cu1   O8    S    
