data_mof_unit_19377.cif
_audit_creation_date              2012-12-11T16:07:26-0500
_audit_creation_method            fapswitch 2.2
_symmetry_space_group_name_H-M    P1
_symmetry_Int_Tables_number       1
_space_group_crystal_system       triclinic
_cell_length_a                    7.006676
_cell_length_b                    14.775481
_cell_length_c                    15.800334
_cell_angle_alpha                 89.96497
_cell_angle_beta                  90.478516
_cell_angle_gamma                 91.598711
_cell_volume                      1635.06743231

loop_
_atom_site_label
_atom_site_type_symbol
_atom_type_description
_atom_site_fract_x
_atom_site_fract_y
_atom_site_fract_z
_atom_type_partial_charge
O1    O     O_R   0.494320 0.415010 0.412140 -0.522017
O2    O     O_R   0.824010 0.404260 0.587250 -0.557983
O3    O     O_R   0.994320 0.584990 0.587860 -0.529119
C1    C     C_R   0.654147 0.382499 0.615865 0.725999
O4    O     O_R   0.824040 0.403870 0.412760 -0.509063
O5    O     O_R   0.994350 0.584590 0.412130 -0.531330
C2    C     C_R   0.654044 0.376765 0.388362 0.766910
O6    O     O_R   0.494300 0.415410 0.587870 -0.524714
O7    O     O_3   0.660800 0.559290 0.500000 -0.362052
V1    V     V_3+5 0.935650 0.489000 0.500000 1.635081
O8    O     O_R   0.324060 0.595740 0.412750 -0.513391
C3    C     C_R   0.154548 0.622594 0.387397 0.821089
O9    O     O_R   0.324040 0.596130 0.587240 -0.528047
C4    C     C_R   0.157283 0.614470 0.619070 0.805477
V2    V     V_3+5 0.435660 0.511000 0.500000 1.679935
O10   O     O_3   0.160640 0.440710 0.500000 -0.378567
C5    C     C_3   0.966254 0.700431 0.741679 0.291123
C6    C     C_3   0.081072 0.704537 0.825299 0.340508
C7    C     C_3   0.118095 0.807252 0.813598 -0.287727
C8    C     C_3   0.004795 0.802361 0.729392 0.331483
C9    C     C_3   0.188330 0.783294 0.680010 -0.169744
C10   C     C_3   0.303210 0.786430 0.764779 -0.101858
C11   C     C_3   0.264906 0.682913 0.776381 -0.106624
C12   C     C_3   0.149241 0.680891 0.692225 -0.220163
H1    H     H_    0.232987 0.816841 0.620183 0.223282
H2    H     H_    0.443148 0.821046 0.775254 0.254635
H3    H     H_    0.369228 0.632418 0.797499 0.247572
C13   C     C_3   0.274453 0.853303 0.266885 0.682676
C14   C     C_3   0.295895 0.774680 0.332876 -0.281058
H4    H     H_    0.287249 0.801412 0.398416 0.217327
H5    H     H_    0.439956 0.746251 0.330180 0.216192
H6    H     H_    0.311973 0.738654 0.131366 0.226106
C15   C     C_3   0.167343 0.733508 0.159827 -0.420702
C16   C     C_3   0.926477 0.812770 0.244347 -0.333051
C17   C     C_3   0.119871 0.825829 0.197360 -0.161454
H7    H     H_    0.819134 0.784567 0.198768 0.181846
H8    H     H_    0.876094 0.879275 0.266054 0.273533
C18   C     C_3   0.140770 0.698049 0.319374 -0.246052
C19   C     C_3   0.152903 0.658415 0.227494 0.269361
C20   C     C_3   0.943288 0.745438 0.320636 0.196431
H9    H     H_    0.827910 0.693149 0.314259 0.165225
H10   H     H_    0.066692 0.715831 0.107054 0.202098
H11   H     H_    0.019567 0.617668 0.214808 0.155729
C21   C     C_3   0.507846 0.231357 0.658751 -0.339425
H12   H     H_    0.364433 0.255658 0.640364 0.173845
H13   H     H_    0.567523 0.199057 0.601490 0.186820
C22   C     C_3   0.485387 0.161508 0.731836 0.332313
H14   H     H_    0.336470 0.164727 0.754948 0.140309
H15   H     H_    0.402186 0.271840 0.859425 0.265274
C23   C     C_3   0.567079 0.353418 0.769437 0.264402
C24   C     C_3   0.841051 0.273325 0.704782 -0.409196
C25   C     C_3   0.641026 0.312047 0.685700 -0.118270
H16   H     H_    0.943087 0.329179 0.722978 0.192175
H17   H     H_    0.897613 0.242392 0.646185 0.213545
C26   C     C_3   0.622646 0.185823 0.808150 -0.184449
C27   C     C_3   0.553046 0.279453 0.839118 -0.441419
C28   C     C_3   0.832657 0.203356 0.777494 0.280795
H18   H     H_    0.918059 0.231571 0.831581 0.125459
H19   H     H_    0.670698 0.407465 0.790588 0.175923
H20   H     H_    0.639862 0.303680 0.893317 0.223292
C29   C     C_3   0.597350 0.352834 0.231181 0.259112
H21   H     H_    0.445375 0.367945 0.237232 0.212864
C30   C     C_3   0.613909 0.288700 0.151980 0.503597
H22   H     H_    0.357985 0.259126 0.346787 0.245695
H23   H     H_    0.334732 0.156424 0.235920 0.225081
C31   C     C_3   0.497806 0.230456 0.333916 -0.476386
C32   C     C_3   0.841370 0.254286 0.307485 0.292933
C33   C     C_3   0.649585 0.306164 0.316532 -0.184628
H24   H     H_    0.869295 0.218089 0.367961 0.105765
C34   C     C_3   0.632193 0.187377 0.186944 -0.217440
C35   C     C_3   0.483405 0.163303 0.258289 -0.301158
C36   C     C_3   0.825475 0.182191 0.235416 -0.367701
H25   H     H_    0.942063 0.189650 0.191105 0.236520
H26   H     H_    0.841699 0.113466 0.263146 0.171262
H27   H     H_    0.536303 0.193068 0.392558 0.184773
H28   H     H_    0.512650 0.094401 0.282868 0.233686
O11   O     O_R   0.771990 0.083520 0.910980 -0.523307
O12   O     O_R   0.442180 0.095020 0.086060 -0.535182
O13   O     O_R   0.271950 0.914280 0.086680 -0.519877
C37   C     C_R   0.613914 0.116146 0.116054 0.777680
O14   O     O_R   0.442270 0.094630 0.911580 -0.525277
O15   O     O_R   0.272040 0.913890 0.910940 -0.543533
C38   C     C_R   0.611366 0.115151 0.880563 0.803373
O16   O     O_R   0.771900 0.083910 0.086710 -0.550272
O17   O     O_3   0.605520 0.939610 0.998840 -0.361138
V3    V     V_3+5 0.330640 0.009880 0.998810 1.627751
O18   O     O_R   0.942330 0.902710 0.911540 -0.508203
C39   C     C_R   0.109591 0.879790 0.882772 0.844502
O19   O     O_R   0.942240 0.903100 0.086030 -0.544329
C40   C     C_R   0.109460 0.891939 0.122579 0.753106
V4    V     V_3+5 0.830640 0.987830 0.998780 1.646478
O20   O     O_3   0.105630 0.058150 0.998800 -0.381838
Cl1   Cl    Cl    0.010706 0.650810 0.921524 -0.474101
S1    S     S_3+6 0.338876 0.583336 0.210977 0.111070
O21   O     O_2   0.298492 0.500491 0.262929 -0.283729
O22   O     O_2   0.341829 0.558880 0.118846 -0.216295
O23   O     O_3   0.548654 0.632530 0.238481 -0.510660
H29   H     H_    0.599690 0.659253 0.185543 0.354860
Cl2   Cl    Cl    0.897551 0.800603 0.419347 -0.575824
Cl3   Cl    Cl    0.743096 0.640140 0.732084 -0.584940
Cl4   Cl    Cl    0.499756 0.049668 0.691376 -0.419363
Cl5   Cl    Cl    0.341066 0.407207 0.758109 -0.614854
Cl6   Cl    Cl    0.952613 0.103880 0.746658 -0.498702
S2    S     S_3+6 0.829031 0.875526 0.690403 0.143436
O24   O     O_2   0.739154 0.919218 0.765172 -0.287164
O25   O     O_2   0.920317 0.946053 0.634186 -0.217617
O26   O     O_3   0.660993 0.817577 0.634557 -0.457138
H30   H     H_    0.732458 0.783316 0.591962 0.371980
Cl7   Cl    Cl    0.717240 0.461706 0.221568 -0.384648
S3    S     S_3+6 0.807864 0.327020 0.080163 0.176560
O27   O     O_2   0.734254 0.395705 0.018597 -0.234280
O28   O     O_2   0.972218 0.372888 0.125112 -0.151048
O29   O     O_3   0.896472 0.241986 0.024610 -0.496552
H31   H     H_    0.792372 0.224398 0.985748 0.306221
S4    S     S_3+6 0.400444 0.297703 0.088058 0.123243
O30   O     O_2   0.358231 0.394425 0.069384 -0.150477
O31   O     O_2   0.423929 0.250029 0.005861 -0.391545
O32   O     O_3   0.215479 0.250070 0.136863 -0.475871
H32   H     H_    0.181358 0.195643 0.103159 0.369901
Cl8   Cl    Cl    0.047098 0.326387 0.293265 -0.515130
Cl9   Cl    Cl    0.503158 0.879541 0.223608 -0.706347
Cl10  Cl    Cl    0.210190 0.955449 0.320059 -0.601191

loop_
_geom_bond_atom_site_label_1
_geom_bond_atom_site_label_2
_ccdc_geom_bond_type
C31   C33   S    
O18   C39   A    
C22   Cl4   S    
O18   V4    S    
C16   H8    S    
C7    C8    S    
C1    O6    A    
C29   Cl7   S    
C20   Cl2   S    
S2    O25   D    
O23   H29   S    
O17   V4    S    
V1    O10   S    
O17   V3    S    
C15   C19   S    
C1    C25   S    
C16   C20   S    
C23   H19   S    
C13   C14   S    
C6    C7    S    
O5    C3    A    
C18   C19   S    
O12   C37   A    
O11   C38   A    
S4    O30   D    
C5    C8    S    
C16   C17   S    
C4    C12   S    
C29   C30   S    
O32   H32   S    
O13   C40   A    
C2    C33   S    
S3    O27   D    
O8    V2    S    
V3    O20   S    
C22   H14   S    
C13   C17   S    
S4    O31   D    
C14   C18   S    
C23   C25   S    
C11   C12   S    
C34   C35   S    
C24   C28   S    
O16   V4    S    
C11   H3    S    
O19   V4    S    
C32   Cl8   S    
C16   H7    S    
O14   V3    S    
C21   C22   S    
C37   O16   A    
C30   S4    S    
O12   V3    S    
O9    C4    A    
S1    O21   D    
S2    O24   D    
O14   C38   A    
C21   H13   S    
C28   Cl6   S    
C5    C12   S    
C34   C37   S    
C32   C33   S    
C32   C36   S    
C7    C10   S    
C36   H26   S    
C7    C39   S    
V4    O20   S    
O4    C2    A    
C13   Cl9   S    
C19   H11   S    
S1    O23   S    
H23   C35   S    
C23   C27   S    
C6    C11   S    
C24   H16   S    
H22   C31   S    
O2    C1    A    
C19   S1    S    
C14   H4    S    
C31   C35   S    
C30   C34   S    
O26   H30   S    
S4    O32   S    
C26   C27   S    
C5    C6    S    
S1    O22   D    
S3    O29   S    
O3    C4    A    
O1    V2    S    
C20   H9    S    
C23   Cl5   S    
O6    V2    S    
O9    V2    S    
C15   H10   S    
C26   C38   S    
O2    V1    S    
C21   H12   S    
C22   C26   S    
O29   H31   S    
O7    V1    S    
C9    H1    S    
O11   V4    S    
O1    C2    A    
C36   H25   S    
O5    V1    S    
O8    C3    A    
C8    S2    S    
H15   C27   S    
C24   H17   S    
H6    C15   S    
C30   S3    S    
C26   C28   S    
O7    V2    S    
C24   C25   S    
C14   H5    S    
O3    V1    S    
O15   V3    S    
C18   C20   S    
C29   C33   S    
C21   C25   S    
C28   H18   S    
C35   H28   S    
O15   C39   A    
C31   H27   S    
C15   C17   S    
C13   Cl10  S    
S2    O26   S    
C3    C18   S    
C29   H21   S    
C5    Cl3   S    
S3    O28   D    
C17   C40   S    
C27   H20   S    
O4    V1    S    
C8    C9    S    
C10   H2    S    
C9    C12   S    
C6    Cl1   S    
C10   C11   S    
C34   C36   S    
C32   H24   S    
O19   C40   A    
C9    C10   S    
O13   V3    S    
V2    O10   S    
