data_mof_unit_65487.cif
_audit_creation_date              2012-12-10T17:41:56-0500
_audit_creation_method            fapswitch 2.2
_symmetry_space_group_name_H-M    P1
_symmetry_Int_Tables_number       1
_space_group_crystal_system       triclinic
_cell_length_a                    24.351192
_cell_length_b                    24.35117
_cell_length_c                    43.029965
_cell_angle_alpha                 89.999458
_cell_angle_beta                  89.999732
_cell_angle_gamma                 90.00028
_cell_volume                      25515.9093365

loop_
_atom_site_label
_atom_site_type_symbol
_atom_type_description
_atom_site_fract_x
_atom_site_fract_y
_atom_site_fract_z
_atom_type_partial_charge
C1    C     C_R   0.500001 1.000000 0.934072 -0.031326
C2    C     C_R   0.815858 0.265600 0.270143 0.009262
C3    C     C_R   0.457063 0.975086 0.582414 -0.131468
C4    C     C_R   0.024910 0.542939 0.417586 -0.131466
C5    C     C_R   0.975089 0.457060 0.582414 -0.131467
C6    C     C_R   0.457066 0.975080 0.417586 -0.131462
C7    C     C_R   0.542938 0.024913 0.582413 -0.131473
C8    C     C_R   0.525243 0.956621 0.884931 0.192736
C9    C     C_R   0.474766 0.043384 0.115069 0.192721
C10   C     C_R   0.043373 0.474748 0.884931 0.192726
C11   C     C_R   0.956629 0.525256 0.115070 0.192720
C12   C     C_R   0.474758 0.043378 0.884931 0.192725
C13   C     C_R   0.315825 0.234366 0.770170 0.009258
C14   C     C_R   0.525235 0.956617 0.115069 0.192720
C15   C     C_R   0.956626 0.525252 0.884930 0.192730
C16   C     C_R   0.043371 0.474744 0.115070 0.192715
C17   C     C_R   0.974750 0.456625 0.384931 0.192718
C18   C     C_R   0.025248 0.543375 0.615069 0.192698
C19   C     C_R   0.543369 0.025259 0.384930 0.192714
C20   C     C_R   0.456628 0.974746 0.615070 0.192708
C21   C     C_R   0.025250 0.543374 0.384930 0.192717
C22   C     C_R   0.974750 0.456625 0.615070 0.192713
C23   C     C_R   0.456631 0.974740 0.384931 0.192718
C24   C     C_R   0.684214 0.765672 0.229799 0.009254
C25   C     C_R   0.543373 0.025252 0.615069 0.192699
C26   C     C_R   0.500000 1.000000 0.665912 0.572649
C27   C     C_R   0.500000 1.000000 0.334088 0.572663
C28   C     C_R   1.000000 0.500000 0.665912 0.572643
C29   C     C_R   0.000000 0.500000 0.334088 0.572651
C30   C     C_R   0.000000 0.500000 0.165912 0.572658
C31   C     C_R   1.000000 0.500000 0.834088 0.572654
C32   C     C_R   0.500000 0.000000 0.165912 0.572629
C33   C     C_R   0.500000 1.000000 0.834088 0.572643
C34   C     C_R   0.605910 0.894104 0.750007 0.510041
C35   C     C_R   0.815887 0.265572 0.729880 0.009265
C36   C     C_R   0.394090 0.105896 0.249993 0.510059
C37   C     C_R   0.105909 0.605896 0.749993 0.510072
C38   C     C_R   0.894091 0.394104 0.250007 0.510060
C39   C     C_R   0.394090 0.105896 0.750007 0.510050
C40   C     C_R   0.605910 0.894104 0.249993 0.510053
C41   C     C_R   0.894091 0.394104 0.749993 0.510070
C42   C     C_R   0.105909 0.605896 0.250007 0.510058
C43   C     C_R   0.394105 0.894090 0.250007 0.510058
C44   C     C_R   0.605896 0.105910 0.749993 0.510069
C45   C     C_R   0.894104 0.605910 0.249993 0.510056
C46   C     C_R   0.184207 0.734334 0.270196 0.009255
C47   C     C_R   0.105896 0.394090 0.750007 0.510051
C48   C     C_R   0.605895 0.105910 0.250007 0.510061
C49   C     C_R   0.394104 0.894090 0.749993 0.510073
C50   C     C_R   0.105896 0.394090 0.249993 0.510063
C51   C     C_R   0.894104 0.605910 0.750007 0.510042
C52   C     C_R   0.500000 1.000000 0.868466 0.115200
C53   C     C_R   0.500001 0.000000 0.131534 0.115185
C54   C     C_R   1.000000 0.500000 0.868466 0.115206
C55   C     C_R   0.000000 0.500000 0.131534 0.115196
C56   C     C_R   0.000000 0.500000 0.368466 0.115193
C57   C     C_R   0.684452 0.765911 0.770389 0.009232
C58   C     C_R   0.999999 0.500000 0.631534 0.115180
C59   C     C_R   0.500000 1.000000 0.368466 0.115197
C60   C     C_R   0.500000 1.000000 0.631534 0.115183
C61   C     C_R   0.999999 0.500000 0.531568 0.356185
C62   C     C_R   0.999999 0.500000 0.468432 0.356186
C63   C     C_R   0.500000 0.999999 0.531567 0.356185
C64   C     C_R   0.500000 0.999999 0.468432 0.356186
C65   C     C_R   0.500001 1.000000 0.031567 0.356190
C66   C     C_R   0.500001 1.000000 0.968432 0.356190
C67   C     C_R   0.999999 0.500000 0.031568 0.356189
C68   C     C_R   0.315867 0.234408 0.229863 0.009263
C69   C     C_R   0.999999 0.500000 0.968432 0.356190
C70   C     C_R   0.193944 0.643601 0.769815 -0.129020
C71   C     C_R   0.806161 0.356294 0.230100 -0.129033
C72   C     C_R   0.306193 0.143739 0.730074 -0.129048
C73   C     C_R   0.693769 0.856223 0.269956 -0.129049
C74   C     C_R   0.806133 0.356321 0.769878 -0.129016
C75   C     C_R   0.193775 0.643770 0.230049 -0.129048
C76   C     C_R   0.693535 0.855990 0.729858 -0.129080
C77   C     C_R   0.306152 0.143698 0.269893 -0.129032
C78   C     C_R   0.856223 0.693769 0.269957 -0.129044
C79   C     C_R   0.765672 0.684214 0.229799 0.009255
C80   C     C_R   0.143739 0.306193 0.730074 -0.129043
C81   C     C_R   0.643706 0.193840 0.230100 -0.129039
C82   C     C_R   0.356399 0.806055 0.769815 -0.129005
C83   C     C_R   0.143698 0.306152 0.269893 -0.129037
C84   C     C_R   0.855990 0.693536 0.729858 -0.129085
C85   C     C_R   0.356231 0.806224 0.230049 -0.129041
C86   C     C_R   0.643678 0.193868 0.769877 -0.129031
C87   C     C_R   0.693741 0.143800 0.269990 -0.125659
C88   C     C_R   0.306153 0.856306 0.730095 -0.125645
C89   C     C_R   0.806329 0.643871 0.229953 -0.125676
C90   C     C_R   0.234366 0.315825 0.770170 0.009258
C91   C     C_R   0.193709 0.356167 0.770016 -0.125676
C92   C     C_R   0.306323 0.856136 0.270041 -0.125675
C93   C     C_R   0.693769 0.143772 0.730032 -0.125642
C94   C     C_R   0.193750 0.356208 0.230016 -0.125659
C95   C     C_R   0.806563 0.644104 0.770232 -0.125712
C96   C     C_R   0.356167 0.193709 0.770016 -0.125670
C97   C     C_R   0.643871 0.806330 0.229953 -0.125673
C98   C     C_R   0.143694 0.693847 0.730095 -0.125630
C99   C     C_R   0.856200 0.306258 0.269990 -0.125666
C100  C     C_R   0.644104 0.806563 0.770232 -0.125718
C101  C     C_R   0.734399 0.184142 0.270144 0.009261
C102  C     C_R   0.356208 0.193750 0.230016 -0.125664
C103  C     C_R   0.856229 0.306230 0.730033 -0.125657
C104  C     C_R   0.143863 0.693677 0.270041 -0.125669
C105  C     C_R   0.148450 0.648385 0.749969 0.011181
C106  C     C_R   0.851550 0.351615 0.250031 0.011160
C107  C     C_R   0.351550 0.148384 0.750031 0.011153
C108  C     C_R   0.648450 0.851615 0.249969 0.011144
C109  C     C_R   0.851551 0.351615 0.749969 0.011166
C110  C     C_R   0.148449 0.648384 0.250031 0.011148
C111  C     C_R   0.648450 0.851615 0.750031 0.011101
C112  C     C_R   0.500001 0.000000 0.065927 -0.031326
C113  C     C_R   0.265493 0.815966 0.729943 0.009273
C114  C     C_R   0.351550 0.148385 0.249969 0.011160
C115  C     C_R   0.851615 0.648450 0.249969 0.011145
C116  C     C_R   0.148384 0.351550 0.750031 0.011153
C117  C     C_R   0.648384 0.148450 0.250032 0.011160
C118  C     C_R   0.351616 0.851550 0.749969 0.011181
C119  C     C_R   0.148384 0.351550 0.249969 0.011161
C120  C     C_R   0.851616 0.648450 0.750031 0.011102
C121  C     C_R   0.351616 0.851550 0.250032 0.011148
C122  C     C_R   0.648384 0.148450 0.749968 0.011166
C123  C     C_R   0.234408 0.315867 0.229863 0.009263
C124  C     C_R   0.765911 0.684452 0.770389 0.009232
C125  C     C_R   0.265666 0.815792 0.270196 0.009255
C126  C     C_R   0.734428 0.184114 0.729879 0.009265
C127  C     C_R   0.684015 0.234528 0.229975 0.009626
C128  C     C_R   0.316092 0.765364 0.769938 0.009633
C129  C     C_R   0.815913 0.734456 0.270083 0.009623
C130  C     C_R   0.184049 0.265505 0.729948 0.009625
C131  C     C_R   0.315920 0.765537 0.229922 0.009622
C132  C     C_R   0.999999 0.500000 0.934072 -0.031326
C133  C     C_R   0.683986 0.234557 0.770002 0.009628
C134  C     C_R   0.184007 0.265463 0.270018 0.009628
C135  C     C_R   0.815675 0.734219 0.729728 0.009611
C136  C     C_R   0.265505 0.184049 0.729948 0.009625
C137  C     C_R   0.734457 0.815913 0.270083 0.009623
C138  C     C_R   0.234636 0.683908 0.769938 0.009633
C139  C     C_R   0.765472 0.315985 0.229974 0.009626
C140  C     C_R   0.734219 0.815675 0.729728 0.009611
C141  C     C_R   0.265463 0.184006 0.270018 0.009627
C142  C     C_R   0.765443 0.316013 0.770002 0.009629
C143  C     C_R   1.000000 0.500000 0.065928 -0.031327
C144  C     C_R   0.234463 0.684081 0.229922 0.009623
C145  C     C_R   0.229691 0.729557 0.749938 0.062842
C146  C     C_R   0.770309 0.270443 0.250062 0.062842
C147  C     C_R   0.270309 0.229557 0.750062 0.062843
C148  C     C_R   0.729691 0.770443 0.249938 0.062843
C149  C     C_R   0.770309 0.270443 0.749938 0.062842
C150  C     C_R   0.229691 0.729557 0.250062 0.062843
C151  C     C_R   0.729692 0.770443 0.750062 0.062843
C152  C     C_R   0.270309 0.229557 0.249938 0.062842
C153  C     C_R   0.770443 0.729691 0.249938 0.062843
C154  C     C_R   1.000000 0.500000 0.434072 -0.031327
C155  C     C_R   0.229557 0.270309 0.750062 0.062843
C156  C     C_R   0.729557 0.229691 0.250062 0.062842
C157  C     C_R   0.270443 0.770309 0.749938 0.062842
C158  C     C_R   0.229557 0.270309 0.249938 0.062842
C159  C     C_R   0.770443 0.729692 0.750062 0.062843
C160  C     C_R   0.270443 0.770309 0.250062 0.062843
C161  C     C_R   0.729557 0.229691 0.749938 0.062842
C162  C     C_R   0.179483 0.780013 0.710153 -0.126731
C163  C     C_R   0.820300 0.220204 0.290022 -0.126749
C164  C     C_R   0.320233 0.279728 0.790075 -0.126752
C165  C     C_R   0.999999 0.500001 0.565928 -0.031328
C166  C     C_R   0.679844 0.720349 0.209863 -0.126752
C167  C     C_R   0.820358 0.220147 0.710024 -0.126743
C168  C     C_R   0.179831 0.779664 0.290127 -0.126750
C169  C     C_R   0.680323 0.720827 0.790515 -0.126769
C170  C     C_R   0.320318 0.279814 0.209992 -0.126748
C171  C     C_R   0.720349 0.679844 0.209863 -0.126754
C172  C     C_R   0.279729 0.320233 0.790075 -0.126754
C173  C     C_R   0.779795 0.179699 0.290022 -0.126747
C174  C     C_R   0.219988 0.820518 0.710153 -0.126739
C175  C     C_R   0.279813 0.320318 0.209992 -0.126746
C176  C     C_R   0.500000 1.000000 0.434072 -0.031327
C177  C     C_R   0.720827 0.680322 0.790515 -0.126767
C178  C     C_R   0.220336 0.820169 0.290127 -0.126752
C179  C     C_R   0.779853 0.179643 0.710024 -0.126736
C180  C     C_R   0.679559 0.279938 0.210107 -0.126956
C181  C     C_R   0.320657 0.719846 0.789718 -0.126936
C182  C     C_R   0.820296 0.779793 0.290008 -0.126960
C183  C     C_R   0.179626 0.220130 0.710054 -0.126959
C184  C     C_R   0.320310 0.720194 0.210002 -0.126958
C185  C     C_R   0.679501 0.279994 0.789846 -0.126950
C186  C     C_R   0.179542 0.220045 0.289879 -0.126955
C187  C     C_R   0.500001 0.999999 0.565927 -0.031328
C188  C     C_R   0.819819 0.779316 0.709613 -0.126980
C189  C     C_R   0.220130 0.179626 0.710054 -0.126961
C190  C     C_R   0.779793 0.820296 0.290008 -0.126962
C191  C     C_R   0.280153 0.679342 0.789718 -0.126944
C192  C     C_R   0.720063 0.320441 0.210107 -0.126954
C193  C     C_R   0.779315 0.819819 0.709613 -0.126978
C194  C     C_R   0.220045 0.179541 0.289879 -0.126953
C195  C     C_R   0.720005 0.320497 0.789847 -0.126942
C196  C     C_R   0.279806 0.679691 0.210002 -0.126960
C197  C     C_R   0.524903 0.957056 0.917586 -0.131458
C198  C     C_R   0.184034 0.734508 0.729944 0.009273
C199  C     C_R   0.475107 0.042949 0.082413 -0.131463
C200  C     C_R   0.042937 0.475088 0.917586 -0.131458
C201  C     C_R   0.957064 0.524916 0.082414 -0.131463
C202  C     C_R   0.475099 0.042944 0.917586 -0.131461
C203  C     C_R   0.524895 0.957052 0.082413 -0.131466
C204  C     C_R   0.957061 0.524912 0.917586 -0.131459
C205  C     C_R   0.042935 0.475084 0.082414 -0.131464
C206  C     C_R   0.975089 0.457060 0.417587 -0.131463
C207  C     C_R   0.024908 0.542941 0.582413 -0.131475
C208  C     C_R   0.542934 0.024919 0.417586 -0.131466
H1    H     H_    0.144612 0.784266 0.694693 0.116239
H2    H     H_    0.283870 0.354993 0.805624 0.116243
H3    H     H_    0.783962 0.144913 0.305550 0.116245
H4    H     H_    0.215735 0.855389 0.694693 0.116226
H5    H     H_    0.283987 0.355111 0.194469 0.116243
H6    H     H_    0.716904 0.645780 0.806237 0.116298
H7    H     H_    0.216220 0.854903 0.305696 0.116254
H8    H     H_    0.784042 0.144835 0.694514 0.116255
H9    H     H_    0.644773 0.284106 0.194579 0.115849
H10   H     H_    0.355528 0.715592 0.805177 0.115849
H11   H     H_    0.855025 0.783904 0.305582 0.115862
H12   H     H_    0.855086 0.216036 0.305550 0.116241
H13   H     H_    0.144866 0.215988 0.694505 0.115853
H14   H     H_    0.355045 0.716078 0.194433 0.115864
H15   H     H_    0.644693 0.284185 0.805357 0.115849
H16   H     H_    0.144749 0.215870 0.305402 0.115848
H17   H     H_    0.854361 0.783240 0.693891 0.115894
H18   H     H_    0.215988 0.144866 0.694505 0.115849
H19   H     H_    0.783904 0.855025 0.305582 0.115859
H20   H     H_    0.284406 0.644471 0.805178 0.115836
H21   H     H_    0.715895 0.355228 0.194579 0.115852
H22   H     H_    0.783239 0.854361 0.693891 0.115898
H23   H     H_    0.354993 0.283870 0.805625 0.116247
H24   H     H_    0.215870 0.144748 0.305402 0.115850
H25   H     H_    0.715815 0.355306 0.805357 0.115862
H26   H     H_    0.283923 0.644956 0.194433 0.115860
H27   H     H_    0.544450 0.923763 0.930079 0.136411
H28   H     H_    0.455568 0.076245 0.069920 0.136426
H29   H     H_    0.076227 0.455535 0.930079 0.136426
H30   H     H_    0.923777 0.544472 0.069921 0.136419
H31   H     H_    0.455553 0.076236 0.930079 0.136425
H32   H     H_    0.544434 0.923755 0.069921 0.136418
H33   H     H_    0.923772 0.544465 0.930079 0.136411
H34   H     H_    0.645115 0.716238 0.194289 0.116258
H35   H     H_    0.076222 0.455528 0.069921 0.136426
H36   H     H_    0.955538 0.423770 0.430080 0.136425
H37   H     H_    0.044459 0.576231 0.569920 0.136426
H38   H     H_    0.576220 0.044478 0.430078 0.136425
H39   H     H_    0.423774 0.955532 0.569921 0.136430
H40   H     H_    0.044461 0.576229 0.430079 0.136422
H41   H     H_    0.955539 0.423770 0.569921 0.136426
H42   H     H_    0.423780 0.955521 0.430079 0.136424
H43   H     H_    0.576227 0.044466 0.569920 0.136423
H44   H     H_    0.197758 0.608532 0.785191 0.138604
H45   H     H_    0.855167 0.215957 0.694514 0.116242
H46   H     H_    0.802431 0.391278 0.214655 0.138625
H47   H     H_    0.302489 0.108781 0.714609 0.138616
H48   H     H_    0.697442 0.891150 0.285446 0.138629
H49   H     H_    0.802381 0.391328 0.785304 0.138640
H50   H     H_    0.197454 0.608837 0.214564 0.138628
H51   H     H_    0.697021 0.890730 0.714220 0.138663
H52   H     H_    0.302415 0.108706 0.285332 0.138622
H53   H     H_    0.891150 0.697442 0.285446 0.138635
H54   H     H_    0.108781 0.302489 0.714609 0.138623
H55   H     H_    0.608722 0.197570 0.214656 0.138620
H56   H     H_    0.145096 0.783780 0.305696 0.116258
H57   H     H_    0.391468 0.802240 0.785191 0.138627
H58   H     H_    0.108707 0.302415 0.285332 0.138617
H59   H     H_    0.890730 0.697021 0.714220 0.138657
H60   H     H_    0.391164 0.802545 0.214564 0.138638
H61   H     H_    0.608671 0.197620 0.785303 0.138619
H62   H     H_    0.697477 0.108804 0.285427 0.142537
H63   H     H_    0.302333 0.891386 0.714727 0.142472
H64   H     H_    0.802650 0.608933 0.214472 0.142571
H65   H     H_    0.197419 0.391137 0.785473 0.142541
H66   H     H_    0.302638 0.891080 0.285518 0.142567
H67   H     H_    0.645781 0.716903 0.806237 0.116295
H68   H     H_    0.697528 0.108755 0.714614 0.142541
H69   H     H_    0.197493 0.391211 0.214586 0.142531
H70   H     H_    0.803072 0.609353 0.785862 0.142701
H71   H     H_    0.391137 0.197419 0.785473 0.142548
H72   H     H_    0.608933 0.802650 0.214472 0.142578
H73   H     H_    0.108614 0.697669 0.714727 0.142494
H74   H     H_    0.891195 0.302522 0.285426 0.142530
H75   H     H_    0.609353 0.803071 0.785861 0.142695
H76   H     H_    0.391211 0.197493 0.214586 0.142526
H77   H     H_    0.891247 0.302472 0.714615 0.142518
H78   H     H_    0.355111 0.283988 0.194469 0.116240
H79   H     H_    0.108919 0.697363 0.285518 0.142574
H80   H     H_    0.566632 0.888096 0.883674 0.323033
H81   H     H_    0.433392 0.111916 0.116324 0.323084
H82   H     H_    0.111889 0.433347 0.883674 0.323082
H83   H     H_    0.888117 0.566665 0.116326 0.323072
H84   H     H_    0.433370 0.111903 0.883674 0.323079
H85   H     H_    0.566609 0.888084 0.116325 0.323067
H86   H     H_    0.888110 0.566653 0.883674 0.323033
H87   H     H_    0.111883 0.433336 0.116326 0.323086
H88   H     H_    0.933350 0.388107 0.383675 0.323084
H89   H     H_    0.716238 0.645115 0.194289 0.116254
H90   H     H_    0.066646 0.611895 0.616325 0.323097
H91   H     H_    0.611878 0.066673 0.383673 0.323085
H92   H     H_    0.388112 0.933343 0.616327 0.323102
H93   H     H_    0.066650 0.611892 0.383673 0.323073
H94   H     H_    0.933352 0.388106 0.616327 0.323089
H95   H     H_    0.388121 0.933326 0.383674 0.323076
H96   H     H_    0.611889 0.066655 0.616325 0.323086
N1    N     N_R   0.476107 0.041556 0.984540 -0.226024
N2    N     N_R   0.976072 0.458462 0.515460 -0.226026
N3    N     N_R   0.458474 0.976051 0.484541 -0.226026
N4    N     N_R   0.541526 0.023948 0.515459 -0.226031
N5    N     N_R   0.976072 0.458462 0.484541 -0.226025
N6    N     N_R   0.023926 0.541538 0.515459 -0.226030
N7    N     N_R   0.541526 0.023948 0.484540 -0.226029
N8    N     N_R   0.458475 0.976051 0.515459 -0.226024
N9    N     N_R   0.523896 0.958444 0.015459 -0.226033
N10   N     N_R   0.958475 0.523949 0.984541 -0.226035
N11   N     N_R   0.041524 0.476050 0.015459 -0.226023
N12   N     N_R   0.523896 0.958444 0.984541 -0.226035
N13   N     N_R   0.476107 0.041556 0.015459 -0.226024
N14   N     N_R   0.041524 0.476050 0.984541 -0.226022
N15   N     N_R   0.958475 0.523949 0.015459 -0.226032
N16   N     N_R   0.023926 0.541538 0.484540 -0.226030
O1    O     O_3   0.500000 0.000000 0.750000 -0.462786
O2    O     O_R   0.454060 1.000000 0.319230 -0.496826
O3    O     O_R   0.000000 0.545940 0.680770 -0.496848
O4    O     O_R   1.000000 0.454060 0.319230 -0.496813
O5    O     O_R   0.954060 0.500000 0.180770 -0.496826
O6    O     O_R   0.045940 0.500000 0.819230 -0.496802
O7    O     O_R   0.500000 0.954060 0.180770 -0.496820
O8    O     O_R   0.500000 0.045940 0.819230 -0.496809
O9    O     O_R   0.045940 0.500000 0.180770 -0.496828
O10   O     O_R   0.954060 0.500000 0.819230 -0.496848
O11   O     O_R   0.500000 0.045940 0.180770 -0.496803
O12   O     O_3   0.500000 1.000000 0.250000 -0.462786
O13   O     O_R   0.500000 0.954060 0.819230 -0.496829
O14   O     O_R   0.610280 0.935490 0.731900 -0.548684
O15   O     O_R   0.389720 0.064510 0.268100 -0.548681
O16   O     O_R   0.064510 0.610280 0.731900 -0.537460
O17   O     O_R   0.935490 0.389720 0.268100 -0.537505
O18   O     O_R   0.389720 0.064510 0.731900 -0.548700
O19   O     O_R   0.610280 0.935490 0.268100 -0.548690
O20   O     O_R   0.935490 0.389720 0.731900 -0.537499
O21   O     O_R   0.064510 0.610280 0.268100 -0.537497
O22   O     O_R   0.389720 0.935490 0.268100 -0.537510
O23   O     O_3   0.000000 0.500000 0.750000 -0.462785
O24   O     O_R   0.610280 0.064510 0.731900 -0.537466
O25   O     O_R   0.935490 0.610280 0.268100 -0.548679
O26   O     O_R   0.064510 0.389720 0.731900 -0.548689
O27   O     O_R   0.610280 0.064510 0.268100 -0.537493
O28   O     O_R   0.389720 0.935490 0.731900 -0.537493
O29   O     O_R   0.064510 0.389720 0.268100 -0.548688
O30   O     O_R   0.935490 0.610280 0.731900 -0.548694
O31   O     O_R   0.110280 0.435490 0.231900 -0.537492
O32   O     O_R   0.889720 0.564510 0.768100 -0.537522
O33   O     O_R   0.564510 0.110280 0.231900 -0.548688
O34   O     O_3   0.000000 0.500000 0.250000 -0.462785
O35   O     O_R   0.435490 0.889720 0.768100 -0.548653
O36   O     O_R   0.889720 0.564510 0.231900 -0.537507
O37   O     O_R   0.110280 0.435490 0.768100 -0.537516
O38   O     O_R   0.435490 0.889720 0.231900 -0.548676
O39   O     O_R   0.564510 0.110280 0.768100 -0.548686
O40   O     O_R   0.889720 0.435490 0.768100 -0.548654
O41   O     O_R   0.110280 0.564510 0.231900 -0.548691
O42   O     O_R   0.435490 0.110280 0.768100 -0.537506
O43   O     O_R   0.564510 0.889720 0.231900 -0.537499
O44   O     O_R   0.110280 0.564510 0.768100 -0.548688
O45   O     O_R   0.454060 1.000000 0.680770 -0.496803
O46   O     O_R   0.889720 0.435490 0.231900 -0.548680
O47   O     O_R   0.564510 0.889720 0.768100 -0.537533
O48   O     O_R   0.435490 0.110280 0.231900 -0.537502
O49   O     O_3   0.551025 0.914907 0.868743 -0.677688
O50   O     O_3   0.448993 0.085103 0.131256 -0.677584
O51   O     O_3   0.085082 0.448959 0.868743 -0.677601
O52   O     O_3   0.914923 0.551050 0.131257 -0.677624
O53   O     O_3   0.448976 0.085093 0.868743 -0.677599
O54   O     O_3   0.551008 0.914897 0.131257 -0.677612
O55   O     O_3   0.914917 0.551041 0.868743 -0.677697
O56   O     O_R   0.545940 1.000000 0.319230 -0.496832
O57   O     O_3   0.085078 0.448951 0.131257 -0.677600
O58   O     O_3   0.948961 0.414915 0.368743 -0.677596
O59   O     O_3   0.051036 0.585086 0.631256 -0.677574
O60   O     O_3   0.585074 0.051056 0.368742 -0.677607
O61   O     O_3   0.414919 0.948956 0.631258 -0.677565
O62   O     O_3   0.051038 0.585085 0.368742 -0.677621
O63   O     O_3   0.948963 0.414914 0.631258 -0.677589
O64   O     O_3   0.414926 0.948944 0.368743 -0.677623
O65   O     O_3   0.585082 0.051042 0.631257 -0.677604
O66   O     O_R   0.000000 0.454060 0.680770 -0.496809
O67   O     O_R   0.000000 0.545940 0.319230 -0.496832
O68   O     O_R   0.545940 1.000000 0.680770 -0.496859
Zn1   Zn    Zn3+2 0.500000 0.934510 0.776050 0.967417
Zn2   Zn    Zn3+2 0.000000 0.565490 0.723950 0.967422
Zn3   Zn    Zn3+2 0.565490 0.000000 0.276050 0.967419
Zn4   Zn    Zn3+2 0.434510 1.000000 0.723950 0.967428
Zn5   Zn    Zn3+2 0.000000 0.565490 0.276050 0.967419
Zn6   Zn    Zn3+2 0.000000 0.434510 0.723950 0.967426
Zn7   Zn    Zn3+2 0.434510 0.000000 0.276050 0.967421
Zn8   Zn    Zn3+2 0.565490 1.000000 0.723950 0.967417
Zn9   Zn    Zn3+2 0.500000 0.065490 0.223950 0.967425
Zn10  Zn    Zn3+2 0.065490 0.500000 0.776050 0.967426
Zn11  Zn    Zn3+2 0.934510 0.500000 0.223950 0.967421
Zn12  Zn    Zn3+2 0.500000 0.065490 0.776050 0.967424
Zn13  Zn    Zn3+2 0.500000 0.934510 0.223950 0.967420
Zn14  Zn    Zn3+2 0.934510 0.500000 0.776050 0.967414
Zn15  Zn    Zn3+2 0.065490 0.500000 0.223950 0.967423
Zn16  Zn    Zn3+2 0.000000 0.434510 0.276050 0.967426

loop_
_geom_bond_atom_site_label_1
_geom_bond_atom_site_label_2
_ccdc_geom_bond_type
C95   C124  A    
C16   O57   S    
O34   Zn11  S    
C49   O35   A    
C4    C154  A    
C78   C115  A    
C67   C143  S    
C204  H33   S    
C22   O63   S    
C42   O21   A    
C62   N5    A    
C11   O52   S    
C8    O49   S    
C127  C180  A    
C17   C206  A    
C78   C129  A    
O38   Zn13  S    
O43   Zn13  S    
C47   O26   A    
C138  C145  A    
O41   Zn15  S    
C81   C117  A    
O35   Zn1   S    
O29   Zn16  S    
C83   C119  A    
C200  H29   S    
C43   O22   A    
C18   C58   A    
H85   O54   S    
C80   C116  A    
C39   O18   A    
C36   O15   A    
C179  H8    S    
C85   C121  A    
C25   C60   A    
C147  C155  A    
O19   Zn3   S    
C41   O40   A    
O12   Zn9   S    
O28   Zn4   S    
C193  H22   S    
C185  C195  A    
C1    C202  A    
C183  C189  A    
C15   O55   S    
C31   O6    A    
C192  H21   S    
C42   O41   A    
C135  C159  A    
C6    H42   S    
C15   C54   A    
C80   C130  A    
C93   H68   S    
C139  C192  A    
C73   C108  A    
C51   O30   A    
O36   Zn11  S    
C190  H19   S    
C84   H59   S    
O14   Zn8   S    
C39   O42   A    
C71   H46   S    
C102  C114  A    
C145  C157  A    
C131  C184  A    
C75   H50   S    
C91   H65   S    
C25   O65   S    
H83   O52   S    
C48   O33   A    
C46   C168  A    
C178  H7    S    
C162  H1    S    
O12   Zn13  S    
C70   C138  A    
C180  C192  A    
C50   O31   A    
O5    Zn11  S    
C148  C153  A    
C82   C118  A    
C72   H47   S    
O21   Zn5   S    
C32   C53   S    
C33   O8    A    
C97   H72   S    
C63   N4    A    
C70   C105  A    
C3    C187  A    
C127  C156  A    
C22   C58   A    
O42   Zn12  S    
C28   C58   S    
O68   Zn8   S    
C162  C198  A    
C51   O32   A    
C176  C208  A    
C21   O62   S    
C85   C131  A    
C104  C110  A    
C34   O47   A    
C73   C137  A    
C82   H57   S    
O18   Zn4   S    
C77   C141  A    
C19   O60   S    
C28   O3    A    
C100  C111  A    
C185  H15   S    
C71   C106  A    
C182  C190  A    
C113  C157  A    
O1    Zn1   S    
O15   Zn7   S    
C89   C115  A    
C84   C135  A    
C167  H45   S    
C134  C186  A    
C137  C148  A    
C101  C173  A    
C138  C191  A    
C36   C114  S    
C92   C125  A    
O44   Zn10  S    
C125  C160  A    
H95   O64   S    
C33   C52   S    
C23   C59   A    
C142  C149  A    
C7    C187  A    
C130  C183  A    
C65   N9    A    
C49   O28   A    
C132  C200  A    
C26   O68   A    
C91   C116  A    
N3    N8    A    
O37   Zn10  S    
C88   C113  A    
C93   C126  A    
C103  H77   S    
C144  C150  A    
C87   C101  A    
C50   O29   A    
C12   C202  A    
C64   C176  S    
C140  C193  A    
C8    C52   A    
C133  C185  A    
C184  H14   S    
O20   Zn6   S    
C182  H11   S    
C41   C109  S    
C34   O14   A    
O45   Zn4   S    
O1    Zn8   S    
C180  H9    S    
O13   Zn1   S    
C207  H37   S    
C169  C177  A    
C128  C157  A    
C51   C120  S    
C208  H38   S    
C67   N15   A    
O6    Zn10  S    
O2    Zn7   S    
C13   C96   A    
C80   H54   S    
C16   C205  A    
O1    Zn12  S    
O47   Zn1   S    
C19   C59   A    
C44   O24   A    
C77   H52   S    
C10   O51   S    
C7    H43   S    
C18   C207  A    
C151  C159  A    
C65   C112  S    
C37   C105  S    
C47   O37   A    
C79   C153  A    
C73   H48   S    
C168  H56   S    
C88   H63   S    
C165  C207  A    
C17   C56   A    
C82   C128  A    
C124  C177  A    
H86   O55   S    
C134  C158  A    
C2    C99   A    
C81   H55   S    
C63   C187  S    
C19   C208  A    
H96   O65   S    
C164  C172  A    
C9    O50   S    
C88   C118  A    
C163  C173  A    
C70   H44   S    
N10   N15   A    
O8    Zn12  S    
C99   C106  A    
C186  H16   S    
N11   N14   A    
C143  C201  A    
C186  C194  A    
C1    C197  A    
C86   H61   S    
C14   O54   S    
C188  C193  A    
C123  C175  A    
N4    N7    A    
C48   C117  S    
C144  C196  A    
C66   N12   A    
H88   O58   S    
C136  C189  A    
C42   C110  S    
C145  C198  A    
C129  C153  A    
C61   N6    A    
C196  H26   S    
C76   C111  A    
C57   C151  A    
C44   C122  S    
O30   Zn2   S    
C61   C165  S    
C31   C54   S    
C79   C89   A    
C137  C190  A    
C14   C53   A    
C125  C178  A    
C95   H70   S    
C30   O9    A    
C13   C147  A    
C63   N8    A    
C205  H35   S    
C64   N7    A    
C26   C60   S    
H91   O60   S    
C81   C127  A    
C9    C199  A    
C141  C152  A    
C113  C174  A    
C167  C179  A    
C129  C182  A    
C139  C146  A    
C191  H20   S    
O23   Zn14  S    
C89   H64   S    
C189  H18   S    
C85   H60   S    
C197  H27   S    
C201  H30   S    
C29   O67   A    
H81   O50   S    
C150  C160  A    
C68   C102  A    
C87   C117  A    
C35   C103  A    
C87   H62   S    
C74   H49   S    
O34   Zn15  S    
C79   C171  A    
O24   Zn8   S    
C83   C134  A    
O26   Zn6   S    
C68   C170  A    
C75   C110  A    
C86   C122  A    
C142  C195  A    
C20   C60   A    
C126  C161  A    
C43   C121  S    
C98   H73   S    
C40   C108  S    
C94   C123  A    
C27   O2    A    
O39   Zn12  S    
O23   Zn2   S    
C47   C116  S    
C3    H39   S    
C12   C52   A    
C65   N13   A    
C28   O66   A    
C170  C175  A    
C76   H51   S    
C152  C158  A    
C132  C204  A    
N2    N5    A    
C24   C97   A    
C102  H76   S    
H94   O63   S    
C93   C122  A    
C101  C156  A    
C184  C196  A    
C46   C104  A    
O48   Zn9   S    
C24   C166  A    
C68   C152  A    
C5    H41   S    
C17   O58   S    
C86   C133  A    
C84   C120  A    
C32   O11   A    
C126  C179  A    
H84   O53   S    
C140  C151  A    
O7    Zn13  S    
C96   C107  A    
C67   N11   A    
C164  H23   S    
C166  H34   S    
C149  C161  A    
O23   Zn6   S    
C77   C114  A    
O66   Zn6   S    
C11   C55   A    
C13   C164  A    
C62   N16   A    
C96   H71   S    
C177  H6    S    
C83   H58   S    
C206  H36   S    
C48   O27   A    
C10   C200  A    
C2    C163  A    
C21   C56   A    
C29   C56   S    
C95   C120  A    
O32   Zn14  S    
C30   C55   S    
C7    C25   A    
O40   Zn14  S    
C103  C109  A    
O56   Zn3   S    
C199  H28   S    
C173  H3    S    
C181  C191  A    
C40   O19   A    
C90   C91   A    
C143  C205  A    
N6    N16   A    
C100  H75   S    
C44   O39   A    
C32   O7    A    
O46   Zn11  S    
C45   O36   A    
C75   C144  A    
C50   C119  S    
C99   H74   S    
C38   O46   A    
C37   O44   A    
C90   C172  A    
C195  H25   S    
C35   C149  A    
C112  C203  A    
C69   N14   A    
C29   O4    A    
C169  H67   S    
C74   C109  A    
C15   C204  A    
C171  H89   S    
C61   N2    A    
C39   C107  S    
C26   O45   A    
C98   C105  A    
O34   Zn16  S    
O9    Zn15  S    
C40   O43   A    
C174  H4    S    
C175  H5    S    
C172  H2    S    
C38   O17   A    
C66   N1    A    
C72   C136  A    
C124  C159  A    
C30   O5    A    
O16   Zn2   S    
C11   C201  A    
C64   N3    A    
C4    H40   S    
O11   Zn9   S    
C97   C108  A    
C5    C22   A    
C35   C167  A    
C130  C155  A    
C5    C165  A    
H80   O49   S    
C112  C199  A    
O4    Zn16  S    
C183  H13   S    
C163  H12   S    
C74   C142  A    
C43   O38   A    
C20   O61   S    
C34   C111  S    
C33   O13   A    
C8    C197  A    
C170  H78   S    
O12   Zn3   S    
H90   O59   S    
C57   C169  A    
C76   C140  A    
H92   O61   S    
N1    N13   A    
C98   C198  A    
O34   Zn5   S    
C12   O53   S    
C136  C147  A    
C194  H24   S    
C3    C20   A    
O3    Zn2   S    
O31   Zn15  S    
C188  H17   S    
C24   C148  A    
C202  H31   S    
N9    N12   A    
C71   C139  A    
H82   O51   S    
C57   C100  A    
C62   C154  S    
C23   O64   S    
C38   C106  S    
C94   C119  A    
C45   C115  S    
C49   C118  S    
C72   C107  A    
H93   O62   S    
O17   Zn16  S    
C14   C203  A    
C1    C66   S    
C146  C156  A    
C27   O56   A    
O33   Zn9   S    
C203  H32   S    
C154  C206  A    
O22   Zn7   S    
C46   C150  A    
O25   Zn5   S    
C78   H53   S    
C92   H66   S    
C135  C188  A    
C128  C181  A    
O12   Zn7   S    
C69   N10   A    
O10   Zn14  S    
C133  C161  A    
C36   O48   A    
C162  C174  A    
C123  C158  A    
C2    C146  A    
C45   O25   A    
H87   O57   S    
C18   O59   S    
O67   Zn5   S    
C16   C55   A    
C27   C59   S    
C92   C121  A    
C94   H69   S    
C4    C21   A    
C6    C176  A    
C69   C132  S    
C168  C178  A    
C6    C23   A    
C141  C194  A    
O23   Zn10  S    
C131  C160  A    
C10   C54   A    
C37   O16   A    
O1    Zn4   S    
C104  H79   S    
C166  C171  A    
C9    C53   A    
C181  H10   S    
C31   O10   A    
O27   Zn3   S    
C90   C155  A    
C41   O20   A    
