data_mof_unit_60021.cif
_audit_creation_date              2012-12-10T19:58:40-0500
_audit_creation_method            fapswitch 2.2
_symmetry_space_group_name_H-M    P1
_symmetry_Int_Tables_number       1
_space_group_crystal_system       triclinic
_cell_length_a                    38.83769
_cell_length_b                    32.100508
_cell_length_c                    21.643773
_cell_angle_alpha                 90.002008
_cell_angle_beta                  124.318005
_cell_angle_gamma                 90.000139
_cell_volume                      22286.2430733

loop_
_atom_site_label
_atom_site_type_symbol
_atom_type_description
_atom_site_fract_x
_atom_site_fract_y
_atom_site_fract_z
_atom_type_partial_charge
C1    C     C_R   0.919298 0.000004 0.419356 0.902695
C2    C     C_R   0.080701 0.000005 0.580644 0.902636
C3    C     C_R   0.419298 0.500004 0.419356 0.902513
C4    C     C_R   0.580702 0.500005 0.580644 0.902493
C5    C     C_R   0.995472 0.000461 0.681720 -0.107690
C6    C     C_R   0.004528 0.000457 0.318281 -0.107698
C7    C     C_R   0.495471 0.500460 0.681719 -0.107651
C8    C     C_R   0.504529 0.500456 0.318281 -0.107642
C9    C     C_R   0.022993 0.974719 0.741555 -0.204545
C10   C     C_R   0.976999 0.974722 0.258435 -0.204506
C11   C     C_R   0.522993 0.474719 0.741556 -0.204588
C12   C     C_R   0.476998 0.474723 0.258433 -0.204581
C13   C     C_R   0.024678 0.976431 0.806632 -0.204933
C14   C     C_R   0.975315 0.976436 0.193358 -0.204887
C15   C     C_R   0.524677 0.476431 0.806632 -0.205070
C16   C     C_R   0.475314 0.476437 0.193357 -0.205049
C17   C     C_R   0.999060 0.004101 0.812665 -0.107193
C18   C     C_R   0.000941 0.004101 0.187338 -0.107225
C19   C     C_R   0.499059 0.504101 0.812663 -0.107182
C20   C     C_R   0.500941 0.504100 0.187338 -0.107205
C21   C     C_R   0.727951 0.978684 0.182444 -0.181654
C22   C     C_R   0.272058 0.980228 0.819040 -0.181577
C23   C     C_R   0.227935 0.481343 0.179973 -0.181195
C24   C     C_R   0.772067 0.481934 0.820509 -0.181166
C25   C     C_R   0.706588 0.999820 0.207650 0.167285
C26   C     C_R   0.293412 0.999833 0.792377 0.167173
C27   C     C_R   0.206588 0.499844 0.207603 0.167053
C28   C     C_R   0.793412 0.499853 0.792406 0.167023
C29   C     C_R   0.728494 0.020958 0.276083 -0.180738
C30   C     C_R   0.271498 0.019446 0.722491 -0.180768
C31   C     C_R   0.228510 0.518352 0.278452 -0.180930
C32   C     C_R   0.771488 0.517781 0.721085 -0.180945
C33   C     C_R   0.771940 0.020984 0.319450 -0.183001
C34   C     C_R   0.228051 0.019473 0.679125 -0.183151
C35   C     C_R   0.271956 0.518378 0.321819 -0.183208
C36   C     C_R   0.728042 0.517809 0.677718 -0.183269
C37   C     C_R   0.793294 0.999876 0.294193 0.169929
C38   C     C_R   0.206706 0.999892 0.705835 0.169960
C39   C     C_R   0.293295 0.499900 0.294147 0.169938
C40   C     C_R   0.706706 0.499911 0.705862 0.169948
C41   C     C_R   0.771386 0.978711 0.225797 -0.181004
C42   C     C_R   0.228623 0.980257 0.775687 -0.180998
C43   C     C_R   0.271370 0.481371 0.223327 -0.180940
C44   C     C_R   0.728632 0.481963 0.777156 -0.180939
C45   C     C_R   0.998073 0.000046 0.618273 0.872026
C46   C     C_R   0.001926 0.000045 0.381726 0.872035
C47   C     C_R   0.498073 0.500046 0.618274 0.871888
C48   C     C_R   0.501926 0.500045 0.381725 0.871891
C49   C     C_1   0.662150 0.999896 0.163107 -0.070172
C50   C     C_1   0.337850 0.999903 0.836904 -0.070205
C51   C     C_1   0.162150 0.499909 0.163087 -0.070107
C52   C     C_1   0.837850 0.499914 0.836917 -0.070113
C53   C     C_1   0.837726 0.999963 0.338411 -0.070050
C54   C     C_1   0.162274 0.999972 0.661604 -0.070054
C55   C     C_1   0.337726 0.499974 0.338386 -0.069998
C56   C     C_1   0.662274 0.499982 0.661618 -0.070002
C57   C     C_1   0.875041 0.999999 0.375445 -0.184973
C58   C     C_1   0.124958 0.000003 0.624561 -0.184972
C59   C     C_1   0.375042 0.500002 0.375435 -0.184895
C60   C     C_1   0.624958 0.500006 0.624567 -0.184900
C61   C     C_1   0.624827 0.999945 0.125505 -0.175537
C62   C     C_1   0.375173 0.999947 0.874497 -0.175554
C63   C     C_1   0.124827 0.499951 0.125500 -0.175519
C64   C     C_1   0.875173 0.499953 0.874500 -0.175516
C65   C     C_1   0.500000 0.875262 0.999997 -0.158658
C66   C     C_1   0.999999 0.375261 0.999996 -0.158679
C67   C     C_R   0.999999 0.919331 0.999999 0.920877
C68   C     C_R   0.499999 0.419331 0.999999 0.920857
C69   C     C_R   0.999812 0.001838 0.879517 0.872426
C70   C     C_R   0.000188 0.001839 0.120483 0.872429
C71   C     C_R   0.499812 0.501839 0.879517 0.872508
C72   C     C_R   0.500188 0.501839 0.120483 0.872508
C73   C     C_R   0.000001 0.080690 0.000000 0.883125
C74   C     C_R   0.500000 0.580691 0.000001 0.883304
C75   C     C_R   0.500000 0.919504 0.999999 0.888269
C76   C     C_R   1.000000 0.419504 0.999998 0.888418
C77   C     C_R   0.580556 0.999990 0.080732 0.902424
C78   C     C_R   0.419444 0.999990 0.919269 0.902477
C79   C     C_R   0.080556 0.499990 0.080731 0.902627
C80   C     C_R   0.919444 0.499990 0.919269 0.902658
C81   C     C_1   0.000002 0.124922 0.000000 -0.196623
C82   C     C_1   0.500002 0.624923 0.000001 -0.196727
C83   C     C_R   0.500000 0.080564 0.000001 0.901193
C84   C     C_R   0.000000 0.580564 0.000001 0.901289
C85   C     C_R   0.483242 0.227840 0.033187 -0.198621
C86   C     C_R   0.516755 0.227838 0.966815 -0.198626
C87   C     C_R   0.982029 0.727840 0.031029 -0.198631
C88   C     C_R   0.017968 0.727838 0.968973 -0.198629
C89   C     C_R   0.499999 0.206385 0.000002 0.074090
C90   C     C_R   0.999999 0.706384 0.000002 0.074176
C91   C     C_R   0.018225 0.771350 0.968510 0.168197
C92   C     C_R   0.981771 0.771352 0.031489 0.168208
C93   C     C_R   0.516994 0.271351 0.966321 0.168132
C94   C     C_R   0.483001 0.271352 0.033679 0.168138
C95   C     C_R   0.999997 0.793301 0.999999 0.139409
C96   C     C_R   0.499997 0.293301 0.999999 0.139436
C97   C     C_1   0.499999 0.162015 0.000003 -0.038876
C98   C     C_1   0.999999 0.662015 0.000003 -0.038866
C99   C     C_1   0.999998 0.837894 0.999999 -0.036517
C100  C     C_1   0.499997 0.337894 0.999999 -0.036476
C101  C     C_1   0.999998 0.875165 0.999999 -0.198610
C102  C     C_1   0.499998 0.375165 0.999999 -0.198638
C103  C     C_1   0.500000 0.124750 0.000003 -0.178750
C104  C     C_1   1.000000 0.624750 0.000003 -0.178788
C105  C     C_R   0.485202 0.771765 0.933042 0.482885
C106  C     C_R   0.514807 0.771771 0.066961 0.482946
C107  C     C_R   0.989096 0.271765 0.934905 0.482774
C108  C     C_R   0.010906 0.271768 0.065088 0.482718
C109  C     C_R   0.937989 0.052159 0.623556 -0.174016
C110  C     C_R   0.062026 0.052141 0.376470 -0.174110
C111  C     C_R   0.437986 0.552156 0.623551 -0.174272
C112  C     C_R   0.562031 0.552134 0.376475 -0.174300
C113  C     C_R   0.500003 0.793433 0.000000 -0.098715
C114  C     C_R   0.000001 0.293430 0.999996 -0.098640
C115  C     C_R   0.010020 0.228183 0.064181 -0.286000
C116  C     C_R   0.989987 0.228179 0.935818 -0.286089
C117  C     C_R   0.513927 0.728186 0.066200 -0.285819
C118  C     C_R   0.486083 0.728181 0.933803 -0.285733
C119  C     C_R   0.000004 0.206628 0.000001 0.019567
C120  C     C_R   0.500006 0.706630 0.000002 0.019549
C121  C     C_1   0.500001 0.837966 0.999997 0.087580
C122  C     C_1   0.999999 0.337964 0.999995 0.087733
C123  C     C_1   0.000004 0.162217 0.000001 0.004697
C124  C     C_1   0.500004 0.662218 0.000002 0.004728
C125  C     C_R   0.913479 0.080833 0.630696 -0.137668
C126  C     C_R   0.086546 0.080808 0.369345 -0.137748
C127  C     C_R   0.413473 0.580827 0.630688 -0.137399
C128  C     C_R   0.586555 0.580799 0.369353 -0.137416
C129  C     C_R   0.918649 0.086030 0.699239 -0.138181
C130  C     C_R   0.081379 0.086007 0.300804 -0.138228
C131  C     C_R   0.418641 0.586024 0.699230 -0.137773
C132  C     C_R   0.581388 0.585999 0.300813 -0.137816
C133  C     C_R   0.947312 0.061536 0.760235 -0.174508
C134  C     C_R   0.052708 0.061523 0.239796 -0.174505
C135  C     C_R   0.447306 0.561533 0.760228 -0.174527
C136  C     C_R   0.552714 0.561518 0.239802 -0.174523
C137  C     C_R   0.971421 0.031175 0.753392 0.099586
C138  C     C_R   0.028589 0.031167 0.246624 0.099597
C139  C     C_R   0.471418 0.531173 0.753388 0.099591
C140  C     C_R   0.528591 0.531164 0.246627 0.099600
C141  C     C_R   0.968336 0.028061 0.685551 0.099671
C142  C     C_R   0.031673 0.028050 0.314463 0.099668
C143  C     C_R   0.468334 0.528059 0.685548 0.099656
C144  C     C_R   0.531675 0.528047 0.314465 0.099649
H1    H     H_    0.043751 0.953684 0.738264 0.159143
H2    H     H_    0.956236 0.953693 0.261717 0.159134
H3    H     H_    0.543751 0.453685 0.738266 0.159183
H4    H     H_    0.456233 0.453695 0.261715 0.159167
H5    H     H_    0.788837 0.037403 0.372415 0.138885
H6    H     H_    0.211147 0.034707 0.625029 0.138960
H7    H     H_    0.288866 0.532755 0.376665 0.139021
H8    H     H_    0.711131 0.531735 0.622505 0.139052
H9    H     H_    0.470318 0.210643 0.058778 0.158439
H10   H     H_    0.529679 0.210640 0.941225 0.158443
H11   H     H_    0.968169 0.710643 0.054956 0.158348
H12   H     H_    0.031828 0.710640 0.945047 0.158354
H13   H     H_    0.982739 0.211260 0.886495 0.168449
H14   H     H_    0.017272 0.211269 0.113509 0.168502
H15   H     H_    0.475789 0.711267 0.882815 0.168255
H16   H     H_    0.524215 0.711273 0.117183 0.168207
H17   H     H_    0.932446 0.048804 0.568941 0.149499
H18   H     H_    0.067568 0.048784 0.431082 0.149509
H19   H     H_    0.432443 0.548801 0.568937 0.149568
H20   H     H_    0.567572 0.548776 0.431086 0.149559
H21   H     H_    0.890618 0.099302 0.583007 0.136513
H22   H     H_    0.109414 0.099270 0.417043 0.136632
H23   H     H_    0.390611 0.599294 0.582998 0.136903
H24   H     H_    0.609425 0.599258 0.417053 0.136945
H25   H     H_    0.900172 0.108904 0.705058 0.136074
H26   H     H_    0.099864 0.108876 0.294997 0.136090
H27   H     H_    0.400162 0.608896 0.705047 0.136119
H28   H     H_    0.599875 0.608866 0.295008 0.136109
H29   H     H_    0.950642 0.067112 0.812604 0.150368
H30   H     H_    0.049380 0.067101 0.187430 0.150380
H31   H     H_    0.450635 0.567109 0.812596 0.150339
H32   H     H_    0.549385 0.567097 0.187437 0.150348
H33   H     H_    0.045696 0.955674 0.852220 0.158915
H34   H     H_    0.954290 0.955686 0.147760 0.158935
H35   H     H_    0.545696 0.455676 0.852221 0.158926
H36   H     H_    0.454288 0.455687 0.147758 0.158939
H37   H     H_    0.787848 0.962336 0.206098 0.141189
H38   H     H_    0.212167 0.965066 0.796513 0.141153
H39   H     H_    0.287820 0.467036 0.201755 0.141199
H40   H     H_    0.712183 0.468078 0.799094 0.141187
H41   H     H_    0.711064 0.962292 0.129453 0.142917
H42   H     H_    0.288951 0.965020 0.873158 0.143018
H43   H     H_    0.211036 0.466993 0.125109 0.143284
H44   H     H_    0.788967 0.468033 0.875740 0.143310
H45   H     H_    0.712026 0.037366 0.295737 0.141890
H46   H     H_    0.287959 0.034666 0.701705 0.141983
H47   H     H_    0.212054 0.532715 0.299988 0.141980
H48   H     H_    0.787943 0.531693 0.699181 0.142008
O1    O     O_R   0.939010 0.034430 0.439030 -0.621387
O2    O     O_R   0.060990 0.034430 0.560970 -0.621350
O3    O     O_R   0.439010 0.534430 0.439030 -0.621279
O4    O     O_R   0.560990 0.534430 0.560970 -0.621267
O5    O     O_R   0.560990 0.000040 0.112660 -0.615491
O6    O     O_R   0.439010 0.000040 0.887340 -0.615536
O7    O     O_R   0.060990 0.500040 0.112660 -0.615918
O8    O     O_R   0.939010 0.500040 0.887340 -0.615928
O9    O     O_R   0.561000 0.999980 0.009230 -0.614603
O10   O     O_R   0.439000 0.999980 0.990770 -0.614655
O11   O     O_R   0.061000 0.499980 0.009230 -0.614438
O12   O     O_R   0.939000 0.499980 0.990770 -0.614455
O13   O     O_R   0.499990 0.061030 0.051640 -0.616130
O14   O     O_R   0.500010 0.061030 0.948360 -0.616101
O15   O     O_R   0.999990 0.561030 0.051640 -0.616129
O16   O     O_R   0.000010 0.561030 0.948360 -0.616115
O17   O     O_R   0.939020 0.965580 0.438990 -0.614387
O18   O     O_R   0.060980 0.965580 0.561010 -0.614341
O19   O     O_R   0.439020 0.465580 0.438990 -0.614292
O20   O     O_R   0.560980 0.465580 0.561010 -0.614274
O21   O     O_R   0.999990 0.034430 0.591600 -0.622994
O22   O     O_R   0.000010 0.034430 0.408400 -0.622950
O23   O     O_R   0.499990 0.534430 0.591600 -0.622895
O24   O     O_R   0.500010 0.534430 0.408400 -0.622871
O25   O     O_R   0.000000 0.965580 0.591570 -0.620106
O26   O     O_R   0.000000 0.965580 0.408430 -0.620136
O27   O     O_R   0.500000 0.465580 0.591570 -0.620115
O28   O     O_R   0.500000 0.465580 0.408430 -0.620130
O29   O     O_R   0.034430 0.939010 0.034360 -0.612776
O30   O     O_R   0.965570 0.939010 0.965640 -0.612756
O31   O     O_R   0.534430 0.439010 0.034360 -0.612734
O32   O     O_R   0.465570 0.439010 0.965640 -0.612722
O33   O     O_R   0.034440 0.999990 0.942790 -0.619148
O34   O     O_R   0.965560 0.999990 0.057210 -0.619114
O35   O     O_R   0.534440 0.499990 0.942790 -0.619141
O36   O     O_R   0.465560 0.499990 0.057210 -0.619127
O37   O     O_R   0.965580 0.000000 0.873950 -0.624933
O38   O     O_R   0.034420 0.000000 0.126050 -0.624972
O39   O     O_R   0.465580 0.500000 0.873950 -0.625034
O40   O     O_R   0.534420 0.500000 0.126050 -0.625054
O41   O     O_R   0.034440 0.060980 0.034440 -0.622175
O42   O     O_R   0.965560 0.060980 0.965560 -0.622151
O43   O     O_R   0.534440 0.560980 0.034440 -0.622298
O44   O     O_R   0.465560 0.560980 0.965560 -0.622282
O45   O     O_R   0.500010 0.939050 0.051750 -0.608770
O46   O     O_R   0.499990 0.939050 0.948250 -0.608808
O47   O     O_R   0.000010 0.439050 0.051750 -0.608835
O48   O     O_R   0.999990 0.439050 0.948250 -0.608838
Zn1   Zn    Zn3+2 0.000000 0.045980 0.500000 0.961756
Zn2   Zn    Zn3+2 0.500000 0.545980 0.500000 0.962278
Zn3   Zn    Zn3+2 0.000000 0.954030 0.500000 0.963313
Zn4   Zn    Zn3+2 0.500000 0.454030 0.500000 0.963559
Zn5   Zn    Zn3+2 0.045980 0.999990 0.045940 0.961615
Zn6   Zn    Zn3+2 0.954020 0.999990 0.954060 0.961732
Zn7   Zn    Zn3+2 0.545980 0.499990 0.045940 0.961314
Zn8   Zn    Zn3+2 0.454020 0.499990 0.954060 0.961374
Zn9   Zn    Zn3+2 0.500000 0.000050 0.069040 0.976617
Zn10  Zn    Zn3+2 0.500000 0.000050 0.930960 0.976618
Zn11  Zn    Zn3+2 0.000000 0.500050 0.069040 0.976092
Zn12  Zn    Zn3+2 0.000000 0.500050 0.930960 0.976102
C145  C     C_3   0.961796 0.792633 0.066009 -0.909619
H49   H     H_    0.962801 0.827085 0.064340 0.247951
H50   H     H_    0.928590 0.783103 0.035705 0.243420
H51   H     H_    0.978082 0.783073 0.125483 0.243013
C146  C     C_3   0.038199 0.792629 0.933989 -0.909601
H52   H     H_    0.037192 0.827082 0.935655 0.247948
H53   H     H_    0.071405 0.783102 0.964294 0.243415
H54   H     H_    0.021913 0.783066 0.874516 0.243026
C147  C     C_3   0.464374 0.292633 0.070596 -0.909515
H55   H     H_    0.465313 0.327085 0.068807 0.247813
H56   H     H_    0.431270 0.283103 0.042174 0.243389
H57   H     H_    0.481700 0.283075 0.130221 0.243123
C148  C     C_3   0.535620 0.292630 0.929402 -0.909505
H58   H     H_    0.534681 0.327082 0.931188 0.247811
H59   H     H_    0.568725 0.283102 0.957825 0.243376
H60   H     H_    0.518295 0.283067 0.869778 0.243139
O49   O     O_3   0.472485 0.793292 0.868139 -0.588762
C149  C     C_3   0.428571 0.792664 0.821235 -0.300204
H61   H     H_    0.414614 0.806597 0.849476 0.157174
H62   H     H_    0.416569 0.760509 0.801897 0.156129
H63   H     H_    0.418324 0.811749 0.770934 0.197328
O50   O     O_3   0.527511 0.793308 0.131853 -0.588745
C150  C     C_3   0.571421 0.792597 0.178875 -0.300168
H64   H     H_    0.585461 0.806423 0.150704 0.157075
H65   H     H_    0.583346 0.760432 0.198304 0.156135
H66   H     H_    0.581657 0.811737 0.229117 0.197338
O51   O     O_3   0.980273 0.293305 0.872211 -0.588785
C151  C     C_3   0.936827 0.292463 0.818493 -0.299449
H67   H     H_    0.919667 0.306157 0.841008 0.157119
H68   H     H_    0.925633 0.260277 0.797768 0.155989
H69   H     H_    0.929559 0.311654 0.769906 0.197256
O52   O     O_3   0.019723 0.293308 0.127781 -0.588765
C152  C     C_3   0.063179 0.292552 0.181431 -0.299459
H70   H     H_    0.080274 0.306335 0.158860 0.157127
H71   H     H_    0.074452 0.260379 0.202124 0.155982
H72   H     H_    0.070436 0.311708 0.230051 0.197279

loop_
_geom_bond_atom_site_label_1
_geom_bond_atom_site_label_2
_ccdc_geom_bond_type
C18   C70   S    
C23   H43   S    
C48   O24   A    
C67   C101  S    
C17   C69   S    
C46   O26   A    
O2    Zn1   S    
C55   C59   T    
O42   Zn6   S    
O23   Zn2   S    
C45   O25   A    
C14   C18   A    
C19   C71   S    
C150  H64   S    
C106  O50   S    
C151  H69   S    
C133  C137  A    
C136  C140  A    
C107  O51   S    
C119  C123  S    
O17   Zn3   S    
C7    C143  A    
C76   O48   A    
C110  H18   S    
C22   C26   A    
C63   C79   S    
C42   H38   S    
C135  C139  A    
O28   Zn4   S    
C131  H27   S    
C83   C103  S    
C81   C123  T    
C76   O47   A    
C32   C36   A    
C108  C115  A    
C105  C113  A    
O52   C152  S    
C150  H65   S    
C151  H68   S    
O18   Zn3   S    
C38   C42   A    
C83   O14   A    
C15   H35   S    
C26   C50   S    
C54   C58   T    
C145  H49   S    
C95   C99   S    
C93   C148  S    
C126  C130  A    
C108  C114  A    
C80   O8    A    
C31   H47   S    
C152  H71   S    
C23   C43   A    
O27   Zn4   S    
C32   H48   S    
C112  C144  A    
C18   C138  A    
O50   C150  S    
O16   Zn12  S    
C73   C81   S    
C10   C14   A    
C67   O29   A    
C9    C13   A    
C137  C141  A    
C98   C104  T    
O10   Zn9   S    
C15   C19   A    
O12   Zn11  S    
C11   C15   A    
O32   Zn8   S    
C39   C55   S    
C125  H21   S    
C12   C16   A    
C29   C33   A    
C61   C77   S    
C46   O22   A    
C47   O23   A    
C22   C42   A    
C24   C44   A    
C45   O21   A    
O51   C151  S    
C66   C122  T    
C77   O5    A    
C68   C102  S    
C65   C121  T    
C8    C12   A    
C6    C142  A    
O39   Zn8   S    
C6    C46   S    
C148  H58   S    
C44   H40   S    
C40   C44   A    
C73   O41   A    
O49   C149  S    
C108  O52   S    
C132  C136  A    
C37   C53   S    
C92   C145  S    
C30   H46   S    
C84   O15   A    
C87   C92   A    
O46   Zn10  S    
C117  H16   S    
O33   Zn5   S    
C64   C80   S    
C149  H63   S    
O45   Zn9   S    
C118  H15   S    
C130  C134  A    
C35   H7    S    
C74   C82   S    
C47   O27   A    
C128  C132  A    
O21   Zn1   S    
C82   C124  T    
C147  H56   S    
C27   C51   S    
O34   Zn6   S    
C118  C120  A    
C25   C29   A    
C112  H20   S    
C2    O18   A    
C83   O13   A    
C49   C61   T    
C30   C34   A    
C106  C113  A    
O47   Zn11  S    
C140  C144  A    
C36   C40   A    
C150  H66   S    
C111  H19   S    
C151  H67   S    
C14   H34   S    
C138  C142  A    
C117  C120  A    
C145  H50   S    
C85   C89   A    
C69   O37   A    
C36   H8    S    
C39   C43   A    
C136  H32   S    
C115  H14   S    
C3    O19   A    
C40   C56   S    
C1    O17   A    
C11   H3    S    
C92   C95   A    
C3    O3    A    
C56   C60   T    
C115  C119  A    
C89   C97   S    
C146  H53   S    
C135  H31   S    
O5    Zn9   S    
C22   H42   S    
C67   O30   A    
C7    C11   A    
C8    C48   S    
O25   Zn3   S    
C107  C114  A    
C5    C9    A    
C152  H70   S    
C91   C146  S    
C86   C93   A    
C1    C57   S    
C145  H51   S    
C110  C142  A    
C85   C94   A    
C84   O16   A    
C131  C135  A    
C5    C141  A    
O44   Zn8   S    
C38   C54   S    
C88   C91   A    
C28   C32   A    
C16   C20   A    
C43   H39   S    
C66   C76   S    
O35   Zn7   S    
C4    C60   S    
C100  C102  T    
C51   C63   T    
C139  C143  A    
C8    C144  A    
C85   H9    S    
O26   Zn3   S    
C94   C96   A    
O6    Zn10  S    
C148  H59   S    
C84   C104  S    
C73   O42   A    
C97   C103  T    
O38   Zn5   S    
C110  C126  A    
C21   C41   A    
O37   Zn6   S    
C109  C125  A    
C99   C101  T    
O3    Zn2   S    
C70   O34   A    
O48   Zn12  S    
C93   C96   A    
C23   C27   A    
O22   Zn1   S    
C27   C31   A    
C52   C64   T    
C50   C62   T    
C29   H45   S    
C105  C118  A    
C75   O45   A    
C68   O31   A    
C74   O44   A    
C10   H2    S    
C88   H12   S    
C146  H52   S    
O41   Zn5   S    
O1    Zn1   S    
O43   Zn7   S    
C24   C28   A    
C33   C37   A    
C48   O28   A    
C129  H25   S    
C106  C117  A    
C4    O4    A    
C21   C25   A    
C68   O32   A    
O7    Zn11  S    
C53   C57   T    
C129  C133  A    
C134  H30   S    
C79   O7    A    
C34   C38   A    
C71   O35   A    
O19   Zn4   S    
C62   C78   S    
C105  O49   S    
C78   O10   A    
C88   C90   A    
C126  H22   S    
C86   C89   A    
C69   O33   A    
C134  C138  A    
C147  H57   S    
C17   C137  A    
C2    C58   S    
C21   H41   S    
O36   Zn8   S    
C87   H11   S    
C111  C143  A    
C152  H72   S    
C78   O6    A    
C96   C100  S    
C79   O11   A    
C4    O20   A    
C116  C119  A    
C13   C17   A    
C24   H44   S    
C146  H54   S    
O31   Zn7   S    
C12   H4    S    
C127  C131  A    
C77   O9    A    
C86   H10   S    
C116  H13   S    
O20   Zn4   S    
C33   H5    S    
O8    Zn12  S    
C111  C127  A    
C28   C52   S    
O24   Zn2   S    
C20   C140  A    
C147  H55   S    
C133  H29   S    
C130  H26   S    
C13   H33   S    
C35   C39   A    
O29   Zn5   S    
C31   C35   A    
C9    H1    S    
C75   O46   A    
C149  H62   S    
C72   O40   A    
C34   H6    S    
C37   C41   A    
C120  C124  S    
O14   Zn10  S    
C148  H60   S    
C25   C49   S    
C107  C116  A    
C112  C128  A    
C41   H37   S    
O13   Zn9   S    
C6    C10   A    
C91   C95   A    
C5    C45   S    
C114  C122  S    
C125  C129  A    
C70   O38   A    
O11   Zn12  S    
C94   C147  S    
C113  C121  S    
C127  H23   S    
O9    Zn10  S    
C72   O36   A    
C87   C90   A    
O4    Zn2   S    
C128  H24   S    
C71   O39   A    
C1    O1    A    
C20   C72   S    
O40   Zn7   S    
C109  C141  A    
O30   Zn6   S    
C132  H28   S    
C2    O2    A    
C74   O43   A    
C80   O12   A    
O15   Zn11  S    
C90   C98   S    
C19   C139  A    
C149  H61   S    
C65   C75   S    
C16   H36   S    
C7    C47   S    
C109  H17   S    
C26   C30   A    
C3    C59   S    
