data_mof_unit_55327.cif
_audit_creation_date              2012-12-10T17:31:09-0500
_audit_creation_method            fapswitch 2.2
_symmetry_space_group_name_H-M    P1
_symmetry_Int_Tables_number       1
_space_group_crystal_system       triclinic
_cell_length_a                    12.185279
_cell_length_b                    12.773404
_cell_length_c                    15.473465
_cell_angle_alpha                 83.482266
_cell_angle_beta                  115.202395
_cell_angle_gamma                 95.016476
_cell_volume                      2163.01405044

loop_
_atom_site_label
_atom_site_type_symbol
_atom_type_description
_atom_site_fract_x
_atom_site_fract_y
_atom_site_fract_z
_atom_type_partial_charge
C1    C     C_R   0.476622 0.299792 0.498954 0.884880
C2    C     C_R   0.523331 0.700224 0.500896 0.883758
C3    C     C_R   0.630324 0.416668 0.114378 -0.260070
C4    C     C_R   0.346966 0.441748 0.891258 -0.283312
C5    C     C_R   0.718732 0.410702 0.080419 0.453120
C6    C     C_R   0.258896 0.448917 0.925488 0.404190
C7    C     C_R   0.539701 0.811958 0.503772 -0.054406
C8    C     C_R   0.460203 0.188124 0.495573 -0.055632
C9    C     C_R   0.340851 0.036631 0.421470 -0.185598
C10   C     C_R   0.659258 0.963651 0.577234 -0.185353
C11   C     C_R   0.349104 0.142893 0.434794 -0.112015
C12   C     C_R   0.651019 0.857382 0.563969 -0.118221
C13   C     C_R   0.562272 0.128265 0.545022 -0.262142
C14   C     C_R   0.437622 0.871793 0.454242 -0.264037
C15   C     C_R   0.555785 0.023125 0.530742 0.171169
C16   C     C_R   0.444221 0.977055 0.468199 0.169395
C17   C     C_R   0.045667 0.633909 0.464999 -0.177012
C18   C     C_R   0.952217 0.365304 0.531708 -0.100272
C19   C     C_R   0.152632 0.616216 0.457629 -0.063792
C20   C     C_R   0.846428 0.383358 0.540823 -0.002080
C21   C     C_R   0.143662 0.437850 0.519439 0.490054
C22   C     C_R   0.855276 0.561669 0.479123 0.518181
C23   C     C_R   0.575587 0.494271 0.680016 0.888109
C24   C     C_R   0.424152 0.503513 0.320229 0.895529
C25   C     C_R   0.023731 0.449709 0.511788 -0.074937
C26   C     C_R   0.974549 0.549542 0.485486 -0.072872
C27   C     C_R   0.619452 0.478817 0.784133 -0.091053
C28   C     C_R   0.376566 0.493246 0.217626 -0.090316
C29   C     C_R   0.773324 0.432552 0.942788 -0.075935
C30   C     C_R   0.212031 0.469196 0.062715 -0.073727
C31   C     C_R   0.739277 0.454665 0.844633 -0.172527
C32   C     C_R   0.252216 0.485128 0.159245 -0.184991
C33   C     C_R   0.534786 0.480097 0.822043 -0.158542
C34   C     C_R   0.459535 0.482587 0.179875 -0.183365
C35   C     C_R   0.563452 0.449120 0.918103 0.060758
C36   C     C_R   0.421975 0.457737 0.085978 0.059685
C37   C     C_R   0.686566 0.430146 0.981239 -0.010310
C38   C     C_R   0.296091 0.458213 0.023934 0.014609
C39   C     C_R   0.472615 0.443339 0.952789 0.012414
C40   C     C_R   0.508750 0.439381 0.051929 -0.001723
H1    H     H_    0.798345 0.317463 0.561430 0.156519
H2    H     H_    0.200824 0.682116 0.437126 0.164503
H3    H     H_    0.021877 0.715040 0.456160 0.225746
H4    H     H_    0.975345 0.284116 0.539542 0.215388
H5    H     H_    0.554675 0.496846 0.224352 0.195826
H6    H     H_    0.445983 0.507930 0.775438 0.169967
H7    H     H_    0.186364 0.491392 0.187975 0.217106
H8    H     H_    0.806392 0.452997 0.816288 0.227987
H9    H     H_    0.867506 0.417004 0.987243 0.216092
H10   H     H_    0.115170 0.464760 0.019956 0.213511
H11   H     H_    0.657349 0.399788 0.190360 0.205214
H12   H     H_    0.315207 0.431427 0.816113 0.216650
H13   H     H_    0.352042 0.835402 0.407210 0.152789
H14   H     H_    0.647782 0.164557 0.592287 0.156618
H15   H     H_    0.729337 0.809943 0.603798 0.191135
H16   H     H_    0.270966 0.190448 0.394653 0.193936
H17   H     H_    0.255127 0.001727 0.373435 0.164070
H18   H     H_    0.745060 0.998638 0.625062 0.163606
N1    N     N_R   0.799120 0.480200 0.517090 -0.156743
N2    N     N_R   0.200880 0.519800 0.482910 -0.151758
O1    O     O_R   0.580150 0.341050 0.504560 -0.648997
O2    O     O_R   0.419850 0.658950 0.495440 -0.647799
O3    O     O_R   0.388090 0.353760 0.493600 -0.537177
O4    O     O_R   0.611910 0.646240 0.506400 -0.538161
O5    O     O_R   0.650890 0.490020 0.640860 -0.612222
O6    O     O_R   0.349110 0.509980 0.359140 -0.621043
O7    O     O_R   0.458830 0.502730 0.629890 -0.563632
O8    O     O_R   0.541170 0.497270 0.370110 -0.562381
Zn1   Zn    Zn3+2 0.628240 0.491510 0.507320 1.036137
Zn2   Zn    Zn3+2 0.371760 0.508490 0.492680 1.020603
S1    S     S_3+6 0.869367 0.385345 0.165253 0.009861
O9    O     O_2   0.911577 0.290517 0.140538 -0.294173
O10   O     O_2   0.950845 0.479566 0.161799 -0.331135
O11   O     O_3   0.877001 0.362681 0.276915 -0.557589
H19   H     H_    0.964141 0.353119 0.318862 0.387020
S2    S     S_3+6 0.104451 0.453660 0.841631 0.012076
O12   O     O_2   0.035762 0.357069 0.860747 -0.274078
O13   O     O_2   0.049447 0.549904 0.851692 -0.337802
O14   O     O_3   0.091539 0.457804 0.728849 -0.518823
H20   H     H_    0.119364 0.530346 0.714978 0.347522
S3    S     S_3+6 0.781031 0.679898 0.411080 0.037746
O15   O     O_2   0.815360 0.765003 0.478677 -0.330744
O16   O     O_2   0.825810 0.714476 0.335069 -0.298138
O17   O     O_3   0.630008 0.672379 0.350453 -0.534452
H21   H     H_    0.606489 0.745707 0.324977 0.373418
S4    S     S_3+6 0.217303 0.319080 0.586601 0.029996
O18   O     O_2   0.170546 0.281565 0.660916 -0.276273
O19   O     O_2   0.185567 0.235576 0.517794 -0.334700
O20   O     O_3   0.367960 0.327828 0.649076 -0.538159
H22   H     H_    0.391972 0.254771 0.675280 0.373324

loop_
_geom_bond_atom_site_label_1
_geom_bond_atom_site_label_2
_ccdc_geom_bond_type
C8    C13   A    
C5    C37   A    
C1    C8    S    
C2    C7    S    
S2    O14   S    
S3    O15   D    
C29   H9    S    
C27   C33   A    
O2    Zn2   S    
C4    H12   S    
C17   C26   A    
C35   C37   A    
C9    C16   A    
S2    O13   D    
C10   C15   A    
S4    O19   D    
C15   C16   A    
C30   C38   A    
C23   O7    A    
C36   C40   A    
C17   C19   A    
C7    C14   A    
O8    Zn1   S    
C6    C38   A    
C23   C27   S    
C9    H17   S    
C19   H2    S    
C24   O6    A    
C30   H10   S    
C28   C34   A    
C33   H6    S    
C18   C25   A    
C1    O3    A    
S3    O16   D    
C2    O4    A    
C20   H1    S    
C7    C12   A    
O11   H19   S    
O3    Zn2   S    
C27   C31   A    
C22   S3    S    
C28   C32   A    
S2    O12   D    
C21   N2    A    
C4    C6    A    
C22   N1    A    
S1    O10   D    
C3    H11   S    
S4    O18   D    
C25   C26   A    
C35   C39   A    
C17   H3    S    
C18   H4    S    
C4    C39   A    
N2    Zn2   S    
C34   H5    S    
O4    Zn1   S    
O17   H21   S    
C20   N1    A    
C9    C11   A    
C10   C12   A    
N1    Zn1   S    
C3    C40   A    
C31   H8    S    
C13   C15   A    
C32   H7    S    
C14   C16   A    
C39   C40   A    
S3    O17   S    
C13   H14   S    
O1    Zn1   S    
C21   C25   A    
C21   S4    S    
C10   H18   S    
C24   C28   S    
C3    C5    A    
S4    O20   S    
C1    O1    A    
S1    O11   S    
C6    S2    S    
C19   N2    A    
O7    Zn2   S    
C23   O5    A    
C36   C38   A    
S1    O9    D    
C5    S1    S    
C30   C32   A    
O6    Zn2   S    
C8    C11   A    
O5    Zn1   S    
C33   C35   A    
C34   C36   A    
C18   C20   A    
C12   H15   S    
C24   O8    A    
O14   H20   S    
C14   H13   S    
C29   C31   A    
C22   C26   A    
C29   C37   A    
O20   H22   S    
C11   H16   S    
C2    O2    A    
