data_mof_unit_20319.cif
_audit_creation_date              2012-12-10T16:50:04-0500
_audit_creation_method            fapswitch 2.2
_symmetry_space_group_name_H-M    P1
_symmetry_Int_Tables_number       1
_space_group_crystal_system       triclinic
_cell_length_a                    7.788381
_cell_length_b                    8.569995
_cell_length_c                    10.655508
_cell_angle_alpha                 92.047265
_cell_angle_beta                  82.475854
_cell_angle_gamma                 94.197025
_cell_volume                      702.956237471

loop_
_atom_site_label
_atom_site_type_symbol
_atom_type_description
_atom_site_fract_x
_atom_site_fract_y
_atom_site_fract_z
_atom_type_partial_charge
C1    C     C_R   0.546189 0.794956 0.496734 0.947832
C2    C     C_R   0.362853 0.583168 0.957943 0.050484
C3    C     C_R   0.478496 0.490171 0.876560 -0.100596
C4    C     C_R   0.601792 0.407044 0.924703 -0.118375
C5    C     C_R   0.615214 0.417255 0.051494 -0.203020
C6    C     C_R   0.516759 0.521859 0.127672 -0.110463
C7    C     C_2   0.570353 0.958642 0.494515 -0.380603
C8    C     C_2   0.429620 0.041281 0.504544 -0.381420
C9    C     C_R   0.494251 0.496964 0.741225 0.887259
C10   C     C_R   0.453805 0.205023 0.503015 0.968497
C11   C     C_R   0.505078 0.507528 0.260342 0.864092
C12   C     C_R   0.204175 0.639298 0.929242 -0.106724
C13   C     C_R   0.137918 0.769847 0.998584 -0.218636
C14   C     C_R   0.211355 0.828963 0.103972 -0.122347
C15   C     C_R   0.339763 0.749709 0.147913 -0.158093
C16   C     C_R   0.408539 0.620403 0.078197 0.087608
H1    H     H_    0.685700 0.332060 0.864313 0.192278
H2    H     H_    0.989237 0.632695 0.582396 0.213713
H3    H     H_    0.019797 0.818322 0.979866 0.147175
H4    H     H_    0.157802 0.927330 0.158226 0.143803
H5    H     H_    0.385029 0.789437 0.236261 0.139138
H6    H     H_    0.700750 0.342718 0.090245 0.169206
H7    H     H_    0.702937 0.010579 0.484890 0.180715
H8    H     H_    0.297038 0.989325 0.514057 0.178410
H9    H     H_    0.012429 0.372402 0.411476 0.187804
N1    N     N_2   0.950330 0.457950 0.466250 -0.163325
N2    N     N_2   0.049670 0.542050 0.533750 -0.147479
O1    O     O_R   0.389250 0.738570 0.508280 -0.628538
O2    O     O_R   0.678390 0.711630 0.486650 -0.630570
O3    O     O_R   0.355400 0.513470 0.694050 -0.618803
O4    O     O_R   0.644540 0.486530 0.672420 -0.577782
O5    O     O_R   0.321610 0.288370 0.513350 -0.617696
O6    O     O_R   0.610750 0.261430 0.491720 -0.618776
O7    O     O_R   0.355460 0.513470 0.327580 -0.626088
O8    O     O_R   0.644600 0.486530 0.305950 -0.622256
Zn1   Zn    Zn3+2 0.306930 0.517990 0.514440 0.964086
Zn2   Zn    Zn3+2 0.693070 0.482010 0.485560 0.964410
C17   C     C_2   0.077930 0.536268 0.864984 0.980360
O9    O     O_2   0.086258 0.394417 0.864121 -0.596908
O10   O     O_R   0.942709 0.596226 0.811684 -0.798783
H10   H     H_    0.955881 0.713479 0.801092 0.280412

loop_
_geom_bond_atom_site_label_1
_geom_bond_atom_site_label_2
_ccdc_geom_bond_type
C1    O1    A    
N1    Zn2   S    
C3    C9    S    
C10   O5    A    
N2    Zn1   S    
C2    C16   A    
O3    Zn1   S    
C2    C12   A    
C1    O2    A    
C2    C3    A    
C7    C8    D    
C5    H6    S    
C13   C14   A    
C17   O10   S    
N1    N2    D    
C17   O9    D    
C9    O3    A    
C7    H7    S    
C4    H1    S    
O5    Zn1   S    
C11   O8    A    
O10   H10   S    
O8    Zn2   S    
C10   O6    A    
O7    Zn1   S    
C12   C17   S    
C5    C6    A    
C13   H3    S    
C6    C16   A    
C15   C16   A    
C14   H4    S    
C15   H5    S    
C12   C13   A    
O1    Zn1   S    
C8    C10   S    
O2    Zn2   S    
C6    C11   S    
C9    O4    A    
C14   C15   A    
C8    H8    S    
H9    N1    S    
C1    C7    S    
C11   O7    A    
O6    Zn2   S    
H2    N2    S    
C3    C4    A    
O4    Zn2   S    
C4    C5    A    
