data_mof_unit_17999.cif
_audit_creation_date              2012-12-10T18:29:33-0500
_audit_creation_method            fapswitch 2.2
_symmetry_space_group_name_H-M    P1
_symmetry_Int_Tables_number       1
_space_group_crystal_system       triclinic
_cell_length_a                    11.543864
_cell_length_b                    14.945862
_cell_length_c                    15.465226
_cell_angle_alpha                 81.173724
_cell_angle_beta                  89.585516
_cell_angle_gamma                 104.777903
_cell_volume                      2546.44418126

loop_
_atom_site_label
_atom_site_type_symbol
_atom_type_description
_atom_site_fract_x
_atom_site_fract_y
_atom_site_fract_z
_atom_type_partial_charge
C1    C     C_R   0.482490 0.440582 0.662495 0.885112
C2    C     C_R   0.498387 0.676273 0.973829 0.397245
C3    C     C_R   0.690801 0.843751 0.627843 -0.301336
C4    C     C_R   0.299183 0.151720 0.382897 -0.323051
C5    C     C_R   0.659886 0.755587 0.603877 0.058780
C6    C     C_R   0.343747 0.244515 0.393018 0.042724
C7    C     C_R   0.498546 0.790480 0.523820 -0.068839
C8    C     C_R   0.487009 0.205426 0.490514 -0.038720
C9    C     C_R   0.524173 0.881154 0.546379 -0.005051
C10   C     C_R   0.445765 0.109577 0.483771 -0.018662
C11   C     C_R   0.622900 0.907802 0.600056 0.115039
C12   C     C_R   0.514647 0.559215 0.337710 0.890800
C13   C     C_R   0.346920 0.082443 0.430353 0.110487
C14   C     C_R   0.459224 0.946846 0.513208 0.060022
C15   C     C_R   0.499728 0.040932 0.527721 0.056026
C16   C     C_R   0.718111 0.501181 0.500116 0.900994
C17   C     C_R   0.281880 0.498778 0.500012 0.882275
C18   C     C_R   0.592976 0.063551 0.585528 -0.273933
C19   C     C_R   0.354794 0.921015 0.466225 -0.293241
C20   C     C_R   0.653753 0.998586 0.622211 -0.005903
C21   C     C_R   0.297991 0.986937 0.425764 0.003011
C22   C     C_1   0.839292 0.502869 0.500702 -0.188768
C23   C     C_R   0.403692 0.345459 0.935737 -0.065482
C24   C     C_1   0.160690 0.497017 0.499744 -0.200313
C25   C     C_1   0.941095 0.501440 0.500581 -0.005968
C26   C     C_1   0.058886 0.498430 0.500062 -0.011828
C27   C     C_R   0.460499 0.402474 0.756051 -0.187374
C28   C     C_R   0.513317 0.595971 0.244576 -0.196347
C29   C     C_R   0.387017 0.278503 0.879089 -0.274391
C30   C     C_R   0.562788 0.716386 0.116458 -0.276343
C31   C     C_R   0.409516 0.306668 0.788157 0.467476
C32   C     C_R   0.565557 0.689959 0.207307 0.459696
C33   C     C_R   0.482159 0.467051 0.813668 -0.246250
C34   C     C_R   0.512464 0.649409 0.063186 -0.103384
C35   C     C_R   0.457450 0.532230 0.191496 -0.240140
C36   C     C_R   0.441260 0.441909 0.900967 0.036002
C37   C     C_R   0.471648 0.553785 0.100830 0.054792
C38   C     C_3   0.256152 0.194412 0.105279 0.114773
C39   C     C_3   0.231508 0.091482 0.145195 -0.825165
C40   C     C_3   0.428819 0.807363 0.950641 0.101198
C41   C     C_3   0.454040 0.907011 0.901224 -0.811056
C42   C     C_3   0.555145 0.816056 0.270241 0.110483
C43   C     C_3   0.627787 0.893925 0.315699 -0.835170
C44   C     C_3   0.275729 0.184208 0.739312 0.093014
C45   C     C_R   0.447209 0.510833 0.955437 -0.187782
C46   C     C_3   0.251313 0.135769 0.659219 -0.792165
C47   C     C_3   0.583467 0.354113 0.161988 0.145407
C48   C     C_3   0.614869 0.310937 0.251405 -0.799542
C49   C     C_3   0.310563 0.609239 0.823100 0.093610
C50   C     C_3   0.285119 0.656694 0.733646 -0.782486
C51   C     C_R   0.751116 0.029754 0.681902 0.111740
C52   C     C_R   0.845762 0.109526 0.653418 -0.151264
C53   C     C_R   0.935024 0.141371 0.710248 -0.144072
C54   C     C_R   0.930978 0.093796 0.795825 -0.125180
C55   C     C_R   0.837013 0.014625 0.824879 -0.124228
C56   C     C_R   0.446705 0.482817 0.047194 -0.159338
C57   C     C_R   0.747041 0.982911 0.768399 -0.161748
C58   C     C_R   0.184579 0.952314 0.382349 0.124853
C59   C     C_R   0.182165 0.898475 0.315119 -0.170541
C60   C     C_R   0.074391 0.863083 0.276512 -0.141462
C61   C     C_R   0.968276 0.880472 0.305148 -0.102959
C62   C     C_R   0.969684 0.933129 0.372597 -0.144897
C63   C     C_R   0.077221 0.968652 0.411378 -0.165184
C64   C     C_R   0.431183 0.385412 0.080789 0.348673
C65   C     C_R   0.458016 0.607465 0.921140 0.384978
C66   C     C_R   0.393047 0.317503 0.026503 0.360070
H1    H     H_    0.619863 0.131458 0.605394 0.156527
H2    H     H_    0.711377 0.705840 0.625478 0.134069
H3    H     H_    0.768851 0.861266 0.666252 0.156225
H4    H     H_    0.226985 0.134985 0.339093 0.159061
H5    H     H_    0.185149 0.202668 0.058538 0.113028
H6    H     H_    0.251262 0.234913 0.159365 0.163000
H7    H     H_    0.301013 0.081254 0.192281 0.265937
H8    H     H_    0.142149 0.068129 0.180462 0.214332
H9    H     H_    0.232559 0.048276 0.092959 0.246379
H10   H     H_    0.415007 0.809458 0.021491 0.119851
H11   H     H_    0.344501 0.765867 0.926777 0.137937
H12   H     H_    0.311952 0.848748 0.462562 0.148485
H13   H     H_    0.461625 0.906715 0.829643 0.258050
H14   H     H_    0.379516 0.938149 0.914918 0.204051
H15   H     H_    0.538867 0.950613 0.922282 0.254485
H16   H     H_    0.473366 0.778002 0.312207 0.139750
H17   H     H_    0.527669 0.849450 0.206998 0.118667
H18   H     H_    0.705440 0.937009 0.272285 0.241298
H19   H     H_    0.570797 0.939661 0.331044 0.215405
H20   H     H_    0.661576 0.863596 0.377424 0.263946
H21   H     H_    0.209162 0.226175 0.743119 0.116229
H22   H     H_    0.263048 0.128975 0.798114 0.135194
H23   H     H_    0.401478 0.465361 0.222205 0.219384
H24   H     H_    0.159090 0.088767 0.665385 0.204619
H25   H     H_    0.259829 0.188809 0.599184 0.260798
H26   H     H_    0.316163 0.093163 0.653492 0.258811
H27   H     H_    0.641654 0.426968 0.145619 0.137783
H28   H     H_    0.602895 0.311552 0.113142 0.155369
H29   H     H_    0.556570 0.238655 0.270154 0.263271
H30   H     H_    0.709965 0.307980 0.249330 0.191082
H31   H     H_    0.602479 0.353974 0.301381 0.278845
H32   H     H_    0.257186 0.629014 0.873836 0.104806
H33   H     H_    0.280058 0.532157 0.824953 0.148572
H34   H     H_    0.533742 0.537754 0.789799 0.231466
H35   H     H_    0.335394 0.636603 0.681520 0.278611
H36   H     H_    0.187709 0.634713 0.722624 0.196068
H37   H     H_    0.313147 0.734087 0.729931 0.254035
H38   H     H_    0.850286 0.147074 0.587230 0.127955
H39   H     H_    0.007169 0.203070 0.687810 0.129490
H40   H     H_    0.000431 0.118423 0.839657 0.110970
H41   H     H_    0.833612 0.977995 0.891274 0.139401
H42   H     H_    0.674566 0.921763 0.791872 0.180849
H43   H     H_    0.263746 0.884351 0.292445 0.118885
H44   H     H_    0.073131 0.822083 0.224439 0.129839
H45   H     H_    0.358934 0.204489 0.905373 0.183083
H46   H     H_    0.884951 0.852838 0.275293 0.173499
H47   H     H_    0.887401 0.946071 0.395184 0.138622
H48   H     H_    0.076829 0.008359 0.464344 0.135011
H49   H     H_    0.602322 0.788770 0.087766 0.184441
H50   H     H_    0.558599 0.232888 0.530810 0.146028
H51   H     H_    0.429262 0.765359 0.480764 0.130443
H52   H     H_    0.303835 0.297640 0.359894 0.141012
N1    N     N_R   0.566020 0.731700 0.552730 -0.101039
N2    N     N_R   0.433980 0.268300 0.447270 -0.112030
O1    O     O_R   0.466720 0.383110 0.605620 -0.554992
O2    O     O_3   0.526729 0.769934 0.935957 -0.591151
O3    O     O_3   0.625870 0.754140 0.257850 -0.605851
O4    O     O_3   0.394790 0.241257 0.731658 -0.591862
O5    O     O_3   0.461201 0.354449 0.164510 -0.620147
O6    O     O_3   0.434980 0.638041 0.835340 -0.589277
O7    O     O_R   0.533280 0.616890 0.394380 -0.573695
O8    O     O_R   0.509090 0.531900 0.639510 -0.622637
O9    O     O_R   0.490910 0.468100 0.360490 -0.623718
O10   O     O_R   0.644370 0.425610 0.483050 -0.622052
O11   O     O_R   0.355630 0.574390 0.516950 -0.626818
O12   O     O_R   0.686740 0.574390 0.516930 -0.612973
O13   O     O_R   0.313260 0.425610 0.483070 -0.621279
O14   O     O_3   0.370398 0.223333 0.061405 -0.596309
Zn1   Zn    Zn3+2 0.471710 0.400660 0.477370 0.943794
Zn2   Zn    Zn3+2 0.528290 0.599340 0.522630 0.947365

loop_
_geom_bond_atom_site_label_1
_geom_bond_atom_site_label_2
_ccdc_geom_bond_type
C15   C18   A    
C30   C32   A    
C48   H29   S    
C17   O11   A    
C34   C37   A    
C7    H51   S    
O10   Zn1   S    
C42   H16   S    
C1    O8    A    
C2    C65   A    
C41   H14   S    
C4    H4    S    
C12   O7    A    
C53   C54   A    
C27   C33   A    
C49   O6    S    
C12   C28   S    
C23   C29   A    
C23   C66   A    
C19   C21   A    
C24   C26   T    
C31   O4    S    
C20   C51   S    
C10   C15   A    
O8    Zn2   S    
C38   C39   S    
C46   H26   S    
C23   C36   A    
C33   C36   A    
C39   H8    S    
C4    C13   A    
C49   H32   S    
O9    Zn1   S    
C37   C56   A    
C45   C56   A    
C22   C25   T    
C56   C64   A    
C51   C57   A    
C39   H9    S    
C44   H21   S    
C16   O10   A    
C2    C34   A    
C38   O14   S    
C50   H37   S    
C66   O14   S    
C43   H18   S    
C63   H48   S    
C32   O3    S    
C38   H5    S    
C5    H2    S    
C6    N2    A    
C25   C26   S    
C44   C46   S    
C42   O3    S    
C47   O5    S    
C30   H49   S    
C2    O2    S    
C38   H6    S    
C11   C20   A    
C17   C24   S    
C12   O9    A    
C30   C34   A    
C27   C31   A    
C51   C52   A    
C43   H19   S    
C7    N1    A    
C28   C32   A    
C60   H44   S    
O7    Zn2   S    
C28   C35   A    
C62   H47   S    
C4    C6    A    
O11   Zn2   S    
C54   H40   S    
C46   H25   S    
C18   H1    S    
C44   O4    S    
C40   H10   S    
C55   H41   S    
C60   C61   A    
C64   C66   A    
C19   H12   S    
C9    C14   A    
C62   C63   A    
C48   H31   S    
C49   H33   S    
C47   C48   S    
O12   Zn2   S    
C41   H15   S    
C47   H27   S    
C13   C21   A    
C36   C45   A    
O1    Zn1   S    
C9    C11   A    
C35   H23   S    
C40   C41   S    
C5    N1    A    
C49   C50   S    
C55   C57   A    
C17   O13   A    
C42   C43   S    
C52   C53   A    
C8    N2    A    
C1    C27   S    
C35   C37   A    
C58   C63   A    
C7    C9    A    
C54   C55   A    
C52   H38   S    
C16   C22   S    
C48   H30   S    
C3    H3    S    
C14   C15   A    
C43   H20   S    
C14   C19   A    
C29   H45   S    
C42   H17   S    
C3    C5    A    
C10   C13   A    
C41   H13   S    
C50   H36   S    
C46   H24   S    
C40   O2    S    
N1    Zn2   S    
N2    Zn1   S    
C65   O6    S    
C33   H34   S    
C58   C59   A    
C21   C58   S    
C29   C31   A    
C45   C65   A    
C59   H43   S    
C47   H28   S    
C18   C20   A    
C39   H7    S    
C61   C62   A    
C16   O12   A    
C1    O1    A    
C3    C11   A    
C8    H50   S    
C53   H39   S    
C59   C60   A    
C57   H42   S    
C50   H35   S    
C8    C10   A    
C64   O5    S    
O13   Zn1   S    
C40   H11   S    
C44   H22   S    
C61   H46   S    
C6    H52   S    
