data_mof_unit_67650.cif
_audit_creation_date              2012-12-10T19:42:13-0500
_audit_creation_method            fapswitch 2.2
_symmetry_space_group_name_H-M    P1
_symmetry_Int_Tables_number       1
_space_group_crystal_system       triclinic
_cell_length_a                    11.054642
_cell_length_b                    11.000615
_cell_length_c                    10.127987
_cell_angle_alpha                 90.64549
_cell_angle_beta                  91.872962
_cell_angle_gamma                 89.397351
_cell_volume                      1230.84322809

loop_
_atom_site_label
_atom_site_type_symbol
_atom_type_description
_atom_site_fract_x
_atom_site_fract_y
_atom_site_fract_z
_atom_type_partial_charge
C1    C     C_R   0.497884 0.267622 0.499183 0.785847
C2    C     C_R   0.844574 0.500530 0.971446 -0.115662
C3    C     C_R   0.820160 0.374934 0.986367 0.415470
C4    C     C_R   0.262723 0.508203 0.498316 0.784328
C5    C     C_R   0.843245 0.292538 0.881676 -0.168268
C6    C     C_R   0.878608 0.337527 0.759504 0.425740
C7    C     C_R   0.900034 0.462689 0.745568 0.027344
C8    C     C_2   0.513173 0.937414 0.409829 -0.141330
C9    C     C_2   0.550237 0.857082 0.503290 0.273589
C10   C     C_2   0.549415 0.064920 0.421997 0.398340
C11   C     C_2   0.479090 0.137005 0.496008 0.203690
C12   C     C_R   0.158582 0.460533 0.002858 -0.096738
C13   C     C_2   0.476887 0.405566 0.922536 0.589519
C14   C     C_2   0.460224 0.411358 0.074624 -0.016356
C15   C     C_R   0.508352 0.732104 0.500634 0.753498
C16   C     C_R   0.736884 0.504320 0.502389 0.796027
C17   C     C_R   0.163867 0.584905 0.043196 0.343164
C18   C     C_R   0.135282 0.618159 0.172667 -0.056260
C19   C     C_R   0.095605 0.528302 0.256647 0.086504
C20   C     C_R   0.095419 0.406158 0.218944 -0.378892
C21   C     C_R   0.124145 0.369654 0.092190 -0.089443
C22   C     C_2   0.199884 0.430606 0.870883 0.560659
C23   C     C_R   0.926725 0.579535 0.402063 -0.088199
C24   C     C_3   0.821791 0.317257 0.202865 -0.086619
C25   C     C_2   0.828706 0.158674 0.895676 0.339726
C26   C     C_3   0.982852 0.210825 0.622074 -0.316326
C27   C     C_2   0.422144 0.911960 0.303685 0.400759
C28   C     C_3   0.624005 0.952211 0.693166 -0.310275
C29   C     C_3   0.723263 0.023656 0.304620 -0.149441
C30   C     C_3   0.279402 0.143299 0.553484 -0.293115
C31   C     C_3   0.544902 0.215250 0.872873 -0.111106
C32   C     C_3   0.581778 0.681605 0.877671 -0.128171
C33   C     C_2   0.395832 0.310995 0.137547 0.482154
C34   C     C_R   0.871467 0.521861 0.506632 -0.240260
C35   C     C_3   0.278420 0.748112 0.974433 -0.203228
C36   C     C_2   0.144420 0.746054 0.218830 0.463403
C37   C     C_2   0.122077 0.235668 0.065456 0.443057
C38   C     C_2   0.867864 0.695637 0.359180 0.381225
C39   C     C_3   0.128992 0.736437 0.662182 -0.156264
C40   C     C_2   0.885110 0.678763 0.821314 0.414964
C41   C     C_2   0.827607 0.586228 0.081202 0.346583
C42   C     C_R   0.946339 0.505974 0.620822 -0.031689
C43   C     C_R   0.068805 0.540768 0.617287 0.441604
C44   C     C_R   0.127090 0.528835 0.497949 -0.220942
C45   C     C_R   0.052810 0.557072 0.386787 0.066433
C46   C     C_R   0.882304 0.545286 0.849895 -0.136417
Cu1   Cu    Cu3+1 0.500020 0.500020 0.638630 1.005048
Cu2   Cu    Cu3+1 0.499980 0.499980 0.361370 1.017239
H1    H     H_    0.536859 0.572640 0.113209 0.300987
H2    H     H_    0.969615 0.139064 0.545280 0.178045
H3    H     H_    0.334259 0.956631 0.305032 0.108697
H4    H     H_    0.682643 0.923461 0.778364 0.184920
H5    H     H_    0.528110 0.944788 0.722381 0.185615
H6    H     H_    0.646523 0.048051 0.673572 0.182179
H7    H     H_    0.679134 0.966243 0.226341 0.209203
H8    H     H_    0.760813 0.967511 0.386939 0.198302
H9    H     H_    0.801470 0.067665 0.260586 0.193040
H10   H     H_    0.255817 0.154594 0.446450 0.110524
H11   H     H_    0.277124 0.232468 0.605816 0.227585
H12   H     H_    0.071798 0.338488 0.290693 0.127736
H13   H     H_    0.209193 0.085309 0.595444 0.196779
H14   H     H_    0.510585 0.122890 0.851310 0.193610
H15   H     H_    0.586885 0.213039 0.973793 0.220596
H16   H     H_    0.614340 0.236662 0.800773 0.136349
H17   H     H_    0.545755 0.768786 0.840336 0.163516
H18   H     H_    0.645514 0.642013 0.806414 0.180740
H19   H     H_    0.632091 0.703941 0.970641 0.167358
H20   H     H_    0.339886 0.330801 0.220600 0.093174
H21   H     H_    0.343363 0.710876 0.050085 0.214627
H22   H     H_    0.248701 0.840678 0.003967 0.169705
H23   H     H_    0.267266 0.487907 0.831879 0.163247
H24   H     H_    0.324998 0.760764 0.880540 0.216563
H25   H     H_    0.112082 0.819379 0.156016 0.121882
H26   H     H_    0.078897 0.176429 0.134227 0.046880
H27   H     H_    0.770909 0.708521 0.366136 0.127148
H28   H     H_    0.052228 0.763961 0.594524 0.157913
H29   H     H_    0.216067 0.742894 0.611128 0.169772
H30   H     H_    0.130985 0.803817 0.744270 0.212064
H31   H     H_    0.858114 0.710380 0.723479 0.083625
H32   H     H_    0.891764 0.657678 0.101319 0.156165
H33   H     H_    0.890439 0.245210 0.187129 0.121381
H34   H     H_    0.763102 0.288378 0.282552 0.232735
H35   H     H_    0.864598 0.401361 0.238965 0.158963
H36   H     H_    0.839486 0.098514 0.811341 0.122717
H37   H     H_    0.024846 0.166590 0.710875 0.209203
H38   H     H_    0.044581 0.278960 0.581724 0.178562
N1    N     N_2   0.498640 0.498660 0.846910 -0.056713
N2    N     N_2   0.498610 0.498630 0.153040 -0.305771
O1    O     O_R   0.500020 0.321960 0.617040 -0.546119
O2    O     O_3   0.749465 0.337304 0.088521 -0.545329
O3    O     O_2   0.805635 0.112884 0.000868 -0.555488
O4    O     O_3   0.869391 0.263552 0.647815 -0.606597
O5    O     O_2   0.449076 0.850052 0.208330 -0.558760
O6    O     O_3   0.652531 0.879599 0.583027 -0.619662
O7    O     O_3   0.642753 0.114143 0.350568 -0.608505
O8    O     O_3   0.392477 0.085067 0.574140 -0.618837
O9    O     O_3   0.446867 0.297246 0.860198 -0.555164
O10   O     O_3   0.483068 0.607600 0.904713 -0.596925
O11   O     O_2   0.404266 0.205560 0.100429 -0.527002
O12   O     O_R   0.499980 0.321920 0.382900 -0.587624
O13   O     O_3   0.177187 0.673516 0.948568 -0.556826
O14   O     O_2   0.186332 0.770508 0.328815 -0.583239
O15   O     O_2   0.173011 0.187732 0.973228 -0.466014
O16   O     O_2   0.926197 0.782204 0.324792 -0.588312
O17   O     O_3   0.115119 0.618109 0.714033 -0.558349
O18   O     O_2   0.920376 0.754073 0.902612 -0.549270
O19   O     O_2   0.741159 0.578598 0.150840 -0.558033
O20   O     O_R   0.319660 0.500030 0.617070 -0.559199
O21   O     O_R   0.319620 0.499990 0.382930 -0.591127
O22   O     O_R   0.500020 0.678080 0.617100 -0.581691
O23   O     O_R   0.499980 0.678040 0.382960 -0.543616
O24   O     O_R   0.680380 0.500010 0.617070 -0.606745
O25   O     O_R   0.680340 0.499970 0.382930 -0.531373
O26   O     O_2   0.156873 0.349062 0.802901 -0.570731

loop_
_geom_bond_atom_site_label_1
_geom_bond_atom_site_label_2
_ccdc_geom_bond_type
C11   O8    S    
C37   H26   S    
C23   C45   A    
C17   O13   S    
C19   C20   A    
C34   C42   A    
C4    O21   A    
C16   O25   A    
C41   H32   S    
C2    C46   A    
C40   C46   S    
C4    O20   A    
C3    O2    S    
C39   H29   S    
C40   O18   D    
C24   H35   S    
C26   H2    S    
C5    C6    A    
C2    C41   S    
C26   O4    S    
Cu1   O24   S    
C12   C22   S    
C28   O6    S    
C18   C19   A    
C43   O17   S    
C7    C42   S    
C24   H34   S    
C38   O16   D    
C16   C34   S    
C35   H22   S    
C8    C9    D    
C1    C11   S    
C12   C17   A    
C25   H36   S    
C30   O8    S    
Cu2   N2    S    
C20   H12   S    
N1    O10   S    
Cu2   O21   S    
C13   C14   S    
Cu1   O1    S    
C15   O22   A    
C14   C33   S    
C1    O12   A    
C27   H3    S    
C38   H27   S    
Cu2   O12   S    
C25   O3    D    
C7    C46   A    
C31   H15   S    
C36   H25   S    
C29   O7    S    
C28   H6    S    
C4    C44   S    
C3    C5    A    
C12   C21   A    
C33   O11   D    
Cu1   N1    S    
C24   H33   S    
C39   H30   S    
C15   O23   A    
Cu1   Cu2   S    
C26   H38   S    
C23   C34   A    
C30   H11   S    
C13   N1    D    
C17   C18   A    
C40   H31   S    
C39   H28   S    
C31   H14   S    
C32   H19   S    
C5    C25   S    
C29   H9    S    
C35   H24   S    
C43   C44   A    
C27   O5    D    
C42   C43   A    
C23   C38   S    
C22   H23   S    
C44   C45   A    
C16   O24   A    
C32   H18   S    
C39   O17   S    
C1    O1    A    
C41   O19   D    
C31   H16   S    
H1    N2    S    
C35   O13   S    
C24   O2    S    
C37   O15   D    
C28   H5    S    
C19   C45   S    
C6    C7    A    
C29   H8    S    
Cu1   O22   S    
C29   H7    S    
C2    C3    A    
C9    C15   S    
C14   N2    D    
C28   H4    S    
C10   O7    S    
C26   H37   S    
C6    O4    S    
C30   H10   S    
C36   O14   D    
C32   O10   S    
C31   O9    S    
C13   O9    S    
C10   C11   D    
C22   O26   D    
Cu2   O23   S    
C21   C37   S    
C20   C21   A    
C35   H21   S    
C8    C10   S    
Cu1   O20   S    
C30   H13   S    
C8    C27   S    
C32   H17   S    
C18   C36   S    
C9    O6    S    
C33   H20   S    
Cu2   O25   S    
