data_mof_unit_54118.cif
_audit_creation_date              2012-10-26T20:08:12-0400
_audit_creation_method            fapswitch 2.2
_symmetry_space_group_name_H-M    P1
_symmetry_Int_Tables_number       1
_space_group_crystal_system       triclinic
_cell_length_a                    11.021144
_cell_length_b                    10.793117
_cell_length_c                    9.691839
_cell_angle_alpha                 89.215243
_cell_angle_beta                  90.843948
_cell_angle_gamma                 93.011441
_cell_volume                      1151.05511409

loop_
_atom_site_label
_atom_site_type_symbol
_atom_type_description
_atom_site_fract_x
_atom_site_fract_y
_atom_site_fract_z
_atom_type_partial_charge
C1    C     C_R   0.495735 0.263175 0.500447 0.574102
C2    C     C_R   0.588085 0.070527 0.568016 0.110069
C3    C     C_R   0.495989 0.871920 0.497803 0.027196
C4    C     C_R   0.493393 0.129536 0.501197 0.025135
C5    C     C_R   0.466257 0.396081 0.076223 0.033419
C6    C     C_R   0.541983 0.601253 0.924423 -0.002911
C7    C     C_R   0.468534 0.393965 0.928980 0.256329
C8    C     C_R   0.541575 0.602444 0.071978 0.212256
C9    C     C_R   0.262578 0.504152 0.498539 0.532426
C10   C     C_R   0.737491 0.499273 0.501581 0.537982
C11   C     C_R   0.147777 0.723818 0.115900 -0.024798
C12   C     C_R   0.497469 0.737166 0.499153 0.568227
C13   C     C_R   0.850709 0.660705 0.966253 -0.088196
C14   C     C_R   0.088598 0.666717 0.227130 0.101585
C15   C     C_R   0.864106 0.583459 0.852861 0.105697
C16   C     C_R   0.095210 0.536966 0.247958 0.054881
C17   C     C_R   0.889262 0.636760 0.721434 0.034134
C18   C     C_R   0.139486 0.465235 0.143807 -0.069593
C19   C     C_R   0.904839 0.766513 0.709613 -0.103015
C20   C     C_R   0.190507 0.522751 0.026282 0.116332
C21   C     C_R   0.896298 0.843291 0.824148 0.160394
C22   C     C_R   0.208288 0.653831 0.021995 0.119913
C23   C     C_R   0.871865 0.499599 0.505262 -0.027522
C24   C     C_R   0.866648 0.790450 0.952812 0.111349
C25   C     C_R   0.933862 0.451377 0.392215 0.054115
C26   C     C_R   0.069770 0.574335 0.599757 0.034379
C27   C     C_R   0.128229 0.512463 0.495989 -0.007545
C28   C     C_R   0.941885 0.563388 0.609891 -0.020085
C29   C     C_R   0.058231 0.478274 0.379476 0.012255
C30   C     C_R   0.399762 0.060690 0.431437 0.047664
C31   C     C_R   0.589222 0.941732 0.565781 0.049963
C32   C     C_R   0.402334 0.931302 0.428851 0.103214
Cu1   Cu    Cu3+1 0.500000 0.500020 0.640660 0.955609
Cu2   Cu    Cu3+1 0.500000 0.499980 0.359340 0.958940
H1    H     H_    0.134879 0.365036 0.154847 0.121704
H2    H     H_    0.608721 0.783294 0.070694 0.184986
H3    H     H_    0.148927 0.823801 0.103783 0.155624
H4    H     H_    0.833035 0.619039 0.066456 0.120317
H5    H     H_    0.934667 0.703141 0.327565 0.220719
H6    H     H_    0.065196 0.745694 0.412840 0.253882
H7    H     H_    0.943453 0.418453 0.846215 0.227195
H8    H     H_    0.791964 0.410074 0.815408 0.275168
H9    H     H_    0.156712 0.464315 0.832927 0.239166
H10   H     H_    0.205006 0.354778 0.936932 0.198845
H11   H     H_    0.998852 0.998481 0.866795 0.247566
H12   H     H_    0.932634 0.807571 0.611601 0.135432
H13   H     H_    0.936067 0.000384 0.708374 0.225943
H14   H     H_    0.826112 0.445186 0.219052 0.262458
H15   H     H_    0.812492 0.316036 0.323969 0.254629
H16   H     H_    0.224206 0.690053 0.645326 0.273506
H17   H     H_    0.122294 0.658324 0.775628 0.278499
H18   H     H_    0.260023 0.175655 0.439229 0.230119
H19   H     H_    0.331781 0.175611 0.285316 0.237695
H20   H     H_    0.724517 0.826583 0.550410 0.221937
H21   H     H_    0.659553 0.828543 0.708862 0.249916
H22   H     H_    0.226085 0.883465 0.395214 0.260765
H23   H     H_    0.355551 0.765615 0.978171 0.234710
H24   H     H_    0.313300 0.887093 0.253049 0.248361
H25   H     H_    0.766608 0.123619 0.587407 0.243234
H26   H     H_    0.689922 0.114303 0.737963 0.272841
H27   H     H_    0.437250 0.313231 0.132634 0.098956
H28   H     H_    0.574871 0.682920 0.868251 0.106452
H29   H     H_    0.323869 0.656738 0.858627 0.281871
H30   H     H_    0.836221 0.817589 0.158019 0.222518
H31   H     H_    0.786602 0.927375 0.051079 0.243650
H32   H     H_    0.355701 0.288304 0.806575 0.251994
H33   H     H_    0.420050 0.207000 0.934005 0.182574
H34   H     H_    0.665475 0.690290 0.194141 0.229252
N1    N     N_R   0.500030 0.500030 0.852070 -0.215935
N2    N     N_3   0.919100 0.975220 0.811130 -0.603188
N3    N     N_3   0.872744 0.384171 0.282290 -0.613483
N4    N     N_3   0.133218 0.674442 0.671134 -0.649496
N5    N     N_3   0.299462 0.119717 0.366859 -0.642164
N6    N     N_3   0.690205 0.883279 0.625606 -0.632729
N7    N     N_3   0.309578 0.859692 0.356762 -0.593235
N8    N     N_3   0.684956 0.142467 0.634461 -0.591130
N9    N     N_R   0.499970 0.499970 0.147930 -0.218533
N10   N     N_3   0.284921 0.718934 0.923731 -0.655083
N11   N     N_3   0.858487 0.869682 0.069802 -0.599909
N12   N     N_3   0.436544 0.278857 0.862167 -0.568875
N13   N     N_3   0.586074 0.712072 0.141251 -0.579039
N14   N     N_3   0.022599 0.742552 0.316526 -0.645998
N15   N     N_3   0.860849 0.451930 0.876399 -0.625099
N16   N     N_3   0.219710 0.448725 0.911326 -0.630194
O1    O     O_R   0.499990 0.319660 0.618740 -0.448289
O2    O     O_R   0.500010 0.680340 0.381260 -0.442353
O3    O     O_R   0.499990 0.319630 0.381170 -0.530791
O4    O     O_R   0.500010 0.680370 0.618830 -0.540193
O5    O     O_R   0.319650 0.500020 0.618780 -0.506268
O6    O     O_R   0.680350 0.499980 0.381220 -0.522978
O7    O     O_R   0.319640 0.500000 0.381210 -0.493789
O8    O     O_R   0.680360 0.500000 0.618790 -0.497630

loop_
_geom_bond_atom_site_label_1
_geom_bond_atom_site_label_2
_ccdc_geom_bond_type
C1    O3    A    
C6    N1    A    
H31   N11   S    
C27   C29   A    
C26   N4    S    
C9    O7    A    
C32   N7    S    
C19   H12   S    
C26   C27   A    
H34   N13   S    
C19   C21   A    
Cu1   O4    S    
Cu2   N9    S    
C11   C14   A    
H7    N15   S    
Cu2   O2    S    
C11   H3    S    
H16   N4    S    
Cu2   O7    S    
Cu1   O1    S    
C3    C12   S    
H20   N6    S    
H21   N6    S    
H33   N12   S    
C25   N3    S    
C18   H1    S    
Cu1   N1    S    
C10   O8    A    
H22   N7    S    
C1    O1    A    
H9    N16   S    
H24   N7    S    
C25   C29   A    
C12   O4    A    
C8    N13   S    
H6    N14   S    
C22   N10   S    
H18   N5    S    
Cu1   O8    S    
C9    O5    A    
C5    C7    A    
C30   N5    S    
C31   N6    S    
C6    C8    A    
C16   C29   S    
H26   N8    S    
C13   C24   A    
C2    C31   A    
C2    C4    A    
Cu2   O6    S    
H13   N2    S    
Cu1   O5    S    
C24   N11   S    
H2    N13   S    
Cu1   Cu2   S    
C5    H27   S    
C23   C28   A    
C3    C31   A    
C13   H4    S    
C20   C22   A    
C13   C15   A    
C8    N9    A    
H30   N11   S    
C14   C16   A    
H17   N4    S    
C14   N14   S    
H14   N3    S    
C5    N9    A    
C2    N8    S    
C9    C27   S    
C15   C17   A    
H11   N2    S    
C17   C28   S    
H23   N10   S    
H19   N5    S    
H8    N15   S    
H5    N14   S    
H10   N16   S    
C7    N1    A    
C15   N15   S    
C10   C23   S    
H32   N12   S    
C11   C22   A    
C26   C28   A    
C12   O2    A    
C21   N2    S    
C1    C4    S    
C6    H28   S    
C20   N16   S    
C30   C32   A    
C17   C19   A    
C18   C20   A    
Cu2   O3    S    
C23   C25   A    
C3    C32   A    
C10   O6    A    
C16   C18   A    
H15   N3    S    
C21   C24   A    
H25   N8    S    
C4    C30   A    
C7    N12   S    
H29   N10   S    
