data_mof_unit_37916.cif
_audit_creation_date              2013-03-05T16:11:55-0500
_audit_creation_method            fapswitch 2.2
_symmetry_space_group_name_H-M    P1
_symmetry_Int_Tables_number       1
_space_group_crystal_system       triclinic
_cell_length_a                    15.723128
_cell_length_b                    10.622275
_cell_length_c                    9.912664
_cell_angle_alpha                 90.490102
_cell_angle_beta                  89.989753
_cell_angle_gamma                 90.595388
_cell_volume                      1655.4174818

loop_
_atom_site_label
_atom_site_type_symbol
_atom_site_description
_atom_site_fract_x
_atom_site_fract_y
_atom_site_fract_z
_atom_type_partial_charge
O1    O     O_R   0.499990 0.316750 0.614620 -0.569997
O2    O     O_R   0.500010 0.683250 0.385380 -0.569993
O3    O     O_R   0.500000 0.316780 0.385290 -0.603175
O4    O     O_R   0.500000 0.683220 0.614710 -0.603229
C1    C     C_R   0.500816 0.260487 0.499483 0.899692
C2    C     C_R   0.499184 0.739513 0.500517 0.899701
O5    O     O_R   0.376780 0.499970 0.614640 -0.591618
O6    O     O_R   0.623220 0.500030 0.385360 -0.591622
O7    O     O_R   0.376780 0.500000 0.385310 -0.577608
O8    O     O_R   0.623220 0.500000 0.614690 -0.577555
C3    C     C_R   0.338092 0.499084 0.499983 0.887509
C4    C     C_R   0.661907 0.500915 0.500016 0.887513
Zn1   Zn    Zn3+2 0.500000 0.499980 0.653120 1.068304
Zn2   Zn    Zn3+2 0.500000 0.500020 0.346880 1.068309
C5    C     C_3   0.969878 0.390858 0.552314 -0.260441
C6    C     C_3   0.030122 0.609143 0.447686 -0.260446
C7    C     C_3   0.025653 0.404747 0.425883 0.372004
C8    C     C_3   0.974347 0.595254 0.574117 0.372006
H1    H     H_    0.944123 0.301064 0.592714 0.197389
H2    H     H_    0.055877 0.698937 0.407286 0.197389
H3    H     H_    0.947032 0.521111 0.267366 0.207648
H4    H     H_    0.052967 0.478890 0.732634 0.207648
C9    C     C_1   0.249294 0.498486 0.500031 -0.070533
C10   C     C_1   0.750706 0.501513 0.499969 -0.070510
C11   C     C_3   0.028563 0.487194 0.628073 -0.227930
C12   C     C_3   0.971437 0.512807 0.371927 -0.227935
C13   C     C_3   0.083305 0.498691 0.499778 0.012270
C14   C     C_3   0.916695 0.501309 0.500223 0.012268
C15   C     C_1   0.174060 0.498347 0.499973 0.080642
C16   C     C_1   0.825940 0.501653 0.500027 0.080650
C17   C     C_R   0.437643 0.064902 0.428670 -0.197702
C18   C     C_R   0.562352 0.935097 0.571336 -0.197772
H5    H     H_    0.388225 0.116469 0.377555 0.205289
H6    H     H_    0.611769 0.883532 0.622455 0.205299
C19   C     C_R   0.434581 0.935247 0.430025 0.217495
C20   C     C_R   0.565412 0.064753 0.569985 0.217485
C21   C     C_R   0.497758 0.871917 0.501562 -0.059036
C22   C     C_R   0.502239 0.128082 0.498440 -0.059029
C23   C     C_R   0.549021 0.584413 0.072732 0.224836
C24   C     C_R   0.450976 0.415588 0.927271 0.224841
C25   C     C_R   0.548937 0.584472 0.929026 0.225447
C26   C     C_R   0.451081 0.415502 0.070975 0.225481
N1    N     N_R   0.499980 0.499970 0.857200 -0.225064
N2    N     N_R   0.500020 0.500030 0.142800 -0.225070
N3    N     N_R   0.053234 0.298546 0.343352 0.225788
O9    O     O_R   0.996876 0.225545 0.285820 -0.337206
O10   O     O_R   0.133683 0.275759 0.326786 -0.325379
N4    N     N_R   0.946766 0.701455 0.656648 0.225788
O11   O     O_R   0.003124 0.774457 0.714178 -0.337210
O12   O     O_R   0.866317 0.724240 0.673217 -0.325367
N5    N     N_2   0.367807 0.869188 0.361821 -0.287907
H7    H     H_    0.346978 0.913539 0.275948 0.276257
C27   C     C_3   0.297912 0.832262 0.448269 -0.710332
H8    H     H_    0.265312 0.917009 0.488367 0.266125
H9    H     H_    0.320941 0.775082 0.533781 0.226156
H10   H     H_    0.251418 0.774639 0.389537 0.242617
N6    N     N_2   0.632175 0.130813 0.638215 -0.287890
H11   H     H_    0.652992 0.086462 0.724097 0.276267
C28   C     C_3   0.702086 0.167740 0.551796 -0.710294
H12   H     H_    0.734698 0.082992 0.511718 0.266118
H13   H     H_    0.748566 0.225372 0.610546 0.242622
H14   H     H_    0.679068 0.224912 0.466268 0.226145
N7    N     N_R   0.602083 0.672100 0.144221 0.262191
O13   O     O_R   0.681509 0.644918 0.164529 -0.333457
O14   O     O_R   0.577788 0.788184 0.158053 -0.316946
N8    N     N_R   0.397902 0.327918 0.855782 0.262179
O15   O     O_R   0.422192 0.211832 0.841940 -0.316968
O16   O     O_R   0.318477 0.355106 0.835484 -0.333461
N9    N     N_R   0.600144 0.674662 0.859513 0.253353
O17   O     O_R   0.577352 0.792017 0.860456 -0.345776
O18   O     O_R   0.678382 0.647168 0.829799 -0.310910
N10   N     N_R   0.399895 0.325283 0.140483 0.253359
O19   O     O_R   0.422775 0.207985 0.139601 -0.345838
O20   O     O_R   0.321627 0.352667 0.170139 -0.310874

loop_
_geom_bond_atom_site_label_1
_geom_bond_atom_site_label_2
_geom_bond_distance
_ccdc_geom_bond_type
N8    O16   1.300770 A    
H3    C12   1.109820 S    
N7    O14   1.300799 A    
C13   C15   1.427005 S    
C5    C14   1.540550 S    
C23   C25   1.424511 A    
C27   H8    1.111074 S    
O5    C3    1.289108 A    
O1    C1    1.283911 A    
C7    C12   1.536646 S    
C18   C20   1.377763 A    
C25   N9    1.426848 S    
C19   C21   1.401566 A    
C7    N3    1.457462 S    
N6    C28   1.446514 S    
N3    O10   1.300449 A    
C3    C9    1.396140 S    
O4    Zn1   1.986509 S    
N9    O18   1.300462 A    
C24   N1    1.369541 A    
H4    C11   1.109821 S    
C17   H5    1.083626 S    
C6    H2    1.110214 S    
C6    C13   1.540550 S    
N4    O12   1.300449 A    
N8    O15   1.300807 A    
C28   H12   1.111099 S    
C24   N8    1.427776 S    
C1    C22   1.406800 S    
C25   N1    1.371153 A    
O2    C2    1.283911 A    
C8    C11   1.536646 S    
C26   N2    1.371156 A    
C27   H9    1.109962 S    
C6    C12   1.558849 S    
C28   H13   1.110306 S    
N5    H7    1.031486 S    
C7    C13   1.524127 S    
C8    C14   1.524127 S    
N10   O20   1.300505 A    
C20   N6    1.424281 S    
N3    O9    1.300031 A    
N5    C27   1.446499 S    
C18   H6    1.083617 S    
C5    H1    1.110213 S    
O7    Zn2   1.974433 S    
C24   C26   1.424500 A    
O6    C4    1.289107 A    
C26   N10   1.426856 S    
C2    C21   1.406796 S    
C18   C21   1.392269 A    
O7    C3    1.289208 A    
O3    Zn2   1.986510 S    
O8    C4    1.289210 A    
O4    C2    1.284830 A    
N4    O11   1.300032 A    
C19   N5    1.424281 S    
C17   C19   1.377759 A    
O1    Zn1   1.980174 S    
C9    C15   1.182895 T    
Zn1   N1    2.022977 S    
Zn2   N2    2.022977 S    
C27   H10   1.110294 S    
C5    C7    1.536741 S    
C28   H14   1.109980 S    
O6    Zn2   1.974660 S    
N10   O19   1.300416 A    
O3    C1    1.284834 A    
O8    Zn1   1.974432 S    
C8    N4    1.457463 S    
C23   N2    1.369507 A    
C11   C13   1.540506 S    
C23   N7    1.427796 S    
C4    C10   1.396140 S    
C12   C14   1.540506 S    
C17   C22   1.392271 A    
C14   C16   1.427003 S    
N6    H11   1.031499 S    
C20   C22   1.401568 A    
N9    O17   1.300595 A    
O2    Zn2   1.980174 S    
C10   C16   1.182895 T    
C5    C11   1.558849 S    
N7    O13   1.300773 A    
O5    Zn1   1.974663 S    
C6    C8    1.536741 S    
