data_mof_unit_9810.cif
_audit_creation_date              2012-12-10T18:56:23-0500
_audit_creation_method            fapswitch 2.2
_symmetry_space_group_name_H-M    P1
_symmetry_Int_Tables_number       1
_space_group_crystal_system       triclinic
_cell_length_a                    10.804884
_cell_length_b                    9.916826
_cell_length_c                    19.178921
_cell_angle_alpha                 90.48564
_cell_angle_beta                  92.087519
_cell_angle_gamma                 88.705985
_cell_volume                      2053.07655947

loop_
_atom_site_label
_atom_site_type_symbol
_atom_type_description
_atom_site_fract_x
_atom_site_fract_y
_atom_site_fract_z
_atom_type_partial_charge
C1    C     C_R   0.872431 0.495064 0.488769 -0.096490
C2    C     C_R   0.126913 0.504023 0.509108 -0.119464
C3    C     C_R   0.472118 0.412278 0.960312 -0.184874
C4    C     C_R   0.450667 0.651542 0.038083 -0.184574
C5    C     C_R   0.469882 0.406593 0.032333 -0.143952
C6    C     C_R   0.452884 0.657278 0.965868 0.027116
C7    C     C_R   0.460752 0.526233 0.070971 0.015872
C8    C     C_R   0.465255 0.537557 0.927380 0.169015
C9    C     C_R   0.260379 0.501587 0.504640 0.839848
C10   C     C_R   0.739400 0.498299 0.494988 0.916461
C11   C     C_R   0.499948 0.499531 0.366213 0.898438
C12   C     C_R   0.499714 0.500676 0.633778 0.821234
C13   C     C_R   0.066073 0.381242 0.518568 -0.042639
C14   C     C_R   0.933207 0.617132 0.478175 -0.050488
C15   C     C_R   0.940684 0.374531 0.502502 -0.073885
C16   C     C_R   0.058534 0.624257 0.494466 -0.063989
C17   C     C_R   0.374023 0.506073 0.737905 -0.077483
C18   C     C_R   0.599752 0.503439 0.252667 -0.030030
C19   C     C_R   0.371862 0.502520 0.257772 -0.075914
C20   C     C_R   0.600943 0.524312 0.750039 -0.101967
C21   C     C_R   0.364182 0.524502 0.810199 -0.039040
C22   C     C_R   0.589653 0.510934 0.179528 -0.058364
C23   C     C_R   0.361606 0.518287 0.184901 -0.010668
C24   C     C_R   0.591926 0.541427 0.822624 -0.027620
C25   C     C_R   0.473356 0.541818 0.851952 -0.036057
C26   C     C_R   0.470612 0.519832 0.146654 -0.084445
C27   C     C_R   0.573856 0.071185 0.546890 0.027960
C28   C     C_R   0.426424 0.928768 0.452983 0.021417
C29   C     C_R   0.421502 0.072996 0.455375 0.009037
C30   C     C_R   0.578638 0.926959 0.544512 0.003782
C31   C     C_R   0.492136 0.504248 0.708927 -0.139248
C32   C     C_R   0.490747 0.499396 0.290852 -0.163821
H1    H     H_    0.481310 0.319876 0.930207 0.146814
H2    H     H_    0.444172 0.743917 0.068409 0.162466
H3    H     H_    0.478121 0.309889 0.058158 0.166524
H4    H     H_    0.447273 0.754015 0.940002 0.152141
N1    N     N_R   0.500000 0.857200 0.500000 -0.187539
N2    N     N_R   0.500000 0.142800 0.500000 -0.185836
O1    O     O_R   0.316770 0.614620 0.500000 -0.646726
O2    O     O_R   0.683230 0.385380 0.500000 -0.637364
O3    O     O_R   0.683230 0.614620 0.500000 -0.649500
O4    O     O_R   0.316770 0.385380 0.500000 -0.648292
O5    O     O_R   0.500030 0.614710 0.398180 -0.642989
O6    O     O_R   0.499970 0.385290 0.601820 -0.643353
O7    O     O_R   0.499970 0.614710 0.601820 -0.628144
O8    O     O_R   0.500030 0.385290 0.398180 -0.614284
Zn1   Zn    Zn3+2 0.500000 0.653120 0.500000 0.949804
Zn2   Zn    Zn3+2 0.500000 0.346880 0.500000 0.956166
C33   C     C_2   0.640981 0.143923 0.603931 0.524051
H5    H     H_    0.686918 0.236804 0.594561 0.083451
O9    O     O_2   0.643491 0.100990 0.663473 -0.561149
C34   C     C_2   0.360073 0.855913 0.395720 0.537790
H6    H     H_    0.313511 0.763406 0.405064 0.084070
O10   O     O_2   0.358987 0.898262 0.336086 -0.551692
C35   C     C_2   0.322801 0.146760 0.414321 0.539795
H7    H     H_    0.338301 0.242653 0.391260 0.107014
O11   O     O_2   0.219151 0.100875 0.406961 -0.547817
C36   C     C_2   0.677587 0.853108 0.585258 0.544642
H8    H     H_    0.661493 0.758340 0.609432 0.116387
O12   O     O_2   0.781919 0.897714 0.591148 -0.549974
C37   C     C_1   0.128727 0.263067 0.549244 0.252522
N3    N     N_1   0.178089 0.169272 0.573912 -0.151856
C38   C     C_1   0.870060 0.733757 0.446251 0.275522
N4    N     N_1   0.820165 0.826284 0.420631 -0.145293
C39   C     C_1   0.887198 0.241694 0.494771 0.297265
N5    N     N_1   0.846259 0.135388 0.487871 -0.136983
C40   C     C_1   0.111410 0.757361 0.501781 0.276209
N6    N     N_1   0.151754 0.863989 0.508398 -0.140027
C41   C     C_2   0.261702 0.491691 0.691173 0.366799
H9    H     H_    0.264328 0.423767 0.646786 0.070726
O13   O     O_2   0.167470 0.558846 0.700291 -0.528641
C42   C     C_2   0.723882 0.505038 0.288998 0.489074
H10   H     H_    0.794856 0.570564 0.270833 0.113005
O14   O     O_2   0.749201 0.430063 0.337825 -0.561682
C43   C     C_2   0.260279 0.485392 0.300206 0.499149
H11   H     H_    0.256905 0.528001 0.352358 0.009648
O15   O     O_2   0.173525 0.418176 0.278546 -0.490664
C44   C     C_2   0.722501 0.529709 0.715449 0.376896
H12   H     H_    0.737971 0.471050 0.668398 0.052940
O16   O     O_2   0.804211 0.603908 0.737098 -0.510804
C45   C     C_2   0.240684 0.514819 0.842147 0.504256
H13   H     H_    0.172007 0.447336 0.819763 0.098808
O17   O     O_2   0.213278 0.583746 0.892552 -0.544839
C46   C     C_2   0.701982 0.508517 0.136182 0.404232
H14   H     H_    0.700773 0.561295 0.086833 0.128468
O18   O     O_2   0.795121 0.443423 0.153586 -0.509869
C47   C     C_2   0.238835 0.537835 0.147757 0.537219
H15   H     H_    0.223693 0.498631 0.095221 0.082602
O19   O     O_2   0.155404 0.603321 0.174104 -0.495951
C48   C     C_2   0.707082 0.547727 0.867853 0.509534
H16   H     H_    0.789199 0.490091 0.853928 0.107525
O20   O     O_2   0.712470 0.618892 0.920065 -0.557415

loop_
_geom_bond_atom_site_label_1
_geom_bond_atom_site_label_2
_ccdc_geom_bond_type
C35   H7    S    
C17   C41   S    
C47   H15   S    
C45   H13   S    
C9    O4    A    
C7    C26   S    
C28   C29   A    
C46   O18   D    
C44   O16   D    
C3    H1    S    
C27   N2    A    
C36   O12   D    
C15   C39   S    
C30   C36   S    
C9    O1    A    
C10   O2    A    
C23   C26   A    
C41   O13   D    
C2    C13   A    
C20   C24   A    
C33   O9    D    
C29   N2    A    
C11   O5    A    
C1    C15   A    
N1    Zn1   S    
C2    C16   A    
N2    Zn2   S    
C23   C47   S    
C27   C30   A    
C8    C25   S    
C41   H9    S    
C4    C7    A    
C19   C32   A    
C45   O17   D    
C34   O10   D    
C4    H2    S    
O7    Zn1   S    
C18   C42   S    
O8    Zn2   S    
C40   N6    T    
C46   H14   S    
C42   O14   D    
C3    C8    A    
C5    C7    A    
C44   H12   S    
C12   O7    A    
C6    C8    A    
C29   C35   S    
C36   H8    S    
C17   C21   A    
C30   N1    A    
C22   C46   S    
C19   C23   A    
C43   H11   S    
C48   O20   D    
O3    Zn1   S    
C16   C40   S    
O4    Zn2   S    
C24   C25   A    
C43   O15   D    
C4    C6    A    
C21   C45   S    
C11   C32   S    
C33   H5    S    
C13   C15   A    
C12   C31   S    
C17   C31   A    
C14   C16   A    
C18   C32   A    
C34   H6    S    
O1    Zn1   S    
O2    Zn2   S    
C21   C25   A    
C18   C22   A    
C1    C10   S    
C42   H10   S    
C3    C5    A    
C24   C48   S    
C20   C44   S    
C35   O11   D    
C12   O6    A    
C28   C34   S    
C48   H16   S    
C28   N1    A    
C14   C38   S    
C5    H3    S    
C19   C43   S    
C6    H4    S    
C37   N3    T    
C38   N4    T    
C27   C33   S    
C13   C37   S    
C39   N5    T    
C22   C26   A    
C47   O19   D    
C11   O8    A    
C1    C14   A    
C2    C9    S    
O5    Zn1   S    
O6    Zn2   S    
C10   O3    A    
C20   C31   A    
