data_mof_unit_48260.cif
_audit_creation_date              2012-10-26T21:00:47-0400
_audit_creation_method            fapswitch 2.2
_symmetry_space_group_name_H-M    P1
_symmetry_Int_Tables_number       1
_space_group_crystal_system       triclinic
_cell_length_a                    10.780996
_cell_length_b                    9.505182
_cell_length_c                    10.805181
_cell_angle_alpha                 90.470791
_cell_angle_beta                  90.743276
_cell_angle_gamma                 90.116971
_cell_volume                      1107.13137941

loop_
_atom_site_label
_atom_site_type_symbol
_atom_type_description
_atom_site_fract_x
_atom_site_fract_y
_atom_site_fract_z
_atom_type_partial_charge
C1    C     C_R   0.262282 0.499578 0.496373 0.566773
C2    C     C_R   0.511379 0.501484 0.738101 0.551465
C3    C     C_R   0.401047 0.749472 0.107392 0.123323
C4    C     C_R   0.549358 0.768629 0.898154 0.146735
C5    C     C_R   0.422555 0.879801 0.053081 -0.085986
C6    C     C_R   0.502978 0.890158 0.954227 -0.071037
C7    C     C_R   0.512986 0.634109 0.941857 0.024478
C8    C     C_R   0.461282 0.627610 0.060812 0.021555
C9    C     C_R   0.475179 0.500274 0.127088 0.022834
C10   C     C_R   0.522239 0.505801 0.873625 0.007052
C11   C     C_R   0.501332 0.375455 0.062904 -0.122559
C12   C     C_R   0.737750 0.500012 0.495603 0.570550
C13   C     C_R   0.517815 0.377452 0.936330 -0.135823
C14   C     C_R   0.063960 0.420176 0.398540 0.108846
C15   C     C_R   0.933669 0.422847 0.396886 0.106064
C16   C     C_R   0.871597 0.500220 0.489061 0.017064
C17   C     C_R   0.128612 0.498828 0.490088 0.012012
C18   C     C_R   0.937662 0.579852 0.576639 -0.132190
C19   C     C_R   0.065522 0.580167 0.576622 -0.126717
C20   C     C_R   0.426362 0.075179 0.579143 0.034231
C21   C     C_R   0.572991 0.073924 0.420421 0.034740
C22   C     C_R   0.425980 0.926324 0.578984 0.460149
C23   C     C_R   0.573485 0.925173 0.420597 0.462276
C24   C     C_R   0.487856 0.499869 0.262194 0.577619
Cu1   Cu    Cu3+1 0.500000 0.640660 0.500000 1.160191
Cu2   Cu    Cu3+1 0.500000 0.359340 0.500000 0.994166
F1    F     F_    0.351303 0.857320 0.658194 -0.616510
F2    F     F_    0.647853 0.855145 0.341021 -0.592090
H1    H     H_    0.508998 0.275783 0.110320 0.153309
H2    H     H_    0.528322 0.278095 0.887783 0.143498
H3    H     H_    0.378571 0.973702 0.088938 0.146172
H4    H     H_    0.528660 0.993024 0.920572 0.129947
H5    H     H_    0.890292 0.639907 0.646667 0.170000
H6    H     H_    0.115549 0.641356 0.646212 0.181088
H7    H     H_    0.367452 0.132015 0.642479 0.154262
H8    H     H_    0.631008 0.129596 0.356464 0.172074
I1    I     I_    0.248104 0.742152 0.228819 -0.245189
I2    I     I_    0.704575 0.802501 0.783173 -0.311777
I3    I     I_    0.162861 0.305368 0.259583 -0.247143
I4    I     I_    0.831024 0.323219 0.249487 -0.246687
N1    N     N_R   0.500000 0.852070 0.500000 -0.210501
N2    N     N_R   0.500000 0.147940 0.500000 -0.309578
O1    O     O_R   0.319640 0.618740 0.499990 -0.444967
O2    O     O_R   0.680360 0.618740 0.500010 -0.442693
O3    O     O_R   0.319620 0.381170 0.499990 -0.494721
O4    O     O_R   0.680380 0.381170 0.500010 -0.497351
O5    O     O_R   0.500000 0.618810 0.319650 -0.441296
O6    O     O_R   0.500000 0.618810 0.680350 -0.445132
O7    O     O_R   0.499970 0.381240 0.319640 -0.508741
O8    O     O_R   0.500030 0.381240 0.680360 -0.523786

loop_
_geom_bond_atom_site_label_1
_geom_bond_atom_site_label_2
_ccdc_geom_bond_type
C7    C10   A    
C6    H4    S    
C19   H6    S    
C9    C24   S    
Cu1   O6    S    
C11   C13   A    
Cu1   O5    S    
C20   N2    A    
C23   N1    A    
Cu1   O1    S    
C21   C23   A    
C14   I3    S    
C7    C8    A    
C12   O2    A    
C21   H8    S    
C23   F2    S    
C11   H1    S    
C9    C11   A    
C14   C17   A    
C1    O3    A    
C4    C7    A    
Cu1   O2    S    
C4    C6    A    
C17   C19   A    
C4    I2    S    
C3    C8    A    
C22   F1    S    
Cu2   O8    S    
Cu2   N2    S    
C5    C6    A    
C18   H5    S    
C15   I4    S    
C22   N1    A    
C15   C16   A    
Cu2   O4    S    
C21   N2    A    
C2    C10   S    
C3    C5    A    
C13   H2    S    
C3    I1    S    
C12   O4    A    
C18   C19   A    
Cu2   O7    S    
Cu1   N1    S    
C24   O7    A    
C14   C15   A    
C20   H7    S    
C2    O8    A    
Cu2   O3    S    
C2    O6    A    
Cu1   Cu2   S    
C24   O5    A    
C1    C17   S    
C1    O1    A    
C16   C18   A    
C12   C16   S    
C20   C22   A    
C8    C9    A    
C5    H3    S    
C10   C13   A    
