data_mof_unit_32738.cif
_audit_creation_date              2013-03-05T15:53:29-0500
_audit_creation_method            fapswitch 2.2
_symmetry_space_group_name_H-M    P1
_symmetry_Int_Tables_number       1
_space_group_crystal_system       triclinic
_cell_length_a                    24.365975
_cell_length_b                    17.158133
_cell_length_c                    15.514019
_cell_angle_alpha                 90.147196
_cell_angle_beta                  128.84161
_cell_angle_gamma                 90.083394
_cell_volume                      5051.79130749

loop_
_atom_site_label
_atom_site_type_symbol
_atom_site_description
_atom_site_fract_x
_atom_site_fract_y
_atom_site_fract_z
_atom_type_partial_charge
C1    C     C_R   0.832309 0.893215 0.197937 -0.190408
C2    C     C_R   0.162762 0.879127 0.789939 -0.199744
C3    C     C_R   0.332265 0.393345 0.197892 -0.199159
C4    C     C_R   0.667566 0.393324 0.801619 -0.189792
H1    H     H_    0.779483 0.895611 0.171526 0.113742
H2    H     H_    0.215519 0.873705 0.816652 0.123233
H3    H     H_    0.279465 0.395716 0.171600 0.111576
H4    H     H_    0.720326 0.395743 0.827749 0.113160
N1    N     N_R   0.888400 0.921830 0.294620 -0.065487
N2    N     N_R   0.111600 0.921830 0.705380 -0.064896
N3    N     N_R   0.388400 0.421830 0.294620 -0.066072
N4    N     N_R   0.611600 0.421830 0.705380 -0.065450
C5    C     C_R   0.083785 0.854010 0.406755 -0.080657
C6    C     C_R   0.914549 0.852994 0.589826 -0.074734
C7    C     C_R   0.583814 0.352807 0.408324 -0.059842
C8    C     C_R   0.416112 0.352872 0.591205 -0.063950
H5    H     H_    0.049160 0.835007 0.322024 0.129041
H6    H     H_    0.948464 0.832241 0.672527 0.124321
H7    H     H_    0.548446 0.332904 0.324204 0.123782
H8    H     H_    0.451529 0.333251 0.675165 0.122037
N5    N     N_R   0.079940 0.922160 0.443410 -0.032349
N6    N     N_R   0.920060 0.922160 0.556590 -0.036695
N7    N     N_R   0.579940 0.422160 0.443410 -0.032757
N8    N     N_R   0.420060 0.422160 0.556590 -0.033652
C9    C     C_R   0.163269 0.856426 0.590199 -0.115922
C10   C     C_R   0.837011 0.856068 0.406684 -0.120462
C11   C     C_R   0.662023 0.355755 0.591994 -0.122704
C12   C     C_R   0.337876 0.355441 0.407561 -0.123387
H9    H     H_    0.207020 0.841997 0.674181 0.093039
H10   H     H_    0.795937 0.841589 0.320946 0.099546
H11   H     H_    0.703056 0.341143 0.677469 0.100057
H12   H     H_    0.296849 0.340495 0.321968 0.100777
N9    N     N_R   0.125650 0.922400 0.556620 -0.049126
N10   N     N_R   0.874350 0.922400 0.443380 -0.049842
N11   N     N_R   0.625650 0.422400 0.556620 -0.050731
N12   N     N_R   0.374350 0.422400 0.443380 -0.052248
C13   C     C_R   0.073351 0.882144 0.794489 0.267745
C14   C     C_R   0.922101 0.896656 0.194409 0.278698
C15   C     C_R   0.577842 0.396632 0.805345 0.276132
C16   C     C_R   0.422098 0.396573 0.194415 0.274301
N13   N     N_R   0.054230 0.922730 0.705400 -0.088688
N14   N     N_R   0.945770 0.922730 0.294600 -0.089914
N15   N     N_R   0.554230 0.422730 0.705400 -0.090409
N16   N     N_R   0.445770 0.422730 0.294600 -0.089920
C17   C     C_R   0.851315 0.876268 0.132598 -0.010430
C18   C     C_R   0.138126 0.848169 0.841936 0.033088
C19   C     C_R   0.351227 0.376404 0.132498 -0.008191
C20   C     C_R   0.648550 0.376227 0.866849 -0.009709
C21   C     C_R   0.136400 0.811517 0.496795 0.027765
C22   C     C_R   0.862351 0.810278 0.498082 0.030829
C23   C     C_R   0.635949 0.309892 0.499676 0.026203
C24   C     C_R   0.363920 0.309697 0.499620 0.029383
C25   C     C_R   0.811101 0.101595 0.408549 -0.066367
C26   C     C_R   0.189029 0.101544 0.591405 -0.067280
C27   C     C_R   0.311678 0.603150 0.407451 -0.031542
C28   C     C_R   0.688902 0.601390 0.590895 -0.068215
H13   H     H_    0.763252 0.092925 0.324971 0.085312
H14   H     H_    0.236913 0.092888 0.674789 0.088035
H15   H     H_    0.264070 0.595827 0.323225 0.072751
H16   H     H_    0.736924 0.592206 0.673957 0.087329
N17   N     N_R   0.873790 0.077030 0.443380 -0.054538
N18   N     N_R   0.126210 0.077030 0.556620 -0.055813
N19   N     N_R   0.373790 0.577030 0.443380 -0.053012
N20   N     N_R   0.626210 0.577030 0.556620 -0.055235
C29   C     C_R   0.941888 0.139785 0.240632 -0.075991
C30   C     C_R   0.057938 0.140353 0.758741 -0.080630
C31   C     C_R   0.425825 0.612475 0.202551 -0.100151
C32   C     C_R   0.557962 0.640369 0.758731 -0.072441
H17   H     H_    0.978865 0.154389 0.226625 0.109230
H18   H     H_    0.020849 0.155140 0.772415 0.107005
H19   H     H_    0.456081 0.612729 0.173278 0.136852
H20   H     H_    0.520877 0.655181 0.772406 0.109815
N21   N     N_R   0.945200 0.076700 0.294600 -0.040359
N22   N     N_R   0.054800 0.076700 0.705400 -0.041146
N23   N     N_R   0.445200 0.576700 0.294600 -0.045252
N24   N     N_R   0.554800 0.576700 0.705400 -0.041028
C33   C     C_R   0.149104 0.141984 0.757157 -0.115076
C34   C     C_R   0.850681 0.141307 0.242183 -0.118592
C35   C     C_R   0.649131 0.641934 0.757135 -0.118492
C36   C     C_R   0.335113 0.613337 0.204786 -0.050019
H21   H     H_    0.196824 0.157023 0.770199 0.150065
H22   H     H_    0.802834 0.156004 0.228808 0.149449
H23   H     H_    0.696826 0.656905 0.770084 0.151692
H24   H     H_    0.282876 0.614937 0.180862 0.104029
N25   N     N_R   0.111030 0.077600 0.705380 -0.055434
N26   N     N_R   0.888970 0.077600 0.294620 -0.056525
N27   N     N_R   0.611030 0.577600 0.705380 -0.056509
N28   N     N_R   0.388970 0.577600 0.294620 -0.057070
C37   C     C_R   0.885060 0.104199 0.591846 -0.111598
C38   C     C_R   0.114896 0.104186 0.408159 -0.102884
C39   C     C_R   0.384907 0.605115 0.591190 -0.093736
C40   C     C_R   0.614092 0.605129 0.407446 -0.083293
H25   H     H_    0.905210 0.100338 0.676647 0.122330
H26   H     H_    0.094526 0.100387 0.323221 0.129680
H27   H     H_    0.404367 0.602090 0.675708 0.127194
H28   H     H_    0.592884 0.602491 0.322002 0.124062
N29   N     N_R   0.919490 0.077280 0.556590 -0.044057
N30   N     N_R   0.080510 0.077280 0.443410 -0.042222
N31   N     N_R   0.419490 0.577280 0.556590 -0.043170
N32   N     N_R   0.580510 0.577280 0.443410 -0.040965
Ni1   Ni    Ni4+2 0.882160 0.999430 0.370180 0.206102
Ni2   Ni    Ni4+2 0.117840 0.999430 0.629820 0.212633
Ni3   Ni    Ni4+2 0.382160 0.499430 0.370180 0.203749
Ni4   Ni    Ni4+2 0.617840 0.499430 0.629820 0.208050
Ni5   Ni    Ni4+2 0.012460 0.999430 0.370180 0.292249
Ni6   Ni    Ni4+2 0.987540 0.999430 0.629820 0.289588
Ni7   Ni    Ni4+2 0.512460 0.499430 0.370180 0.288987
Ni8   Ni    Ni4+2 0.487540 0.499430 0.629820 0.294767
C41   C     C_R   0.816260 0.119967 0.499932 0.075580
C42   C     C_R   0.183827 0.119795 0.500028 0.069994
C43   C     C_R   0.316719 0.621842 0.498338 0.057387
C44   C     C_R   0.683190 0.620145 0.499126 0.066648
C45   C     C_R   0.883712 0.182558 0.208896 0.121163
C46   C     C_R   0.115948 0.183562 0.789998 0.123230
C47   C     C_R   0.356347 0.634979 0.143880 0.105555
C48   C     C_R   0.615984 0.683548 0.789940 0.120983
C49   C     C_R   0.856111 0.700850 0.597855 0.067186
C50   C     C_R   0.146875 0.712854 0.391287 0.067297
C51   C     C_R   0.357123 0.201040 0.599750 0.072612
C52   C     C_R   0.642973 0.200990 0.399550 0.071790
C53   C     C_R   0.835341 0.734347 0.499050 0.098972
C54   C     C_R   0.162931 0.737437 0.491083 0.102968
C55   C     C_R   0.336866 0.233812 0.500933 0.097569
C56   C     C_R   0.663044 0.234138 0.498284 0.099399
C57   C     C_R   0.776659 0.701157 0.399173 -0.176978
C58   C     C_R   0.216370 0.697987 0.588679 -0.178539
C59   C     C_R   0.278343 0.200268 0.401151 -0.173445
C60   C     C_R   0.721429 0.201097 0.598101 -0.175834
H29   H     H_    0.761627 0.719098 0.320209 0.124079
H30   H     H_    0.227103 0.710677 0.666363 0.117382
H31   H     H_    0.263649 0.217677 0.322223 0.124239
H32   H     H_    0.735967 0.218738 0.676988 0.123756
C61   C     C_R   0.230985 0.153813 0.401026 -0.146101
C62   C     C_R   0.768851 0.154777 0.598435 -0.149360
C63   C     C_R   0.729561 0.654411 0.399232 -0.147810
C64   C     C_R   0.263902 0.651292 0.589956 -0.145804
H33   H     H_    0.182270 0.136976 0.321972 0.131359
H34   H     H_    0.817461 0.138356 0.677542 0.130885
H35   H     H_    0.680660 0.637849 0.320253 0.131929
H36   H     H_    0.309312 0.628744 0.668390 0.133137
C65   C     C_R   0.242387 0.140461 0.500755 0.087835
C66   C     C_R   0.757642 0.140934 0.498877 0.087035
C67   C     C_R   0.741439 0.640562 0.499229 0.087218
C68   C     C_R   0.257440 0.644335 0.493551 0.087063
C69   C     C_R   0.309795 0.156722 0.599532 -0.019301
C70   C     C_R   0.690343 0.156788 0.399957 -0.022394
C71   C     C_R   0.809029 0.656272 0.597806 -0.020988
C72   C     C_R   0.194536 0.668442 0.393147 -0.031384
C73   C     C_3   0.838560 0.683150 0.711832 0.200465
C74   C     C_3   0.178691 0.709132 0.293992 0.193884
C75   C     C_3   0.338671 0.184757 0.712785 0.202077
C76   C     C_3   0.661653 0.184350 0.286849 0.203105
C77   C     C_3   0.890317 0.731926 0.711914 -0.512835
C78   C     C_3   0.125671 0.757192 0.291078 -0.515268
C79   C     C_3   0.390661 0.233222 0.712958 -0.516694
C80   C     C_3   0.609641 0.232693 0.286558 -0.515046
H37   H     H_    0.863733 0.635791 0.774425 0.067367
H38   H     H_    0.154332 0.670479 0.220496 0.068448
H39   H     H_    0.363734 0.137947 0.776205 0.071289
H40   H     H_    0.636586 0.137230 0.223297 0.069312
H41   H     H_    0.882515 0.795365 0.715105 0.250085
H42   H     H_    0.139118 0.820305 0.306725 0.245674
H43   H     H_    0.382660 0.296800 0.714652 0.248541
H44   H     H_    0.617778 0.296305 0.285227 0.248697
H45   H     H_    0.945621 0.711734 0.773230 0.185942
H46   H     H_    0.070397 0.744322 0.217362 0.197038
H47   H     H_    0.445972 0.213322 0.775131 0.186670
H48   H     H_    0.554306 0.212412 0.224190 0.186250
H49   H     H_    0.792713 0.285124 0.182555 0.201438
H50   H     H_    0.206239 0.286892 0.814688 0.200819
H51   H     H_    0.216416 0.635987 0.003520 0.128805
H52   H     H_    0.706789 0.786425 0.815198 0.200464
H53   H     H_    0.207689 0.735809 0.832232 0.140011
H54   H     H_    0.709272 0.878292 0.991437 0.136132
H55   H     H_    0.790655 0.375464 0.006341 0.135253
H56   H     H_    0.209149 0.378768 0.991282 0.132692
C81   C     C_2   0.167541 0.779214 0.911206 -0.111371
C82   C     C_2   0.803007 0.850578 0.016504 -0.081013
C83   C     C_2   0.696836 0.349958 0.982408 -0.081688
C84   C     C_2   0.302849 0.350532 0.016482 -0.078846
C85   C     C_2   0.201209 0.727416 0.894842 -0.172565
C86   C     C_2   0.733074 0.851419 0.958704 -0.152607
C87   C     C_2   0.766708 0.349421 0.039265 -0.152048
C88   C     C_2   0.232907 0.351633 0.958629 -0.156425
H57   H     H_    0.876341 0.267717 0.096538 0.139455
H58   H     H_    0.123257 0.269713 0.901835 0.139330
H59   H     H_    0.335137 0.699531 0.003980 0.135329
H60   H     H_    0.623064 0.770006 0.901224 0.139410
C89   C     C_2   0.859225 0.254723 0.144985 -0.220758
C90   C     C_2   0.140127 0.256495 0.853063 -0.220580
C91   C     C_2   0.311048 0.667092 0.032770 -0.164620
C92   C     C_2   0.640153 0.756537 0.852813 -0.216166
C93   C     C_2   0.809698 0.297852 0.134205 -0.073998
C94   C     C_2   0.189397 0.299944 0.863221 -0.073712
C95   C     C_2   0.241409 0.667168 0.975608 -0.090094
C96   C     C_2   0.689674 0.799720 0.863318 -0.071497
H61   H     H_    0.162228 0.770128 0.974915 0.200291
H62   H     H_    0.824933 0.821180 0.982317 0.214275
H63   H     H_    0.674767 0.321358 0.016818 0.214572
H64   H     H_    0.324694 0.320759 0.982424 0.214797
N33   N     N_R   0.791497 0.732444 0.716495 0.248964
O1    O     O_R   0.802684 0.738650 0.809871 -0.443917
O2    O     O_R   0.748263 0.780670 0.636840 -0.384566
N34   N     N_R   0.237065 0.756753 0.318549 0.262982
O3    O     O_R   0.250966 0.756501 0.250144 -0.398961
O4    O     O_R   0.273500 0.801818 0.405520 -0.374422
N35   N     N_R   0.291004 0.234318 0.715630 0.248764
O5    O     O_R   0.301646 0.241591 0.808463 -0.442698
O6    O     O_R   0.247806 0.281854 0.634873 -0.387294
N36   N     N_R   0.709477 0.234038 0.284337 0.248708
O7    O     O_R   0.698405 0.241670 0.191259 -0.442939
O8    O     O_R   0.753046 0.281593 0.365644 -0.386219
N37   N     N_R   0.042234 0.892555 0.847415 0.226261
O9    O     O_R   0.062389 0.850788 0.932528 -0.380808
O10   O     O_R   0.996065 0.947342 0.814158 -0.404440
N38   N     N_R   0.957313 0.913535 0.149293 0.224705
O11   O     O_R   0.939243 0.878534 0.060384 -0.366815
O12   O     O_R   0.009098 0.963396 0.198763 -0.423934
N39   N     N_R   0.542504 0.412865 0.850430 0.225795
O13   O     O_R   0.560848 0.378234 0.939428 -0.362263
O14   O     O_R   0.490419 0.461892 0.800950 -0.419695
N40   N     N_R   0.457804 0.412392 0.149798 0.223310
O15   O     O_R   0.437979 0.379290 0.058758 -0.361480
O16   O     O_R   0.511601 0.459570 0.201530 -0.428881

loop_
_geom_bond_atom_site_label_1
_geom_bond_atom_site_label_2
_geom_bond_distance
_ccdc_geom_bond_type
C16   C19   1.392960 A    
C76   H40   1.112619 S    
C7    H7    1.071713 S    
N23   Ni7   1.849977 S    
C46   C90   1.462475 S    
C27   H15   1.079950 S    
N33   O1    1.299219 A    
C66   C70   1.401767 A    
C74   N34   1.466671 S    
C68   C72   1.398966 A    
C73   C77   1.511851 S    
H54   C86   1.084365 S    
C35   N27   1.335104 A    
C30   H18   1.080248 S    
N37   O9    1.300310 A    
C2    C18   1.379103 A    
C61   H33   1.080611 S    
N31   Ni8   1.864307 S    
N1    N14   1.398136 A    
N8    N12   1.368063 A    
N30   Ni5   1.856653 S    
N12   Ni3   1.830513 S    
C1    H1    1.079355 S    
C92   C96   1.334753 D    
C44   C67   1.460419 S    
C15   N39   1.436424 S    
C8    H8    1.071385 S    
C71   C73   1.502670 S    
N38   O12   1.300714 A    
C14   N14   1.349090 A    
N4    N15   1.398178 A    
C3    H3    1.079445 S    
C10   C22   1.384939 A    
C4    C20   1.383505 A    
C64   C68   1.406967 A    
C24   C55   1.464489 S    
C29   H17   1.080279 S    
N5    N9    1.368028 A    
C58   H30   1.082319 S    
C30   N22   1.341354 A    
C37   C41   1.386245 A    
C52   C70   1.378737 A    
C40   H28   1.080115 S    
C29   N21   1.341377 A    
C26   C42   1.378696 A    
H56   C88   1.084393 S    
C49   C71   1.377480 A    
C50   C54   1.401565 A    
C39   C43   1.385400 A    
C88   C94   1.457255 S    
C82   H62   1.084436 S    
C49   C53   1.403015 A    
C14   C17   1.392371 A    
N19   N31   1.368023 A    
N18   N30   1.368064 A    
C25   N17   1.330610 A    
C64   H36   1.081414 S    
C10   N10   1.338338 A    
C76   C80   1.513307 S    
C79   H47   1.111639 S    
C27   N19   1.321775 A    
H57   C89   1.087363 S    
C28   N20   1.330042 A    
C41   C66   1.463525 S    
N8    Ni8   1.842486 S    
C7    C23   1.383585 A    
N15   Ni8   1.836170 S    
C4    N4    1.334114 A    
C30   C46   1.384943 A    
H59   C91   1.087637 S    
C4    H4    1.079248 S    
C56   C60   1.409554 A    
C47   C91   1.453741 S    
H58   C90   1.087400 S    
C34   N26   1.335131 A    
C7    N7    1.335166 A    
C48   C92   1.462087 S    
C58   C64   1.399179 A    
N24   Ni8   1.842225 S    
N1    Ni1   1.840164 S    
C81   H61   1.085932 S    
C35   C48   1.391586 A    
N2    N13   1.398178 A    
C37   H25   1.080090 S    
C23   C56   1.464930 S    
N33   O2    1.302490 A    
C18   C81   1.453017 S    
C2    H2    1.079422 S    
C22   C53   1.463122 S    
C60   H32   1.081159 S    
C13   N37   1.435794 S    
C11   C23   1.387642 A    
C38   H26   1.079857 S    
C9    C21   1.387440 A    
N37   O10   1.301122 A    
C36   C47   1.383069 A    
C9    H9    1.074946 S    
N6    N10   1.368063 A    
N10   Ni1   1.830513 S    
N13   Ni6   1.836169 S    
C11   H11   1.077186 S    
N35   O5    1.299059 A    
C83   C87   1.339052 D    
C8    C24   1.382109 A    
C12   H12   1.077416 S    
C1    N1    1.334788 A    
N38   O11   1.300108 A    
N19   Ni3   1.840543 S    
N11   Ni4   1.826695 S    
C1    C17   1.383573 A    
C14   N38   1.436486 S    
C36   H24   1.079880 S    
H50   C94   1.082812 S    
C25   H13   1.079334 S    
C40   C44   1.384602 A    
C15   N15   1.349471 A    
C26   N18   1.331114 A    
C91   C95   1.333478 D    
C79   H43   1.111570 S    
N6    Ni6   1.842485 S    
C63   C67   1.409202 A    
N9    Ni2   1.826694 S    
C20   C83   1.470183 S    
C77   H41   1.111554 S    
C75   H39   1.112612 S    
C54   C58   1.407484 A    
C42   C65   1.462916 S    
N17   Ni1   1.840543 S    
C53   C57   1.408462 A    
C19   C84   1.469424 S    
C84   H64   1.084274 S    
C60   C62   1.400713 A    
C62   C66   1.409057 A    
C34   H22   1.078648 S    
N21   Ni5   1.849977 S    
C52   C80   1.499584 S    
C33   H21   1.078537 S    
C32   H20   1.080254 S    
N7    Ni7   1.850113 S    
C5    N5    1.327847 A    
N3    N16   1.398136 A    
C82   C86   1.338416 D    
C32   N24   1.341301 A    
N40   O16   1.300630 A    
N24   N27   1.370356 A    
C80   H44   1.111597 S    
C69   C75   1.502508 S    
C17   C82   1.469326 S    
C32   C48   1.385120 A    
C16   N40   1.437142 S    
C5    C21   1.374076 A    
N29   Ni6   1.864308 S    
C43   C68   1.451864 S    
H51   C95   1.084266 S    
N34   O4    1.302561 A    
C67   C71   1.400400 A    
N7    N11   1.368028 A    
C57   H29   1.081255 S    
C49   C77   1.501363 S    
C70   C76   1.502693 S    
H52   C96   1.083142 S    
C34   C45   1.391745 A    
C31   N23   1.341153 A    
C38   C42   1.384959 A    
C33   C46   1.391875 A    
C2    N2    1.329707 A    
C77   H45   1.111729 S    
C73   N33   1.463622 S    
C55   C59   1.408969 A    
N39   O13   1.300037 A    
N28   Ni3   1.857968 S    
C40   N32   1.334943 A    
H55   C87   1.084124 S    
C26   H14   1.079400 S    
N16   Ni7   1.828443 S    
C25   C41   1.378092 A    
N20   Ni4   1.844327 S    
C76   N36   1.463030 S    
N32   Ni7   1.856653 S    
C51   C79   1.500252 S    
C74   H38   1.112785 S    
C27   C43   1.373490 A    
C29   C45   1.385582 A    
C6    H6    1.062595 S    
C78   H42   1.112126 S    
N17   N29   1.368023 A    
C59   C61   1.400478 A    
C72   C74   1.504724 S    
C62   H34   1.080681 S    
H49   C93   1.082415 S    
N4    Ni4   1.844199 S    
C51   C55   1.402198 A    
C51   C69   1.378639 A    
C45   C89   1.462425 S    
C63   H35   1.080621 S    
N36   O8    1.302471 A    
C75   C79   1.512905 S    
C5    H5    1.073299 S    
H60   C92   1.087430 S    
C11   N11   1.338037 A    
C6    N6    1.334857 A    
C59   H31   1.081237 S    
C50   C72   1.375067 A    
N20   N32   1.368064 A    
C36   N28   1.324045 A    
C39   N31   1.339236 A    
C28   H16   1.079250 S    
C35   H23   1.078399 S    
C12   C24   1.388858 A    
C57   C63   1.399628 A    
C6    C22   1.379087 A    
C83   H63   1.084242 S    
C33   N25   1.335659 A    
C81   C85   1.337711 D    
C21   C54   1.454335 S    
N2    Ni2   1.844199 S    
C3    C19   1.383477 A    
C65   C69   1.401155 A    
C87   C93   1.457296 S    
C38   N30   1.337589 A    
C50   C78   1.504096 S    
C31   H19   1.081533 S    
N22   Ni6   1.842226 S    
H53   C85   1.087292 S    
N22   N25   1.370356 A    
C13   N13   1.345538 A    
N40   O15   1.300038 A    
C85   C95   1.438135 S    
N14   Ni5   1.828441 S    
C31   C47   1.383618 A    
N21   N26   1.370405 A    
C3    N3    1.334662 A    
C52   C56   1.401435 A    
C90   C94   1.334663 D    
C39   H27   1.080440 S    
N27   Ni4   1.853966 S    
C89   C93   1.334899 D    
N23   N28   1.370405 A    
C16   N16   1.349451 A    
C86   C96   1.456931 S    
N34   O3    1.300701 A    
C12   N12   1.338975 A    
C8    N8    1.333695 A    
N36   O7    1.299045 A    
C74   C78   1.510323 S    
C37   N29   1.338538 A    
N35   O6    1.302473 A    
C80   H48   1.111621 S    
C78   H46   1.111918 S    
N3    Ni3   1.840164 S    
C61   C65   1.409372 A    
C75   N35   1.463233 S    
C13   C18   1.385749 A    
N26   Ni1   1.857968 S    
C73   H37   1.112611 S    
C28   C44   1.379777 A    
N39   O14   1.300753 A    
N5    Ni5   1.850113 S    
N25   Ni2   1.853968 S    
C84   C88   1.338584 D    
C9    N9    1.341672 A    
C15   C20   1.393839 A    
N18   Ni2   1.844329 S    
C10   H10   1.077220 S    
