data_mof_unit_45937.cif
_audit_creation_date              2012-12-11T14:39:36-0500
_audit_creation_method            fapswitch 2.2
_symmetry_space_group_name_H-M    P1
_symmetry_Int_Tables_number       1
_space_group_crystal_system       triclinic
_cell_length_a                    7.218263
_cell_length_b                    14.108711
_cell_length_c                    16.276304
_cell_angle_alpha                 90.000138
_cell_angle_beta                  97.407747
_cell_angle_gamma                 90.000111
_cell_volume                      1643.75045342

loop_
_atom_site_label
_atom_site_type_symbol
_atom_type_description
_atom_site_fract_x
_atom_site_fract_y
_atom_site_fract_z
_atom_type_partial_charge
O1    O     O_R   0.525340 0.338340 0.164530 -0.543188
O2    O     O_R   0.474660 0.661660 0.835470 -0.543188
O3    O     O_R   0.974660 0.838340 0.835470 -0.543189
O4    O     O_R   0.025340 0.161660 0.164530 -0.543189
O5    O     O_R   0.253520 0.352000 0.336710 -0.538331
O6    O     O_R   0.746480 0.648000 0.663290 -0.538330
O7    O     O_R   0.246480 0.852000 0.663290 -0.538332
O8    O     O_R   0.753520 0.148000 0.336710 -0.538332
O9    O     O_R   0.083330 0.168380 0.337300 -0.539551
O10   O     O_R   0.916670 0.831620 0.662700 -0.539551
O11   O     O_R   0.416670 0.668380 0.662700 -0.539551
O12   O     O_R   0.583330 0.331620 0.337300 -0.539551
C1    C     C_R   0.432337 0.368530 0.363790 0.680753
C2    C     C_R   0.567663 0.631470 0.636209 0.680753
C3    C     C_R   0.067663 0.868530 0.636209 0.680755
C4    C     C_R   0.932336 0.131470 0.363791 0.680755
O13   O     O_R   0.195840 0.349670 0.165140 -0.536290
O14   O     O_R   0.804160 0.650330 0.834860 -0.536290
O15   O     O_R   0.304160 0.849670 0.834860 -0.536289
O16   O     O_R   0.695840 0.150330 0.165140 -0.536289
C5    C     C_R   0.357176 0.372012 0.137699 0.744214
C6    C     C_R   0.642824 0.627988 0.862301 0.744213
C7    C     C_R   0.142824 0.872011 0.862301 0.744215
C8    C     C_R   0.857176 0.127989 0.137699 0.744215
O17   O     O_3   0.387830 0.193120 0.250910 -0.375476
O18   O     O_3   0.612170 0.806880 0.749090 -0.375476
O19   O     O_3   0.112170 0.693120 0.749090 -0.375474
O20   O     O_3   0.887830 0.306880 0.250910 -0.375474
V1    V     V_3+5 0.113010 0.264540 0.250910 1.453176
V2    V     V_3+5 0.886990 0.735460 0.749090 1.453176
V3    V     V_3+5 0.386990 0.764540 0.749090 1.453175
V4    V     V_3+5 0.613010 0.235460 0.250910 1.453175
C9    C     C_R   0.866775 0.184665 0.528452 -0.219076
C10   C     C_R   0.133225 0.815335 0.471548 -0.219076
C11   C     C_R   0.633180 0.684669 0.471547 -0.219092
C12   C     C_R   0.366820 0.315331 0.528453 -0.219092
C13   C     C_R   0.833459 0.211941 0.607512 -0.145604
C14   C     C_R   0.166541 0.788058 0.392488 -0.145604
C15   C     C_R   0.666490 0.711946 0.392487 -0.145609
C16   C     C_R   0.333510 0.288054 0.607513 -0.145609
C17   C     C_R   0.865009 0.148513 0.673227 0.350440
C18   C     C_R   0.134991 0.851487 0.326773 0.350440
C19   C     C_R   0.634945 0.648517 0.326772 0.350448
C20   C     C_R   0.365055 0.351483 0.673228 0.350448
C21   C     C_R   0.930702 0.057483 0.660169 -0.178136
C22   C     C_R   0.069297 0.942517 0.339831 -0.178136
C23   C     C_R   0.569256 0.557487 0.339829 -0.178140
C24   C     C_R   0.430744 0.442513 0.660170 -0.178140
C25   C     C_R   0.964620 0.027748 0.580366 0.009590
C26   C     C_R   0.035380 0.972251 0.419634 0.009590
C27   C     C_R   0.535355 0.527751 0.419633 0.009588
C28   C     C_R   0.464644 0.472249 0.580367 0.009588
C29   C     C_R   0.931931 0.092360 0.513309 0.059515
C30   C     C_R   0.068069 0.907640 0.486691 0.059515
C31   C     C_R   0.568043 0.592362 0.486690 0.059513
C32   C     C_R   0.431957 0.407637 0.513310 0.059513
C33   C     C_R   0.032703 0.935691 0.566823 -0.132114
C34   C     C_R   0.967297 0.064309 0.433177 -0.132114
C35   C     C_R   0.467299 0.435690 0.433177 -0.132104
C36   C     C_R   0.532701 0.564310 0.566823 -0.132104
H1    H     H_    0.841952 0.236984 0.479682 0.136076
H2    H     H_    0.158048 0.763016 0.520317 0.136075
H3    H     H_    0.658000 0.736988 0.520317 0.136074
H4    H     H_    0.342000 0.263012 0.479683 0.136074
H5    H     H_    0.783691 0.282850 0.617662 0.161921
H6    H     H_    0.216308 0.717150 0.382338 0.161921
H7    H     H_    0.716254 0.782855 0.382337 0.161923
H8    H     H_    0.283746 0.217145 0.617663 0.161923
H9    H     H_    0.955312 0.010847 0.713213 0.132782
H10   H     H_    0.044687 0.989153 0.286787 0.132781
H11   H     H_    0.544647 0.510850 0.286786 0.132776
H12   H     H_    0.455352 0.489150 0.713214 0.132776
H13   H     H_    0.138192 0.066054 0.056771 0.156828
H14   H     H_    0.861807 0.933946 0.943229 0.156828
H15   H     H_    0.361808 0.566054 0.943230 0.156828
H16   H     H_    0.638192 0.433946 0.056770 0.156829
C37   C     C_2   0.149993 0.942065 0.930607 -0.272141
C38   C     C_2   0.850007 0.057935 0.069393 -0.272141
C39   C     C_2   0.350008 0.442065 0.069394 -0.272142
C40   C     C_2   0.649992 0.557935 0.930606 -0.272142
C41   C     C_2   0.996112 0.965709 0.965440 -0.064934
C42   C     C_2   0.003888 0.034291 0.034560 -0.064934
C43   C     C_2   0.503888 0.465709 0.034560 -0.064933
C44   C     C_2   0.496112 0.534291 0.965440 -0.064933
H17   H     H_    0.716137 0.026165 0.046424 0.139285
H18   H     H_    0.283863 0.973835 0.953575 0.139285
H19   H     H_    0.783861 0.526165 0.953574 0.139285
H20   H     H_    0.216139 0.473835 0.046426 0.139285
Br1   Br    Br    0.180775 0.813742 0.218470 -0.479736
Br2   Br    Br    0.819225 0.186257 0.781530 -0.479736
Br3   Br    Br    0.319256 0.313739 0.781530 -0.479730
Br4   Br    Br    0.680743 0.686261 0.218470 -0.479730

loop_
_geom_bond_atom_site_label_1
_geom_bond_atom_site_label_2
_ccdc_geom_bond_type
O1    C5    A    
O13   V1    S    
O3    C7    A    
C40   C44   D    
O15   V3    S    
C41   C42   S    
C26   C30   A    
O20   V1    S    
O9    C4    A    
C14   C18   A    
C40   H19   S    
O10   C3    A    
O4    C8    A    
O11   C2    A    
H15   C44   S    
C10   H2    S    
C25   C33   A    
C18   C22   A    
O10   V2    S    
C28   C36   A    
C14   H6    S    
C13   H5    S    
O2    C6    A    
O14   V2    S    
C37   C41   D    
O5    C1    A    
O4    V1    S    
O9    V1    S    
O17   V4    S    
O7    C3    A    
C17   Br2   S    
O11   V3    S    
O18   V3    S    
O8    C4    A    
C10   C14   A    
C31   C36   A    
O12   V4    S    
O19   V2    S    
C3    C33   S    
C24   H12   S    
H16   C43   S    
C39   H20   S    
O5    V1    S    
C9    C29   A    
O7    V3    S    
C21   H9    S    
C26   C34   A    
O16   C8    A    
C12   C16   A    
C24   C28   A    
O15   C7    A    
C23   C27   A    
C11   C31   A    
O1    V4    S    
O13   C5    A    
O2    V3    S    
O8    V4    S    
O3    V2    S    
C11   C15   A    
C12   C32   A    
O6    C2    A    
C38   C42   D    
C43   C44   S    
C21   C25   A    
C5    C39   S    
C4    C34   S    
C7    C37   S    
C23   H11   S    
C20   Br3   S    
C38   H17   S    
C8    C38   S    
O6    V2    S    
C37   H18   S    
C10   C30   A    
C27   C35   A    
H14   C41   S    
H13   C42   S    
O16   V4    S    
O14   C6    A    
C15   H7    S    
C15   C19   A    
C29   C34   A    
C1    C35   S    
C2    C36   S    
C22   C26   A    
C19   Br4   S    
C32   C35   A    
C18   Br1   S    
C6    C40   S    
C39   C43   D    
C25   C29   A    
C27   C31   A    
C13   C17   A    
C9    C13   A    
C22   H10   S    
C28   C32   A    
C16   C20   A    
O12   C1    A    
C9    H1    S    
C16   H8    S    
C17   C21   A    
C11   H3    S    
C12   H4    S    
C19   C23   A    
C20   C24   A    
C30   C33   A    
