data_mof_unit_39509.cif
_audit_creation_date              2012-12-10T19:11:32-0500
_audit_creation_method            fapswitch 2.2
_symmetry_space_group_name_H-M    P1
_symmetry_Int_Tables_number       1
_space_group_crystal_system       triclinic
_cell_length_a                    7.777494
_cell_length_b                    9.093639
_cell_length_c                    17.237181
_cell_angle_alpha                 89.989666
_cell_angle_beta                  85.990836
_cell_angle_gamma                 89.991852
_cell_volume                      1216.1287416

loop_
_atom_site_label
_atom_site_type_symbol
_atom_type_description
_atom_site_fract_x
_atom_site_fract_y
_atom_site_fract_z
_atom_type_partial_charge
C1    C     C_R   0.499990 0.780001 0.500019 0.854632
C2    C     C_R   0.500013 0.220001 0.499982 0.833565
C3    C     C_1   0.499992 0.934636 0.500008 -0.163318
C4    C     C_1   0.500019 0.065370 0.499996 -0.167931
C5    C     C_R   0.477928 0.495480 0.650488 0.831718
C6    C     C_R   0.522359 0.502653 0.349170 0.811803
C7    C     C_R   0.468277 0.471407 0.734502 -0.111330
C8    C     C_R   0.533810 0.513032 0.263826 -0.139714
C9    C     C_R   0.600237 0.389344 0.765510 -0.276366
C10   C     C_R   0.380835 0.529754 0.225791 -0.250655
C11   C     C_R   0.599694 0.365732 0.844918 -0.079644
C12   C     C_R   0.385851 0.540940 0.145422 -0.112312
C13   C     C_R   0.469900 0.427527 0.894436 0.118770
C14   C     C_R   0.543967 0.536883 0.101848 0.111147
C15   C     C_R   0.334517 0.505846 0.864339 -0.194429
C16   C     C_R   0.697689 0.524378 0.138697 -0.153238
C17   C     C_R   0.329644 0.524599 0.783684 0.480990
C18   C     C_R   0.694047 0.508748 0.219581 0.487268
C19   C     C_2   0.485318 0.420366 0.978441 -0.151989
C20   C     C_2   0.547963 0.537922 0.016725 -0.143796
Cu1   Cu    Cu3+1 0.330920 0.500000 0.500000 1.021469
Cu2   Cu    Cu3+1 0.669080 0.500000 0.500000 1.021321
H1    H     H_    0.236380 0.555666 0.903598 0.141501
H2    H     H_    0.819976 0.522987 0.104463 0.133400
H3    H     H_    0.266504 0.551098 0.116959 0.143542
H4    H     H_    0.704671 0.305345 0.868165 0.144088
H5    H     H_    0.704868 0.343898 0.728170 0.163505
H6    H     H_    0.256525 0.534240 0.258130 0.199963
N1    N     N_1   0.923170 0.500000 0.500010 -0.042224
N2    N     N_1   0.076830 0.500000 0.499990 -0.043819
O1    O     O_R   0.357240 0.711600 0.500000 -0.571070
O2    O     O_R   0.642760 0.288400 0.500000 -0.584238
O3    O     O_R   0.642760 0.711600 0.500000 -0.576391
O4    O     O_R   0.357240 0.288400 0.500000 -0.582791
O5    O     O_R   0.340660 0.500000 0.613590 -0.551671
O6    O     O_R   0.659340 0.500000 0.386410 -0.532590
O7    O     O_R   0.626230 0.500000 0.613600 -0.601815
O8    O     O_R   0.373770 0.500000 0.386400 -0.596892
O9    O     O_3   0.847181 0.497171 0.255393 -0.576458
C21   C     C_3   0.912627 0.353535 0.243969 -0.276341
H7    H     H_    0.815573 0.268639 0.263324 0.164673
H8    H     H_    0.024705 0.339560 0.279696 0.189213
H9    H     H_    0.958686 0.335331 0.182178 0.165995
O10   O     O_3   0.201885 0.608823 0.753454 -0.574050
C22   C     C_3   0.042808 0.534476 0.764579 -0.245761
H10   H     H_    0.051023 0.420521 0.740869 0.147576
H11   H     H_    0.945682 0.594454 0.732553 0.208484
H12   H     H_    0.995673 0.532806 0.826949 0.176910
C23   C     C_2   0.617773 0.673851 0.976909 0.869329
O11   O     O_2   0.622518 0.788788 0.013591 -0.570836
O12   O     O_R   0.682605 0.670945 0.899183 -0.773220
H13   H     H_    0.727004 0.770252 0.880030 0.341566
C24   C     C_2   0.432749 0.278906 0.017421 0.867642
O13   O     O_2   0.329816 0.198449 0.987681 -0.575739
O14   O     O_R   0.504427 0.234547 0.085861 -0.757669
H14   H     H_    0.458519 0.136078 0.105582 0.348226

loop_
_geom_bond_atom_site_label_1
_geom_bond_atom_site_label_2
_ccdc_geom_bond_type
C2    C4    S    
C18   O9    S    
C6    O8    A    
N1    N2    T    
Cu1   O5    S    
Cu2   N1    S    
C5    O7    A    
C9    C11   A    
Cu1   N2    S    
C19   C20   D    
C13   C15   A    
C12   H3    S    
O14   H14   S    
Cu1   Cu2   S    
C19   C24   S    
C21   H8    S    
C17   O10   S    
C1    O3    A    
C16   H2    S    
C16   C18   A    
C24   O13   D    
C11   C13   A    
C2    O4    A    
Cu1   O1    S    
C20   C23   S    
Cu2   O2    S    
C10   C12   A    
C15   H1    S    
C21   H7    S    
C12   C14   A    
C7    C9    A    
C24   O14   S    
C14   C16   A    
C22   H12   S    
C13   C19   S    
O12   H13   S    
C5    O5    A    
C1    O1    A    
Cu2   O6    S    
O10   C22   S    
C9    H5    S    
C14   C20   S    
C2    O2    A    
C23   O11   D    
C22   H11   S    
C10   H6    S    
O9    C21   S    
C15   C17   A    
Cu2   O3    S    
C5    C7    S    
C6    C8    S    
Cu1   O4    S    
C11   H4    S    
C23   O12   S    
C22   H10   S    
Cu2   O7    S    
C8    C10   A    
C8    C18   A    
Cu1   O8    S    
C3    C4    T    
C6    O6    A    
C1    C3    S    
C21   H9    S    
C7    C17   A    
