data_mof_unit_50724.cif
_audit_creation_date              2012-12-11T14:08:09-0500
_audit_creation_method            fapswitch 2.2
_symmetry_space_group_name_H-M    P1
_symmetry_Int_Tables_number       1
_space_group_crystal_system       triclinic
_cell_length_a                    11.160316
_cell_length_b                    11.109605
_cell_length_c                    18.856644
_cell_angle_alpha                 90.443079
_cell_angle_beta                  89.532092
_cell_angle_gamma                 59.620428
_cell_volume                      2016.69747954

loop_
_atom_site_label
_atom_site_type_symbol
_atom_type_description
_atom_site_fract_x
_atom_site_fract_y
_atom_site_fract_z
_atom_type_partial_charge
C1    C     C_R   0.235212 0.645067 0.608322 0.576338
C2    C     C_3   0.738859 0.553016 0.792467 0.140311
C3    C     C_3   0.716780 0.700472 0.805978 -0.045201
C4    C     C_3   0.668521 0.672913 0.671487 0.015757
C5    C     C_3   0.801135 0.690691 0.674767 0.219547
C6    C     C_3   0.686257 0.548306 0.719200 -0.229654
C7    C     C_2   0.694303 0.129333 0.660748 -0.030085
C8    C     C_2   0.716759 0.092771 0.818287 0.216977
C9    C     C_2   0.824905 0.051405 0.772642 -0.166898
C10   C     C_2   0.806833 0.106513 0.698744 0.032826
C11   C     C_2   0.166169 0.659594 0.678034 -0.079817
C12   C     C_R   0.652293 0.626329 0.599999 0.551671
C13   C     C_2   0.172602 0.664439 0.834786 0.240894
C14   C     C_2   0.165641 0.561721 0.797224 0.156629
C15   C     C_2   0.196607 0.545876 0.718890 0.014753
C16   C     C_2   0.668624 0.678428 0.333573 -0.104420
C17   C     C_2   0.637994 0.657620 0.151718 -0.048065
C18   C     C_2   0.699169 0.667440 0.209595 -0.074167
C19   C     C_2   0.691158 0.604635 0.273952 0.030439
C20   C     C_2   0.679730 0.120099 0.339840 0.025091
C21   C     C_2   0.668781 0.096208 0.184476 -0.052069
C22   C     C_2   0.592913 0.064965 0.228831 0.021629
C23   C     C_R   0.631562 0.223511 0.599673 0.548466
C24   C     C_2   0.588103 0.096402 0.304588 -0.159097
C25   C     C_2   0.171875 0.665156 0.331221 0.083862
C26   C     C_2   0.186326 0.645432 0.170121 -0.048984
C27   C     C_2   0.209503 0.729156 0.210775 -0.119262
C28   C     C_2   0.239987 0.702025 0.284353 -0.145405
C29   C     C_R   0.730119 0.041529 0.890608 0.504562
C30   C     C_R   0.752239 0.710311 0.882408 0.569431
C31   C     C_R   0.108586 0.710481 0.904806 0.578255
C32   C     C_R   0.697099 0.050075 0.111470 0.567242
C33   C     C_R   0.688696 0.683833 0.088045 0.556519
C34   C     C_R   0.223774 0.648425 0.401919 0.557061
C35   C     C_R   0.100452 0.705123 0.109157 0.582575
C36   C     C_R   0.646321 0.627585 0.398543 0.549343
C37   C     C_R   0.622130 0.220695 0.398788 0.564763
C38   C     C_3   0.569102 0.828762 0.781644 -0.049592
C39   C     C_3   0.533217 0.811965 0.701814 0.258667
C40   C     C_3   0.823879 0.708688 0.755206 -0.306735
Cr1   Cr    Cr6+3 0.393010 0.398050 0.501480 1.100637
Cr2   Cr    Cr6+3 0.398820 0.707980 0.501630 1.080277
Cr3   Cr    Cr6+3 0.708140 0.393940 0.496850 1.120376
Cr4   Cr    Cr6+3 0.937950 0.938450 0.008940 1.033472
Cr5   Cr    Cr6+3 0.626180 0.937030 0.994750 1.083089
Cr6   Cr    Cr6+3 0.937790 0.625760 0.001410 1.058704
H1    H     H_    0.592404 0.914962 0.781870 0.145959
H2    H     H_    0.756736 0.442693 0.696872 0.192461
H3    H     H_    0.926140 0.628126 0.768591 0.171233
H4    H     H_    0.929701 0.983472 0.791449 0.122106
H5    H     H_    0.634951 0.086368 0.681256 0.233561
H6    H     H_    0.099804 0.763755 0.699521 0.105870
H7    H     H_    0.758362 0.720956 0.208902 0.179968
H8    H     H_    0.575786 0.607608 0.150647 0.098854
H9    H     H_    0.651131 0.784009 0.332828 0.131832
H10   H     H_    0.487292 0.127723 0.328409 0.173334
H11   H     H_    0.723876 0.145947 0.204041 0.113697
H12   H     H_    0.196014 0.827444 0.191951 0.175570
H13   H     H_    0.319522 0.724304 0.302025 0.167313
H14   H     H_    0.208865 0.543457 0.188275 0.146532
H15   H     H_    0.824637 0.806863 0.765266 0.111691
H16   H     H_    0.853764 0.479640 0.789705 0.186999
H17   H     H_    0.589671 0.545497 0.720654 0.135272
O1    O     O_R   0.507110 0.256280 0.580300 -0.506196
O2    O     O_R   0.524640 0.695370 0.425100 -0.492853
O3    O     O_R   0.735890 0.504390 0.415980 -0.475705
O4    O     O_R   0.690560 0.277820 0.422350 -0.413080
O5    O     O_3   0.499990 0.499990 0.499980 -0.295715
O6    O     O_R   0.089190 0.825870 0.932320 -0.486559
O7    O     O_R   0.819070 0.053960 0.931440 -0.533852
O8    O     O_R   0.607070 0.076440 0.916460 -0.468173
O9    O     O_R   0.647110 0.806550 0.917690 -0.470991
O10   O     O_R   0.837080 0.593860 0.915300 -0.475201
O11   O     O_R   0.064770 0.636080 0.932550 -0.487254
O12   O     O_R   0.280830 0.527190 0.577940 -0.440258
O13   O     O_R   0.068250 0.829200 0.092940 -0.512316
O14   O     O_R   0.799650 0.057040 0.080330 -0.489017
O15   O     O_R   0.586130 0.079760 0.077080 -0.457434
O16   O     O_R   0.627700 0.809630 0.066580 -0.491643
O17   O     O_R   0.816140 0.597180 0.075920 -0.487370
O18   O     O_R   0.045360 0.639170 0.081440 -0.483550
O19   O     O_3   0.833980 0.833750 0.001700 -0.344394
O20   O     O_R   0.261360 0.738990 0.584270 -0.505484
O21   O     O_R   0.532590 0.694780 0.574370 -0.434303
O22   O     O_R   0.744470 0.503750 0.577000 -0.523333
O23   O     O_R   0.698520 0.277230 0.571620 -0.472332
O24   O     O_R   0.498530 0.256920 0.419280 -0.542569
O25   O     O_R   0.272880 0.527780 0.428680 -0.449674
O26   O     O_R   0.252780 0.739630 0.423250 -0.528700
C41   C     C_2   0.929699 0.559164 0.643897 0.602364
O27   O     O_2   0.996641 0.565129 0.593951 -0.482541
O28   O     O_R   0.964915 0.428380 0.669850 -0.718029
H18   H     H_    0.017661 0.350272 0.633946 0.380487
C42   C     C_2   0.916935 0.130525 0.670309 0.552745
O29   O     O_2   0.976528 0.169427 0.710388 -0.574846
O30   O     O_R   0.958979 0.100374 0.599177 -0.674533
H19   H     H_    0.035489 0.120554 0.586539 0.320351
O31   O     O_3   0.583481 0.182819 0.797268 -0.513474
C43   C     C_3   0.539434 0.311222 0.831475 -0.051167
H20   H     H_    0.567914 0.305952 0.888095 0.124634
H21   H     H_    0.425584 0.370807 0.833081 0.144096
H22   H     H_    0.581313 0.365532 0.800421 0.141607
O32   O     O_3   0.108782 0.490198 0.831808 -0.605357
C44   C     C_3   0.169798 0.347656 0.815869 -0.072598
H23   H     H_    0.284112 0.292284 0.819066 0.212758
H24   H     H_    0.134143 0.329652 0.764628 0.211506
H25   H     H_    0.132282 0.302601 0.856513 0.133069
C45   C     C_2   0.281027 0.402304 0.690101 0.627706
O33   O     O_2   0.400442 0.331426 0.707960 -0.496798
O34   O     O_R   0.227649 0.351203 0.639267 -0.639274
H26   H     H_    0.295428 0.254210 0.621089 0.358579
O35   O     O_3   0.241476 0.728231 0.809131 -0.602809
C46   C     C_3   0.381504 0.626082 0.810508 -0.058932
H27   H     H_    0.405622 0.552085 0.766048 0.100483
H28   H     H_    0.444196 0.670926 0.799526 0.257759
H29   H     H_    0.414102 0.579110 0.864023 0.143916
C47   C     C_2   0.443720 0.893449 0.833154 0.631312
O36   O     O_2   0.427538 0.825238 0.878838 -0.465820
O37   O     O_R   0.355905 0.037717 0.834269 -0.699451
H30   H     H_    0.281543 0.069007 0.872630 0.320307
C48   C     C_2   0.709788 0.462597 0.269759 0.603252
O38   O     O_2   0.623285 0.439060 0.295914 -0.525462
O39   O     O_R   0.825015 0.357900 0.232823 -0.667880
H31   H     H_    0.830600 0.264328 0.234659 0.343898
C49   C     C_2   0.485881 0.030778 0.205404 0.587168
O40   O     O_2   0.471357 0.944044 0.237695 -0.562334
O41   O     O_R   0.388421 0.111414 0.154419 -0.644756
H32   H     H_    0.318024 0.081000 0.145682 0.339864
C50   C     C_2   0.831897 0.048137 0.322848 0.529594
O42   O     O_2   0.884675 0.947318 0.282649 -0.510607
O43   O     O_R   0.916083 0.092529 0.354538 -0.658023
H33   H     H_    0.017142 0.034097 0.339180 0.345346
O44   O     O_3   0.417285 0.789469 0.699517 -0.605622
C51   C     C_3   0.283728 0.911115 0.693275 -0.000260
H34   H     H_    0.264802 0.946503 0.637515 0.162143
H35   H     H_    0.267398 0.998636 0.727852 0.189419
H36   H     H_    0.203066 0.887079 0.708672 0.181266
C52   C     C_2   0.061730 0.629635 0.316601 0.576841
O45   O     O_2   0.988116 0.673809 0.264656 -0.507176
O46   O     O_R   0.039403 0.547845 0.364952 -0.674389
H37   H     H_    0.964188 0.528181 0.349446 0.349556
C53   C     C_2   0.498391 0.943403 0.659069 0.584521
O47   O     O_2   0.449219 0.055589 0.690129 -0.529255
O48   O     O_R   0.496111 0.941326 0.585014 -0.704016
H38   H     H_    0.460994 0.036626 0.563660 0.318016
O49   O     O_3   0.778418 0.817571 0.642796 -0.615875
C54   C     C_3   0.791210 0.819068 0.567942 -0.038800
H39   H     H_    0.718738 0.925637 0.548984 0.138097
H40   H     H_    0.768150 0.745905 0.539305 0.150049
H41   H     H_    0.896116 0.799556 0.553221 0.175904
O50   O     O_3   0.677476 0.512293 0.846464 -0.583743
C55   C     C_3   0.774786 0.378940 0.873264 -0.104585
H42   H     H_    0.872721 0.371113 0.891299 0.157146
H43   H     H_    0.802630 0.296459 0.832366 0.138566
H44   H     H_    0.728978 0.357665 0.920401 0.149071

loop_
_geom_bond_atom_site_label_1
_geom_bond_atom_site_label_2
_ccdc_geom_bond_type
C15   C45   S    
C7    C10   D    
Cr5   O8    S    
Cr5   O19   S    
C1    C11   S    
C54   H39   S    
C20   C50   S    
C51   H36   S    
C44   H24   S    
C35   O18   A    
O39   H31   S    
C25   C28   D    
C26   C27   D    
C6    H2    S    
C12   O22   A    
C8    C29   S    
C27   C28   S    
Cr4   O14   S    
C54   H40   S    
C50   O42   D    
C13   O35   S    
Cr4   O19   S    
C47   O37   S    
C38   C39   S    
C36   O3    A    
C10   C42   S    
C40   H3    S    
C45   O33   D    
C12   O21   A    
C18   C19   S    
Cr4   O13   S    
C8    O31   S    
O34   H26   S    
C44   H23   S    
C11   H6    S    
C18   H7    S    
C32   O14   A    
Cr6   O19   S    
C38   C47   S    
C11   C15   D    
C20   C24   D    
C3    C38   S    
C8    C9    D    
C23   O23   A    
Cr2   O2    S    
O50   C55   S    
C39   C53   S    
Cr4   O7    S    
Cr5   O15   S    
C4    C12   S    
C9    C10   S    
C5    C41   S    
C25   C34   S    
C46   H29   S    
C21   C22   D    
Cr5   O9    S    
Cr2   O5    S    
C2    C6    S    
C17   C33   S    
O35   C46   S    
C13   C31   S    
Cr1   O5    S    
C16   C19   D    
Cr1   O24   S    
C21   C32   S    
C35   O13   A    
C48   O39   S    
O49   C54   S    
C1    O12   A    
C54   H41   S    
Cr2   O21   S    
O46   H37   S    
C4    C6    S    
C30   O10   A    
C36   O2    A    
C33   O16   A    
C22   C49   S    
C51   H35   S    
C40   H15   S    
C46   H28   S    
Cr3   O22   S    
C6    H17   S    
C3    C30   S    
C21   H11   S    
Cr1   O12   S    
Cr6   O18   S    
C9    H4    S    
C41   O28   S    
C43   H20   S    
C55   H44   S    
C31   O6    A    
O30   H19   S    
C17   C18   D    
C48   O38   D    
Cr4   O6    S    
Cr5   O16   S    
C34   O25   A    
C42   O30   S    
C38   H1    S    
C46   H27   S    
C52   O46   S    
C23   O1    A    
C43   H21   S    
C55   H43   S    
C3    C40   S    
O44   C51   S    
C22   C24   S    
C24   H10   S    
O41   H32   S    
Cr6   O11   S    
C29   O7    A    
C39   O44   S    
C28   H13   S    
C2    O50   S    
Cr1   O25   S    
C19   C48   S    
C5    O49   S    
C14   C15   S    
Cr3   O23   S    
C37   O24   A    
Cr2   O20   S    
O48   H38   S    
C31   O11   A    
C27   H12   S    
C30   O9    A    
O37   H30   S    
C33   O17   A    
C51   H34   S    
C1    O20   A    
Cr3   O5    S    
C4    C39   S    
Cr2   O26   S    
C2    C3    S    
C34   O26   A    
C7    H5    S    
C47   O36   D    
C16   C36   S    
Cr6   O17   S    
C20   C37   S    
C41   O27   D    
C49   O40   D    
Cr3   O3    S    
C7    C23   S    
C37   O4    A    
O28   H18   S    
C45   O34   S    
C25   C52   S    
C53   O48   S    
Cr6   O10   S    
C42   O29   D    
C16   H9    S    
C52   O45   D    
C32   O15   A    
C2    H16   S    
C26   C35   S    
C4    C5    S    
C43   H22   S    
C55   H42   S    
Cr3   O4    S    
O31   C43   S    
C5    C40   S    
O32   C44   S    
C49   O41   S    
C14   O32   S    
C53   O47   D    
Cr1   O1    S    
C50   O43   S    
C13   C14   D    
C26   H14   S    
C17   H8    S    
C44   H25   S    
O43   H33   S    
C29   O8    A    
