data_mof_unit_30756.cif
_audit_creation_date              2012-12-10T17:37:32-0500
_audit_creation_method            fapswitch 2.2
_symmetry_space_group_name_H-M    P1
_symmetry_Int_Tables_number       1
_space_group_crystal_system       triclinic
_cell_length_a                    11.9828
_cell_length_b                    12.895011
_cell_length_c                    16.700302
_cell_angle_alpha                 90.547151
_cell_angle_beta                  81.364413
_cell_angle_gamma                 93.051616
_cell_volume                      2547.62766869

loop_
_atom_site_label
_atom_site_type_symbol
_atom_type_description
_atom_site_fract_x
_atom_site_fract_y
_atom_site_fract_z
_atom_type_partial_charge
C1    C     C_R   0.522006 0.700592 0.497748 0.899244
C2    C     C_R   0.562728 0.132731 0.475325 -0.296026
C3    C     C_R   0.445955 0.974151 0.488405 0.129475
C4    C     C_R   0.555321 0.025267 0.473478 0.104461
C5    C     C_R   0.969291 0.446358 0.400628 0.011072
C6    C     C_R   0.030571 0.550103 0.600322 0.013345
C7    C     C_R   0.850441 0.445584 0.414464 -0.033901
C8    C     C_R   0.149400 0.552340 0.586130 -0.028091
C9    C     C_R   0.850049 0.515632 0.545960 -0.085618
C10   C     C_R   0.149969 0.483874 0.454207 -0.092355
C11   C     C_R   0.969649 0.516399 0.537316 0.023570
C12   C     C_R   0.478293 0.299544 0.499027 0.903776
C13   C     C_R   0.030281 0.482275 0.463045 0.028043
C14   C     C_R   0.484877 0.503169 0.654276 0.868446
C15   C     C_R   0.516017 0.504683 0.345982 0.857586
C16   C     C_R   0.478306 0.523312 0.740698 -0.031477
C17   C     C_R   0.528832 0.539554 0.262360 -0.031074
C18   C     C_R   0.575847 0.519423 0.777202 -0.218603
C19   C     C_R   0.443579 0.597196 0.238166 -0.205301
C20   C     C_R   0.574316 0.551837 0.856603 -0.157370
C21   C     C_R   0.457832 0.640239 0.161580 -0.161079
C22   C     C_R   0.475293 0.589677 0.900337 0.211932
C23   C     C_R   0.465758 0.188524 0.492142 -0.082525
C24   C     C_R   0.555927 0.623181 0.107052 0.206574
C25   C     C_R   0.376825 0.590303 0.864798 -0.180782
C26   C     C_R   0.643689 0.570237 0.132163 -0.170437
C27   C     C_R   0.378201 0.557508 0.785247 -0.201078
C28   C     C_R   0.630388 0.528679 0.209843 -0.205614
C29   C     C_2   0.468303 0.616189 0.986091 -0.231416
C30   C     C_2   0.559736 0.642489 0.020691 -0.244997
C31   C     C_3   0.027157 0.410537 0.318814 -0.444525
C32   C     C_3   0.077726 0.503401 0.266041 -0.331584
C33   C     C_3   0.147745 0.467658 0.187700 -0.889432
C34   C     C_R   0.535399 0.811739 0.489590 -0.096238
C35   C     C_3   0.972869 0.579450 0.683840 -0.448380
C36   C     C_3   0.941190 0.692986 0.686154 -0.341838
C37   C     C_3   0.871654 0.719950 0.767116 -0.888596
C38   C     C_3   0.771159 0.022776 0.434928 -0.435227
C39   C     C_3   0.870017 0.952127 0.410143 -0.346394
C40   C     C_3   0.978357 0.016003 0.378604 -0.898794
C41   C     C_3   0.228075 0.983210 0.500544 -0.441006
C42   C     C_3   0.171146 0.968155 0.588461 -0.326556
C43   C     C_3   0.045203 0.939615 0.592645 -0.910775
C44   C     C_R   0.654747 0.968139 0.459664 0.106296
C45   C     C_R   0.347005 0.031430 0.496595 0.105254
C46   C     C_R   0.642454 0.860521 0.469335 -0.211962
C47   C     C_R   0.358744 0.138895 0.500081 -0.246059
C48   C     C_R   0.438385 0.867811 0.497816 -0.291303
H1    H     H_    0.653857 0.492537 0.744193 0.148686
H2    H     H_    0.719834 0.556494 0.090399 0.122668
H3    H     H_    0.390396 0.683512 0.143984 0.127654
H4    H     H_    0.650091 0.544703 0.883621 0.124022
H5    H     H_    0.644384 0.174142 0.466472 0.166022
H6    H     H_    0.356748 0.827921 0.514433 0.174284
H7    H     H_    0.283839 0.183752 0.509562 0.165607
H8    H     H_    0.715321 0.813570 0.461434 0.157332
H9    H     H_    0.199398 0.455403 0.399904 0.151040
H10   H     H_    0.800834 0.544929 0.600060 0.147908
H11   H     H_    0.219814 0.423636 0.201406 0.266416
H12   H     H_    0.366216 0.610464 0.278748 0.157498
H13   H     H_    0.094563 0.417658 0.152282 0.260990
H14   H     H_    0.181923 0.536346 0.150508 0.242482
H15   H     H_    0.008154 0.549811 0.250898 0.219429
H16   H     H_    0.132724 0.554864 0.299001 0.216648
H17   H     H_    0.092820 0.355561 0.327003 0.201214
H18   H     H_    0.965628 0.366221 0.286144 0.191935
H19   H     H_    0.790868 0.672239 0.776469 0.263843
H20   H     H_    0.919651 0.705973 0.817610 0.257521
H21   H     H_    0.852135 0.803184 0.767486 0.251755
H22   H     H_    0.020092 0.743412 0.677251 0.228775
H23   H     H_    0.196862 0.578122 0.633468 0.129866
H24   H     H_    0.891772 0.708863 0.636779 0.224232
H25   H     H_    0.897576 0.526505 0.702904 0.198888
H26   H     H_    0.030251 0.568693 0.729337 0.192776
H27   H     H_    0.968681 0.057241 0.322154 0.260960
H28   H     H_    0.998527 0.073997 0.424591 0.258149
H29   H     H_    0.049572 0.963781 0.365079 0.250118
H30   H     H_    0.884917 0.906525 0.463309 0.221846
H31   H     H_    0.850168 0.897970 0.361409 0.225848
H32   H     H_    0.766028 0.073466 0.382212 0.205355
H33   H     H_    0.791381 0.072598 0.486088 0.200655
H34   H     H_    0.802793 0.419457 0.367294 0.130959
H35   H     H_    0.002458 0.002893 0.566749 0.270469
H36   H     H_    0.032231 0.866596 0.558641 0.260093
H37   H     H_    0.006220 0.928730 0.656813 0.252166
H38   H     H_    0.211693 0.905663 0.617208 0.215925
H39   H     H_    0.181017 0.041113 0.623340 0.227094
H40   H     H_    0.177910 0.035649 0.469283 0.207599
H41   H     H_    0.226534 0.908974 0.466450 0.194759
H42   H     H_    0.698360 0.487008 0.228396 0.141844
H43   H     H_    0.301850 0.561386 0.758213 0.142606
H44   H     H_    0.641807 0.657623 0.984223 0.147131
H45   H     H_    0.386653 0.600261 0.023101 0.148378
H46   H     H_    0.299006 0.616546 0.898590 0.123530
N1    N     N_R   0.206400 0.519440 0.514690 -0.108792
N2    N     N_R   0.793600 0.480560 0.485310 -0.107573
O1    O     O_R   0.421320 0.658850 0.503920 -0.623712
O2    O     O_R   0.578680 0.341150 0.496080 -0.620407
O3    O     O_R   0.609840 0.646370 0.494500 -0.621173
O4    O     O_R   0.390160 0.353630 0.505500 -0.618399
O5    O     O_R   0.394600 0.506990 0.621070 -0.628522
O6    O     O_R   0.605400 0.493010 0.378930 -0.627408
O7    O     O_R   0.583120 0.494520 0.611640 -0.622715
O8    O     O_R   0.416880 0.505480 0.388360 -0.627799
Zn1   Zn    Zn3+2 0.374120 0.508330 0.506290 0.932951
Zn2   Zn    Zn3+2 0.625880 0.491670 0.493710 0.935914

loop_
_geom_bond_atom_site_label_1
_geom_bond_atom_site_label_2
_ccdc_geom_bond_type
C31   H18   S    
C41   H41   S    
C35   H26   S    
C22   C29   S    
C37   H21   S    
C43   H35   S    
C41   C42   S    
C35   C36   S    
C1    O3    A    
C48   H6    S    
C7    N2    A    
C12   C23   S    
O4    Zn1   S    
C36   C37   S    
C19   C21   A    
C24   C26   A    
C26   H2    S    
C38   C39   S    
C37   H20   S    
C3    C48   A    
C6    C35   S    
C31   H17   S    
C9    H10   S    
C41   H40   S    
N1    Zn1   S    
C36   H22   S    
C33   H14   S    
C22   C25   A    
C10   C13   A    
C27   H43   S    
C34   C46   A    
C15   O8    A    
C5    C13   A    
O1    Zn1   S    
C16   C27   A    
C25   H46   S    
C33   H11   S    
C43   H36   S    
C8    N1    A    
O8    Zn1   S    
C44   C46   A    
C1    C34   S    
C45   C47   A    
O5    Zn1   S    
C23   C47   A    
C43   H37   S    
C39   H30   S    
C10   H9    S    
C32   H16   S    
C30   H44   S    
C1    O1    A    
C6    C11   A    
C5    C7    A    
C14   O5    A    
C6    C8    A    
C4    C44   A    
C3    C45   A    
C40   H28   S    
C39   H31   S    
C2    C4    A    
C38   C44   S    
C29   C30   D    
C31   C32   S    
C9    C11   A    
C9    N2    A    
C42   H38   S    
C33   H13   S    
C20   C22   A    
C38   H33   S    
C14   C16   S    
C34   C48   A    
C42   C43   S    
C3    C4    A    
C21   H3    S    
C47   H7    S    
C15   C17   S    
O3    Zn2   S    
N2    Zn2   S    
C35   H25   S    
C8    H23   S    
C17   C28   A    
C12   O2    A    
C32   H15   S    
C2    H5    S    
C19   H12   S    
C25   C27   A    
C26   C28   A    
O2    Zn2   S    
C40   H27   S    
C32   C33   S    
C20   H4    S    
C29   H45   S    
C11   C13   A    
C14   O7    A    
C38   H32   S    
C10   N1    A    
C37   H19   S    
C17   C19   A    
O6    Zn2   S    
O7    Zn2   S    
C18   C20   A    
C15   O6    A    
C24   C30   S    
C12   O4    A    
C39   C40   S    
C7    H34   S    
C16   C18   A    
C21   C24   A    
C46   H8    S    
C2    C23   A    
C41   C45   S    
C40   H29   S    
C28   H42   S    
C42   H39   S    
C36   H24   S    
C18   H1    S    
C5    C31   S    
