data_mof_unit_55890.cif
_audit_creation_date              2012-12-11T15:35:32-0500
_audit_creation_method            fapswitch 2.2
_symmetry_space_group_name_H-M    P1
_symmetry_Int_Tables_number       1
_space_group_crystal_system       triclinic
_cell_length_a                    17.358629
_cell_length_b                    24.182783
_cell_length_c                    14.864846
_cell_angle_alpha                 90.048376
_cell_angle_beta                  124.787915
_cell_angle_gamma                 90.098777
_cell_volume                      5124.67258265

loop_
_atom_site_label
_atom_site_type_symbol
_atom_type_description
_atom_site_fract_x
_atom_site_fract_y
_atom_site_fract_z
_atom_type_partial_charge
C1    C     C_R   0.308976 0.123193 0.907149 -0.129478
C2    C     C_R   0.556622 0.153173 0.910614 -0.145533
C3    C     C_R   0.267546 0.546943 0.250906 -0.161304
C4    C     C_3   0.900617 0.868809 0.580441 -0.977823
C5    C     C_3   0.916635 0.097205 0.651971 -0.942401
C6    C     C_3   0.348791 0.440163 0.549420 -0.951782
C7    C     C_3   0.435513 0.654422 0.480100 -0.850949
C8    C     C_3   0.102334 0.922005 0.403633 -0.952578
C9    C     C_3   0.156970 0.090393 0.441800 -0.969361
C10   C     C_3   0.582129 0.369913 0.435360 -0.983328
C11   C     C_3   0.732472 0.522194 0.453922 -0.977987
C12   C     C_3   0.685274 0.857321 0.585042 -0.929169
C13   C     C_R   0.055572 0.346633 0.910347 -0.146511
C14   C     C_3   0.681320 0.135753 0.525766 -0.972616
C15   C     C_3   0.025456 0.362503 0.451544 -0.939193
C16   C     C_3   0.244779 0.593213 0.539409 -0.948755
C17   C     C_2   0.698446 0.169394 0.206255 0.896356
C18   C     C_2   0.697172 0.829883 0.204954 0.888791
C19   C     C_2   0.183134 0.672075 0.203854 0.917588
C20   C     C_2   0.190358 0.329423 0.205669 0.896749
C21   C     C_R   0.054631 0.653398 0.910094 -0.144597
C22   C     C_R   0.550686 0.000882 0.725631 0.076260
C23   C     C_R   0.051127 0.499765 0.726215 0.078377
C24   C     C_R   0.804946 0.999357 0.362581 -0.009392
C25   C     C_R   0.325008 0.501755 0.293535 0.027907
C26   C     C_R   0.617574 0.185483 0.001232 -0.033351
C27   C     C_R   0.617114 0.814685 0.000059 -0.030794
C28   C     C_R   0.112223 0.686730 0.000120 -0.030234
C29   C     C_R   0.308916 0.876672 0.907005 -0.130344
C30   C     C_R   0.114699 0.313892 0.000730 -0.028790
C31   C     C_3   0.049481 0.942532 0.573945 -0.517573
C32   C     C_3   0.049111 0.042832 0.606438 -0.492945
C33   C     C_3   0.547317 0.469590 0.572827 -0.508039
C34   C     C_3   0.567550 0.561810 0.513683 -0.505780
C35   C     C_3   0.942491 0.941785 0.500289 0.051348
C36   C     C_3   0.942001 0.047552 0.526011 0.023938
C37   C     C_3   0.443045 0.467613 0.480189 0.060318
C38   C     C_3   0.463225 0.564454 0.422541 0.031537
C39   C     C_3   0.055752 0.014544 0.444722 0.356914
C40   C     C_R   0.808487 0.622355 0.906853 -0.131250
C41   C     C_3   0.588783 0.476653 0.428672 0.372293
C42   C     C_3   0.089343 0.999083 0.565126 0.253584
C43   C     C_3   0.604092 0.501214 0.536682 0.245192
C44   C     C_3   0.906851 0.998933 0.441602 0.171050
C45   C     C_3   0.425353 0.503547 0.382888 0.153127
C46   C     C_R   0.400121 0.874724 0.091024 -0.078939
C47   C     C_R   0.400290 0.125116 0.091240 -0.071223
C48   C     C_R   0.899911 0.375682 0.091296 -0.080134
C49   C     C_R   0.899888 0.624661 0.091008 -0.060388
C50   C     C_3   0.947641 0.007069 0.371493 -0.607065
C51   C     C_R   0.808187 0.377878 0.907131 -0.129360
C52   C     C_3   0.479769 0.476467 0.339062 -0.590858
C53   C     C_R   0.163610 0.808321 0.892835 -0.168569
C54   C     C_R   0.163120 0.190444 0.893954 -0.175784
C55   C     C_R   0.662096 0.310955 0.894792 -0.170103
C56   C     C_R   0.663452 0.690143 0.893467 -0.165452
C57   C     C_R   0.615719 0.265055 0.896168 -0.158931
C58   C     C_R   0.616761 0.735779 0.894668 -0.161175
C59   C     C_R   0.113945 0.764137 0.893579 -0.157768
C60   C     C_R   0.114771 0.235257 0.894931 -0.153529
C61   C     C_R   0.637824 0.244212 0.996200 0.131247
C62   C     C_R   0.648819 0.151780 0.091877 -0.008619
C63   C     C_R   0.637481 0.756135 0.994451 0.133737
C64   C     C_R   0.131639 0.745429 0.992895 0.127959
C65   C     C_R   0.134705 0.255254 0.994621 0.129299
C66   C     C_R   0.690308 0.277699 0.090183 -0.121281
C67   C     C_R   0.688940 0.722454 0.087968 -0.118984
C68   C     C_R   0.181865 0.780250 0.085020 -0.123023
C69   C     C_R   0.186471 0.221495 0.087853 -0.116740
C70   C     C_R   0.236394 0.822926 0.086202 -0.168750
C71   C     C_R   0.239441 0.178194 0.088483 -0.166181
C72   C     C_R   0.740968 0.322218 0.090062 -0.169064
C73   C     C_R   0.648103 0.848112 0.091144 -0.006099
C74   C     C_R   0.739980 0.678204 0.088150 -0.171174
C75   C     C_R   0.233826 0.833333 0.992019 0.139785
C76   C     C_R   0.234503 0.166351 0.993246 0.139876
C77   C     C_R   0.733895 0.335125 0.993982 0.140045
C78   C     C_R   0.734177 0.665687 0.992693 0.142223
C79   C     C_R   0.619382 0.954376 0.637170 -0.203585
C80   C     C_R   0.603274 0.053308 0.628835 -0.257467
C81   C     C_R   0.109759 0.448638 0.633816 -0.238965
C82   C     C_R   0.115672 0.547943 0.635275 -0.272599
C83   C     C_R   0.631596 0.955681 0.551527 0.166397
C84   C     C_R   0.143556 0.653284 0.091390 -0.038927
C85   C     C_R   0.605442 0.055483 0.537511 0.197208
C86   C     C_R   0.110822 0.446660 0.541310 0.150451
C87   C     C_R   0.126656 0.546985 0.549365 0.170326
C88   C     C_R   0.608106 0.005169 0.489529 -0.049867
C89   C     C_R   0.107702 0.496984 0.489696 0.012840
C90   C     C_R   0.550991 0.046740 0.303174 -0.129333
C91   C     C_R   0.549139 0.955795 0.305267 -0.137915
C92   C     C_R   0.048813 0.544717 0.304842 -0.119651
C93   C     C_R   0.052533 0.453866 0.304286 -0.130606
C94   C     C_R   0.596035 0.002704 0.667778 0.077195
C95   C     C_R   0.145872 0.347492 0.091813 -0.024431
C96   C     C_R   0.097202 0.498955 0.669238 0.106949
C97   C     C_R   0.244301 0.953670 0.698237 -0.158570
C98   C     C_R   0.243808 0.045605 0.697561 -0.172034
C99   C     C_R   0.747916 0.454230 0.694020 -0.165166
C100  C     C_R   0.749704 0.546173 0.695245 -0.168974
C101  C     C_R   0.310536 0.137107 0.998296 0.018159
C102  C     C_R   0.310349 0.862605 0.997896 0.019998
C103  C     C_R   0.809942 0.636189 0.997911 0.011036
C104  C     C_R   0.809721 0.364325 0.998450 0.020840
C105  C     C_R   0.569754 0.002465 0.371006 0.045928
C106  C     C_R   0.556604 0.847060 0.909833 -0.148743
C107  C     C_R   0.070046 0.498547 0.371282 0.054835
C108  C     C_R   0.192244 0.999345 0.640547 0.097850
C109  C     C_R   0.701901 0.500486 0.632744 0.090272
C110  C     C_R   0.518748 0.046489 0.751720 -0.123822
C111  C     C_R   0.519531 0.954366 0.751061 -0.128221
C112  C     C_R   0.019527 0.545968 0.751467 -0.125709
C113  C     C_R   0.019129 0.453827 0.751706 -0.132576
C114  C     C_R   0.755304 0.953876 0.302220 -0.111960
C115  C     C_R   0.756377 0.045484 0.303319 -0.138995
C116  C     C_R   0.270002 0.454565 0.260692 -0.109863
H1    H     H_    0.251656 0.126686 0.822431 0.092555
H2    H     H_    0.926142 0.087215 0.480663 0.129080
H3    H     H_    0.743241 0.863462 0.672641 0.249557
H4    H     H_    0.548538 0.134063 0.493013 0.170801
H5    H     H_    0.724533 0.141758 0.616050 0.262864
H6    H     H_    0.666301 0.176864 0.485950 0.257264
H7    H     H_    0.720440 0.111093 0.501499 0.266578
H8    H     H_    0.169738 0.370715 0.556485 0.180572
H9    H     H_    0.029170 0.325042 0.410949 0.265770
H10   H     H_    0.964586 0.387653 0.388726 0.254115
H11   H     H_    0.014623 0.349291 0.515135 0.248813
H12   H     H_    0.146670 0.632142 0.555063 0.168793
H13   H     H_    0.425917 0.424002 0.451660 0.132549
H14   H     H_    0.300759 0.585174 0.627027 0.258875
H15   H     H_    0.260150 0.632948 0.515368 0.246380
H16   H     H_    0.244730 0.559854 0.488099 0.267623
H17   H     H_    0.693346 0.181833 0.336685 0.315354
H18   H     H_    0.817343 0.801285 0.339097 0.311405
H19   H     H_    0.169470 0.675609 0.329513 0.316269
H20   H     H_    0.305770 0.299200 0.343510 0.317464
H21   H     H_    0.454215 0.587112 0.351835 0.120850
H22   H     H_    0.927081 0.971193 0.315269 0.195147
H23   H     H_    0.914370 0.042953 0.315121 0.180860
H24   H     H_    0.451722 0.434424 0.307997 0.204195
H25   H     H_    0.462071 0.499074 0.264331 0.163269
H26   H     H_    0.153721 0.817436 0.815874 0.104350
H27   H     H_    0.151274 0.179998 0.816413 0.108439
H28   H     H_    0.648872 0.322198 0.816918 0.107615
H29   H     H_    0.251484 0.873242 0.822355 0.092973
H30   H     H_    0.651248 0.679339 0.815877 0.106818
H31   H     H_    0.570634 0.243272 0.819645 0.108959
H32   H     H_    0.572611 0.757799 0.818456 0.110861
H33   H     H_    0.070385 0.741561 0.817738 0.109162
H34   H     H_    0.070049 0.257098 0.818635 0.110474
H35   H     H_    0.697772 0.268551 0.165481 0.142822
H36   H     H_    0.695315 0.731259 0.162788 0.138679
H37   H     H_    0.183551 0.773624 0.157535 0.150264
H38   H     H_    0.191056 0.229571 0.161820 0.143450
H39   H     H_    0.284055 0.845173 0.161729 0.119695
H40   H     H_    0.750950 0.625101 0.821913 0.095841
H41   H     H_    0.288172 0.156797 0.164487 0.115096
H42   H     H_    0.790288 0.343467 0.166308 0.117437
H43   H     H_    0.788459 0.656763 0.164188 0.113626
H44   H     H_    0.624536 0.916031 0.677378 0.135502
H45   H     H_    0.596488 0.091901 0.660255 0.121825
H46   H     H_    0.108204 0.410056 0.669345 0.126974
H47   H     H_    0.118041 0.587098 0.672054 0.118278
H48   H     H_    0.425277 0.868553 0.175556 0.106690
H49   H     H_    0.425600 0.131263 0.175867 0.105060
H50   H     H_    0.925385 0.369732 0.175997 0.109002
H51   H     H_    0.750406 0.375092 0.822263 0.095254
H52   H     H_    0.925118 0.630904 0.175563 0.102401
H53   H     H_    0.570778 0.089219 0.324330 0.171972
H54   H     H_    0.561544 0.913080 0.330009 0.144996
H55   H     H_    0.061120 0.587521 0.329008 0.158966
H56   H     H_    0.074771 0.411843 0.327280 0.181068
H57   H     H_    0.231154 0.910883 0.673032 0.089551
H58   H     H_    0.229317 0.088138 0.670772 0.118248
H59   H     H_    0.734204 0.411647 0.666909 0.119904
H60   H     H_    0.740739 0.588877 0.669693 0.094937
H61   H     H_    0.528349 0.089689 0.743088 0.094639
H62   H     H_    0.074458 0.935766 0.660776 0.177856
H63   H     H_    0.530377 0.911542 0.740705 0.096779
H64   H     H_    0.030307 0.588901 0.741714 0.095982
H65   H     H_    0.029066 0.410740 0.742431 0.096468
H66   H     H_    0.768162 0.911949 0.330145 0.139613
H67   H     H_    0.773413 0.087409 0.331683 0.134491
H68   H     H_    0.294285 0.412800 0.281246 0.122513
H69   H     H_    0.287773 0.589314 0.256171 0.131681
H70   H     H_    0.508616 0.833167 0.826316 0.098894
H71   H     H_    0.508263 0.167257 0.827471 0.096956
H72   H     H_    0.007490 0.332781 0.826827 0.097338
H73   H     H_    0.068981 0.030580 0.689356 0.194350
H74   H     H_    0.006374 0.666756 0.826401 0.096850
H75   H     H_    0.075445 0.906109 0.554294 0.168111
H76   H     H_    0.078761 0.084887 0.616143 0.154277
H77   H     H_    0.573090 0.426881 0.600609 0.161399
H78   H     H_    0.606670 0.588940 0.492455 0.158350
H79   H     H_    0.928954 0.950205 0.632034 0.207445
H80   H     H_    0.874248 0.862597 0.632358 0.267031
H81   H     H_    0.971951 0.850624 0.623258 0.255067
H82   H     H_    0.852503 0.847187 0.501394 0.264220
H83   H     H_    0.827211 0.038431 0.538198 0.178059
H84   H     H_    0.558454 0.490337 0.646379 0.178510
H85   H     H_    0.882235 0.092564 0.695631 0.261715
H86   H     H_    0.889109 0.134875 0.600142 0.253072
H87   H     H_    0.993013 0.102291 0.714670 0.261802
H88   H     H_    0.410155 0.517204 0.571846 0.193806
H89   H     H_    0.304417 0.457761 0.574101 0.257666
H90   H     H_    0.407540 0.416878 0.619600 0.253707
H91   H     H_    0.304635 0.411697 0.479223 0.268059
H92   H     H_    0.349682 0.584886 0.437582 0.187633
H93   H     H_    0.384869 0.674796 0.492395 0.250571
H94   H     H_    0.429486 0.673317 0.408348 0.283821
H95   H     H_    0.579772 0.579154 0.590302 0.190034
H96   H     H_    0.507076 0.662328 0.554160 0.229460
H97   H     H_    0.078707 0.996144 0.324024 0.193087
H98   H     H_    0.119391 0.906628 0.346472 0.253426
H99   H     H_    0.034325 0.903335 0.378046 0.256490
H100  H     H_    0.160127 0.908065 0.486025 0.251376
H101  H     H_    0.027625 0.103211 0.422152 0.178596
H102  H     H_    0.179034 0.132757 0.476253 0.254930
H103  H     H_    0.136433 0.090881 0.356100 0.259215
H104  H     H_    0.217632 0.062314 0.491772 0.267866
H105  H     H_    0.671849 0.415895 0.417764 0.196156
H106  H     H_    0.922478 0.909361 0.437149 0.143576
H107  H     H_    0.539524 0.356370 0.348356 0.269536
H108  H     H_    0.536799 0.373271 0.464599 0.256970
H109  H     H_    0.634672 0.337214 0.484240 0.254312
H110  H     H_    0.594230 0.547695 0.345177 0.167841
H111  H     H_    0.751029 0.559370 0.506332 0.252323
H112  H     H_    0.754572 0.529654 0.398103 0.262652
H113  H     H_    0.772335 0.486257 0.506394 0.259266
H114  H     H_    0.710834 0.917939 0.504096 0.193343
H115  H     H_    0.706969 0.825525 0.549791 0.262273
H116  H     H_    0.621401 0.841737 0.577027 0.253894
N1    N     N_R   0.392140 0.102630 0.941800 -0.043847
N2    N     N_R   0.525160 0.972040 0.206160 -0.043756
N3    N     N_R   0.025160 0.527960 0.206160 -0.043266
N4    N     N_R   0.025160 0.472040 0.206160 -0.050326
N5    N     N_R   0.317870 0.971120 0.792790 -0.037787
N6    N     N_R   0.317870 0.028880 0.792790 -0.039063
N7    N     N_R   0.817870 0.471120 0.792790 -0.039367
N8    N     N_R   0.817870 0.528880 0.792790 -0.036102
N9    N     N_R   0.473480 0.027920 0.793480 -0.041020
N10   N     N_R   0.473480 0.972080 0.793480 -0.039732
N11   N     N_R   0.973480 0.527920 0.793480 -0.039963
N12   N     N_R   0.392140 0.897370 0.941800 -0.044056
N13   N     N_R   0.973480 0.472080 0.793480 -0.040501
N14   N     N_R   0.681610 0.971120 0.207570 -0.045256
N15   N     N_R   0.681610 0.028880 0.207570 -0.040496
N16   N     N_R   0.181610 0.471120 0.207570 -0.038032
N17   N     N_R   0.181610 0.528880 0.207570 -0.032615
N18   N     N_R   0.605410 0.102620 0.056870 -0.067789
N19   N     N_R   0.605410 0.897380 0.056870 -0.070649
N20   N     N_R   0.105410 0.602620 0.056870 -0.063705
N21   N     N_R   0.105410 0.397380 0.056870 -0.067625
N22   N     N_R   0.549680 0.896430 0.944180 -0.049060
N23   N     N_R   0.892140 0.602630 0.941800 -0.045200
N24   N     N_R   0.549680 0.103570 0.944180 -0.049155
N25   N     N_R   0.049680 0.396430 0.944180 -0.048648
N26   N     N_R   0.049680 0.603570 0.944180 -0.048391
N27   N     N_2   0.903309 0.927309 0.561856 -0.108702
N28   N     N_2   0.897399 0.048710 0.584690 -0.106954
N29   N     N_2   0.385031 0.484378 0.517877 -0.104653
N30   N     N_2   0.416693 0.595465 0.463644 -0.112242
N31   N     N_2   0.098053 0.981841 0.399645 -0.098691
N32   N     N_2   0.077720 0.073376 0.443696 -0.127985
N33   N     N_2   0.630836 0.421114 0.446965 -0.113674
N34   N     N_R   0.892140 0.397370 0.941800 -0.044890
N35   N     N_2   0.631680 0.513148 0.389041 -0.124700
N36   N     N_2   0.665175 0.908584 0.525354 -0.111524
N37   N     N_2   0.594191 0.108302 0.489630 -0.121512
N38   N     N_2   0.111853 0.393801 0.500290 -0.119128
N39   N     N_2   0.154363 0.596399 0.522981 -0.120205
N40   N     N_R   0.450890 0.896450 0.057150 -0.035452
N41   N     N_R   0.450890 0.103550 0.057150 -0.032481
N42   N     N_R   0.950890 0.396450 0.057150 -0.033584
N43   N     N_R   0.950890 0.603550 0.057150 -0.027038
N44   N     N_R   0.525160 0.027960 0.206160 -0.046469
Ni1   Ni    Ni4+2 0.433410 0.064680 0.868830 0.207272
Ni2   Ni    Ni4+2 0.433410 0.935320 0.868830 0.208269
Ni3   Ni    Ni4+2 0.933410 0.564680 0.868830 0.205092
Ni4   Ni    Ni4+2 0.933410 0.435320 0.868830 0.205297
Ni5   Ni    Ni4+2 0.565650 0.934380 0.131170 0.255892
Ni6   Ni    Ni4+2 0.565650 0.065620 0.131170 0.249650
Ni7   Ni    Ni4+2 0.065650 0.434380 0.131170 0.261630
Ni8   Ni    Ni4+2 0.065650 0.565620 0.131170 0.258432
O1    O     O_2   0.781063 0.182881 0.256840 -0.668011
O2    O     O_R   0.651635 0.169178 0.257616 -0.823001
O3    O     O_2   0.656018 0.829114 0.249690 -0.668754
O4    O     O_R   0.791347 0.814269 0.262021 -0.819221
O5    O     O_2   0.260425 0.693900 0.257315 -0.684633
O6    O     O_R   0.134714 0.661527 0.251426 -0.815984
O7    O     O_2   0.149189 0.335555 0.249658 -0.667696
O8    O     O_R   0.281873 0.308699 0.265265 -0.825249

loop_
_geom_bond_atom_site_label_1
_geom_bond_atom_site_label_2
_ccdc_geom_bond_type
C9    H102  S    
C20   C95   S    
C9    N32   S    
C93   H56   S    
C24   C114  A    
C47   C101  A    
C31   C42   S    
C25   C45   S    
C84   N20   A    
C22   C94   S    
C81   H46   S    
C91   C105  A    
N6    Ni1   S    
C41   N33   S    
N7    N8    A    
C40   N23   A    
C8    H99   S    
C16   N39   S    
C80   C85   A    
C7    H96   S    
C53   C59   A    
C14   N37   S    
H92   N30   S    
C57   H31   S    
H114  N36   S    
C23   C112  A    
C46   C102  A    
C91   N2    A    
H8    N38   S    
C59   C64   A    
C72   C77   A    
N18   Ni6   S    
C74   H43   S    
C7    N30   S    
C70   C75   A    
C14   H6    S    
N41   Ni6   S    
C64   C68   A    
C83   N36   S    
C10   N33   S    
C26   C61   S    
N9    N10   A    
N17   Ni8   S    
C8    H98   S    
C39   N32   S    
C38   N30   S    
C29   H29   S    
C71   C76   A    
C98   H58   S    
C58   H32   S    
C21   N26   A    
C85   C88   A    
C18   O4    S    
C82   H47   S    
C92   H55   S    
C82   C87   A    
C99   C109  A    
C51   N34   A    
C31   H75   S    
N40   Ni5   S    
C56   C78   A    
C23   C96   S    
C32   H76   S    
N14   Ni5   S    
C53   H26   S    
N19   Ni5   S    
C85   N37   S    
C69   C71   A    
C16   H15   S    
C13   N25   A    
C2    H71   S    
C38   C45   S    
C80   H45   S    
C113  N13   A    
C87   N39   S    
H83   N28   S    
C97   C108  A    
C51   H51   S    
C61   C66   A    
C29   N12   A    
C112  N11   A    
C66   C72   A    
C116  N16   A    
C1    N1    A    
C11   H112  S    
C22   C110  A    
C15   H10   S    
C100  H60   S    
C10   H109  S    
H18   O4    S    
N3    N4    A    
C22   C111  A    
C100  N8    A    
C55   H28   S    
C56   C58   A    
C6    N29   S    
C15   N38   S    
C36   H2    S    
C95   N21   A    
C41   C52   S    
C74   C78   A    
C81   C86   A    
C10   H108  S    
H110  N35   S    
C112  H64   S    
C99   N7    A    
C34   H78   S    
C4    H82   S    
C83   C88   A    
C67   H36   S    
C33   H77   S    
C100  C109  A    
C11   H113  S    
H101  N32   S    
C46   H48   S    
N5    N6    A    
C111  H63   S    
C41   C43   S    
C53   C75   A    
N4    Ni7   S    
C3    H69   S    
C7    H93   S    
C42   C108  S    
C12   H116  S    
C39   C42   S    
C115  N15   A    
C90   N44   A    
C59   H33   S    
C93   N4    A    
N18   N24   A    
C71   H41   S    
C106  N22   A    
C63   C67   A    
C82   C96   A    
N42   Ni7   S    
C31   H62   S    
N20   N26   A    
C70   H39   S    
C33   C43   S    
N9    Ni1   S    
C13   C30   A    
C3    C25   A    
C97   H57   S    
C86   N38   S    
C49   H52   S    
C68   H37   S    
H20   O8    S    
C35   H106  S    
N11   Ni3   S    
C79   H44   S    
C81   C96   A    
C50   H23   S    
C34   C38   S    
N19   N22   A    
C1    H1    S    
C18   O3    D    
C33   H84   S    
N11   N13   A    
C51   C104  A    
C114  H66   S    
C75   C102  S    
C19   O6    S    
C5    N28   S    
C33   C37   S    
H4    N37   S    
N23   N43   A    
C20   O8    S    
C12   N36   S    
N2    N44   A    
C5    H87   S    
C30   C95   A    
C35   C44   S    
C35   N27   S    
C17   C62   S    
C23   C113  A    
C12   H3    S    
C17   O1    D    
C25   C116  A    
N24   Ni1   S    
C92   C107  A    
H105  N33   S    
N2    Ni5   S    
N1    N41   A    
N7    Ni4   S    
C89   C107  S    
N12   Ni2   S    
N8    Ni3   S    
C48   H50   S    
C2    C26   A    
C67   C74   A    
C60   H34   S    
C8    N31   S    
N43   Ni8   S    
C106  H70   S    
C6    H91   S    
C27   C63   S    
C10   H107  S    
C79   C94   A    
C54   C76   A    
C28   C64   S    
C9    H104  S    
C68   C70   A    
C4    H81   S    
C21   C28   A    
H97   N31   S    
C60   C65   A    
C32   C36   S    
C18   C73   S    
C55   C57   A    
C55   C77   A    
C15   H9    S    
C30   C65   S    
C24   C44   S    
H12   N39   S    
C31   C35   S    
C41   N35   S    
C113  H65   S    
C32   C42   S    
N10   Ni2   S    
C37   C45   S    
C19   C84   S    
C1    C101  A    
C5    H86   S    
C7    H94   S    
C16   H14   S    
N16   N17   A    
C12   H115  S    
C72   H42   S    
C44   C50   S    
C76   C101  S    
C4    H80   S    
N14   N15   A    
C46   N40   A    
C14   H7    S    
C91   H54   S    
N23   Ni3   S    
C78   C103  S    
N12   N40   A    
C98   C108  A    
C6    H89   S    
H79   N27   S    
C34   C43   S    
C58   C63   A    
C90   C105  A    
C88   C105  S    
C8    H100  S    
C86   C89   A    
C2    N24   A    
C49   C103  A    
C115  H67   S    
H88   N29   S    
C47   N41   A    
C57   C61   A    
C24   C115  A    
C98   N6    A    
N3    Ni8   S    
N15   Ni6   S    
C97   N5    A    
C92   N3    A    
C52   H25   S    
C45   C52   S    
C47   H49   S    
C54   C60   A    
N34   Ni4   S    
N20   Ni8   S    
N5    Ni2   S    
C26   C62   A    
C28   C84   A    
C110  H61   S    
C66   H35   S    
C39   N31   S    
C93   C107  A    
C40   C103  A    
C5    H85   S    
C17   O2    S    
N22   Ni2   S    
C110  N9    A    
C9    H103  S    
C21   H74   S    
C114  N14   A    
N44   Ni6   S    
C20   O7    D    
N34   N42   A    
C65   C69   A    
C116  H68   S    
C90   H53   S    
C4    N27   S    
C52   H24   S    
C38   H21   S    
C37   H13   S    
C32   H73   S    
C54   H27   S    
N13   Ni4   S    
N1    Ni1   S    
C29   C102  A    
C56   H30   S    
C16   H16   S    
H19   O6    S    
C37   N29   S    
C27   C106  A    
C6    H90   S    
C111  N10   A    
C36   C44   S    
C34   H95   S    
C79   C83   A    
N21   N25   A    
C62   N18   A    
C39   C50   S    
C99   H59   S    
C49   N43   A    
N25   Ni4   S    
C11   H111  S    
H17   O2    S    
C19   O5    D    
C69   H38   S    
N26   Ni3   S    
C14   H5    S    
C87   C89   A    
C11   N35   S    
C50   H22   S    
C40   H40   S    
C77   C104  S    
C15   H11   S    
C43   C109  S    
C13   H72   S    
C27   C73   A    
C80   C94   A    
N16   Ni7   S    
N21   Ni7   S    
C36   N28   S    
C48   N42   A    
C3    N17   A    
C73   N19   A    
C48   C104  A    
