data_mof_unit_65464.cif
_audit_creation_date              2012-12-10T20:09:54-0500
_audit_creation_method            fapswitch 2.2
_symmetry_space_group_name_H-M    P1
_symmetry_Int_Tables_number       1
_space_group_crystal_system       triclinic
_cell_length_a                    38.780321
_cell_length_b                    32.079201
_cell_length_c                    21.652763
_cell_angle_alpha                 90.000384
_cell_angle_beta                  124.185173
_cell_angle_gamma                 89.99995
_cell_volume                      22282.93749

loop_
_atom_site_label
_atom_site_type_symbol
_atom_type_description
_atom_site_fract_x
_atom_site_fract_y
_atom_site_fract_z
_atom_type_partial_charge
C1    C     C_R   0.919312 0.999984 0.419734 0.897965
C2    C     C_R   0.027223 0.972056 0.247018 -0.001226
C3    C     C_R   0.000111 0.999034 0.120480 0.875019
C4    C     C_R   0.499889 0.499034 0.879520 0.875340
C5    C     C_R   0.500111 0.499034 0.120480 0.875338
C6    C     C_R   0.000000 0.080686 0.000000 0.899754
C7    C     C_R   0.500000 0.580686 0.000000 0.900407
C8    C     C_R   0.500000 0.919514 1.000000 0.894299
C9    C     C_R   0.000000 0.419514 1.000000 0.894261
C10   C     C_R   0.580552 0.999996 0.080622 0.888707
C11   C     C_R   0.419448 0.999996 0.919378 0.888708
C12   C     C_R   0.080552 0.499996 0.080622 0.888704
C13   C     C_R   0.472775 0.472058 0.752979 -0.001234
C14   C     C_R   0.919448 0.499996 0.919378 0.888703
C15   C     C_R   0.500000 0.080606 0.000000 0.900767
C16   C     C_R   0.000000 0.580606 0.000000 0.900779
C17   C     C_R   0.503728 0.228286 0.059576 -0.165268
C18   C     C_R   0.496271 0.228285 0.940425 -0.165272
C19   C     C_R   0.003714 0.728286 0.059564 -0.165280
C20   C     C_R   0.996287 0.728285 0.940439 -0.165281
C21   C     C_R   0.500000 0.206648 0.000000 0.159961
C22   C     C_R   0.000001 0.706648 0.000002 0.159970
C23   C     C_R   0.996294 0.771723 0.940444 -0.180053
C24   C     C_R   0.527226 0.472058 0.247021 -0.001233
C25   C     C_R   0.003707 0.771724 0.059559 -0.180049
C26   C     C_R   0.496278 0.271723 0.940430 -0.180049
C27   C     C_R   0.503721 0.271724 0.059571 -0.180048
C28   C     C_R   0.054143 0.098822 0.752688 -0.224714
C29   C     C_R   0.945840 0.098808 0.247318 -0.224696
C30   C     C_R   0.554155 0.598804 0.752647 -0.225433
C31   C     C_R   0.445842 0.598800 0.247356 -0.225430
C32   C     C_R   0.000001 0.793347 0.000002 0.169826
C33   C     C_R   0.500000 0.293347 0.000000 0.169824
C34   C     C_1   0.500000 0.162206 0.000001 -0.056030
C35   C     C_R   0.974214 0.973041 0.690556 -0.228149
C36   C     C_1   0.000000 0.662206 0.000001 -0.056049
C37   C     C_1   0.000000 0.837756 0.000001 -0.095317
C38   C     C_1   0.500000 0.337756 0.000000 -0.095313
C39   C     C_1   1.000000 0.875063 0.000001 -0.196442
C40   C     C_1   0.500000 0.375063 1.000000 -0.196440
C41   C     C_1   0.500000 0.124881 0.000000 -0.157012
C42   C     C_1   0.000000 0.624881 0.000001 -0.157048
C43   C     C_R   0.502454 0.771877 0.946508 -0.252288
C44   C     C_R   0.497546 0.771878 0.053491 -0.252295
C45   C     C_R   0.009550 0.271877 0.955345 -0.252411
C46   C     C_R   0.025790 0.973044 0.309449 -0.228158
C47   C     C_R   0.990450 0.271877 0.044654 -0.252414
C48   C     C_R   0.500000 0.793494 1.000000 -0.032711
C49   C     C_R   0.000000 0.293494 1.000000 -0.032815
C50   C     C_R   0.990437 0.228434 0.044717 0.587449
C51   C     C_R   0.009563 0.228433 0.955282 0.587450
C52   C     C_R   0.497541 0.728434 0.053564 0.587452
C53   C     C_R   0.502460 0.728434 0.946435 0.587452
C54   C     C_R   0.000000 0.206736 1.000000 -0.150331
C55   C     C_R   0.500000 0.706736 1.000000 -0.150204
C56   C     C_1   0.500000 0.837929 0.999999 0.039127
C57   C     C_R   0.474206 0.473046 0.690548 -0.228005
C58   C     C_1   0.000000 0.337929 0.999999 0.039061
C59   C     C_R   0.057968 0.055611 0.747728 0.127608
C60   C     C_R   0.942019 0.055595 0.252262 0.127613
C61   C     C_R   0.557983 0.555589 0.747738 0.127733
C62   C     C_R   0.442014 0.555585 0.252261 0.127734
C63   C     C_1   0.000000 0.162258 1.000000 0.146685
C64   C     C_1   0.500000 0.662258 0.000000 0.146772
C65   C     C_1   0.000000 0.124942 1.000000 -0.137200
C66   C     C_1   0.500000 0.624942 0.000000 -0.137163
C67   C     C_1   0.500000 0.875248 1.000000 -0.165987
C68   C     C_R   0.525794 0.473047 0.309453 -0.228008
C69   C     C_1   1.000000 0.375248 0.999999 -0.166036
C70   C     C_R   0.091134 0.040045 0.745613 -0.242793
C71   C     C_R   0.908848 0.040017 0.254350 -0.242869
C72   C     C_R   0.591161 0.540006 0.745675 -0.243276
C73   C     C_R   0.408835 0.540000 0.254317 -0.243292
C74   C     C_R   0.119994 0.067448 0.748264 -0.209898
C75   C     C_R   0.879977 0.067411 0.251685 -0.209917
C76   C     C_R   0.620032 0.567397 0.748335 -0.209821
C77   C     C_R   0.379962 0.567389 0.251655 -0.209824
C78   C     C_R   0.115755 0.110434 0.752392 0.724711
C79   C     C_R   0.001610 0.000013 0.687972 -0.078067
C80   C     C_R   0.884213 0.110399 0.247573 0.724736
C81   C     C_R   0.615790 0.610386 0.752412 0.725071
C82   C     C_R   0.384204 0.610379 0.247583 0.725075
C83   C     C_R   0.027061 0.025516 0.810622 -0.224584
C84   C     C_R   0.972934 0.025511 0.189375 -0.224572
C85   C     C_R   0.527067 0.525510 0.810626 -0.224122
C86   C     C_R   0.472932 0.525509 0.189374 -0.224119
C87   C     C_R   0.998391 0.000012 0.312029 -0.078072
C88   C     C_R   0.501607 0.500012 0.687969 -0.077865
C89   C     C_R   0.080688 0.999984 0.580266 0.897943
C90   C     C_R   0.498392 0.500011 0.312031 -0.077866
C91   C     C_R   0.028182 0.026819 0.747892 0.027467
C92   C     C_R   0.971813 0.026812 0.252104 0.027456
C93   C     C_R   0.528188 0.526810 0.747896 0.027761
C94   C     C_R   0.471811 0.526808 0.252104 0.027759
C95   C     C_R   0.900466 0.946990 0.701502 -0.124828
C96   C     C_R   0.099539 0.946998 0.298506 -0.124817
C97   C     C_R   0.400458 0.447002 0.701492 -0.124433
C98   C     C_R   0.599543 0.447003 0.298510 -0.124431
C99   C     C_R   0.872823 0.918628 0.700618 -0.122502
C100  C     C_R   0.419312 0.499984 0.419734 0.897905
C101  C     C_R   0.127185 0.918638 0.299391 -0.122470
C102  C     C_R   0.372811 0.418643 0.700607 -0.122641
C103  C     C_R   0.627191 0.418646 0.299395 -0.122633
C104  C     C_R   0.888081 0.885505 0.751252 -0.102978
C105  C     C_R   0.111929 0.885515 0.248755 -0.102992
C106  C     C_R   0.388066 0.385520 0.751243 -0.103084
C107  C     C_R   0.611936 0.385523 0.248758 -0.103088
C108  C     C_R   0.930995 0.880722 0.802873 -0.117111
C109  C     C_R   0.069015 0.880729 0.197132 -0.117108
C110  C     C_R   0.430980 0.380734 0.802866 -0.117011
C111  C     C_R   0.580688 0.499984 0.580266 0.897901
C112  C     C_R   0.569023 0.380736 0.197134 -0.117011
C113  C     C_R   0.958769 0.909248 0.804475 -0.134078
C114  C     C_R   0.041239 0.909254 0.195529 -0.134058
C115  C     C_R   0.458757 0.409257 0.804468 -0.134204
C116  C     C_R   0.541245 0.409258 0.195532 -0.134197
C117  C     C_R   0.000970 0.000044 0.621276 0.878206
C118  C     C_R   0.999030 0.000044 0.378725 0.878220
C119  C     C_R   0.500969 0.500044 0.621274 0.878187
C120  C     C_R   0.499031 0.500044 0.378726 0.878189
C121  C     C_R   0.943624 0.942625 0.753769 0.118687
C122  C     C_R   0.999785 0.998429 0.813346 -0.078424
C123  C     C_R   0.056382 0.942630 0.246236 0.118685
C124  C     C_R   0.443615 0.442633 0.753761 0.118548
C125  C     C_R   0.556386 0.442634 0.246239 0.118547
C126  C     C_R   0.728356 0.002822 0.173283 0.688205
C127  C     C_R   0.271645 0.002911 0.826709 0.688197
C128  C     C_R   0.228356 0.502768 0.173277 0.688180
C129  C     C_R   0.771644 0.502787 0.826721 0.688179
C130  C     C_R   0.706590 0.999936 0.207282 -0.088920
C131  C     C_R   0.293410 0.999936 0.792718 -0.088928
C132  C     C_R   0.206590 0.499937 0.207282 -0.088872
C133  C     C_R   0.000215 0.998429 0.186654 -0.078437
C134  C     C_R   0.793410 0.499938 0.792718 -0.088875
C135  C     C_R   0.728139 0.996985 0.284967 -0.356559
C136  C     C_R   0.271860 0.996895 0.715043 -0.356563
C137  C     C_R   0.228139 0.497042 0.284973 -0.356551
C138  C     C_R   0.771861 0.497023 0.715029 -0.356551
C139  C     C_R   0.771584 0.996908 0.328939 0.678873
C140  C     C_R   0.228415 0.996818 0.671073 0.678848
C141  C     C_R   0.271584 0.496964 0.328946 0.679045
C142  C     C_R   0.728416 0.496946 0.671056 0.679040
C143  C     C_R   0.793337 0.999780 0.294920 -0.076934
C144  C     C_R   0.499784 0.498429 0.813345 -0.077905
C145  C     C_R   0.206663 0.999780 0.705084 -0.076939
C146  C     C_R   0.293337 0.499781 0.294921 -0.076920
C147  C     C_R   0.706663 0.499781 0.705080 -0.076921
C148  C     C_R   0.771791 0.002733 0.217244 -0.357394
C149  C     C_R   0.228210 0.002823 0.782750 -0.357352
C150  C     C_R   0.271791 0.502679 0.217239 -0.357468
C151  C     C_R   0.728209 0.502698 0.782760 -0.357459
C152  C     C_1   0.662133 0.999963 0.162670 0.091032
C153  C     C_1   0.337867 0.999962 0.837329 0.091031
C154  C     C_1   0.162133 0.499963 0.162670 0.091030
C155  C     C_R   0.500215 0.498429 0.186655 -0.077908
C156  C     C_1   0.837866 0.499963 0.837330 0.091030
C157  C     C_1   0.837775 0.999767 0.339393 0.079073
C158  C     C_1   0.162225 0.999768 0.660612 0.079081
C159  C     C_1   0.337775 0.499768 0.339394 0.079162
C160  C     C_1   0.662225 0.499768 0.660607 0.079163
C161  C     C_1   0.875080 0.999861 0.376299 -0.167906
C162  C     C_1   0.124920 0.999862 0.623703 -0.167918
C163  C     C_1   0.375080 0.499862 0.376300 -0.167663
C164  C     C_1   0.624920 0.499862 0.623701 -0.167668
C165  C     C_R   0.082828 0.126109 0.754571 -0.211217
C166  C     C_R   0.972781 0.972053 0.752985 -0.001231
C167  C     C_R   0.917146 0.126085 0.245423 -0.211227
C168  C     C_R   0.582849 0.626078 0.754534 -0.213220
C169  C     C_R   0.417146 0.626073 0.245467 -0.213225
C170  C     C_1   0.624815 0.999978 0.125162 -0.145654
C171  C     C_1   0.375185 0.999978 0.874837 -0.145651
C172  C     C_1   0.124815 0.499978 0.125162 -0.145696
C173  C     C_1   0.875185 0.499978 0.874838 -0.145697
C174  C     C_R   1.000000 0.919295 0.000000 0.899341
C175  C     C_R   0.500000 0.419295 1.000000 0.899331
C176  C     C_R   0.999889 0.999034 0.879520 0.875024
F1    F     F_    0.143719 0.136901 0.754719 -0.646271
F2    F     F_    0.207654 0.993864 0.595710 -0.652501
F3    F     F_    0.292342 0.494152 0.404325 -0.652300
F4    F     F_    0.707657 0.494115 0.595679 -0.652305
F5    F     F_    0.018860 0.207604 0.911810 -0.646515
F6    F     F_    0.981140 0.207605 0.088190 -0.646512
F7    F     F_    0.504853 0.707604 0.894365 -0.646507
F8    F     F_    0.495147 0.707606 0.105635 -0.646508
F9    F     F_    0.856239 0.136857 0.245234 -0.646275
F10   F     F_    0.643763 0.636841 0.754744 -0.646468
F11   F     F_    0.356228 0.636832 0.245248 -0.646470
F12   F     F_    0.707612 0.005692 0.097915 -0.637082
F13   F     F_    0.292391 0.005869 0.902066 -0.637076
F14   F     F_    0.207613 0.505584 0.097903 -0.637186
F15   F     F_    0.792387 0.505621 0.902093 -0.637185
F16   F     F_    0.792343 0.994042 0.404312 -0.652478
H1    H     H_    0.866669 0.863429 0.750258 0.140054
H2    H     H_    0.008030 0.905100 0.155503 0.114091
H3    H     H_    0.491966 0.405102 0.844494 0.114068
H4    H     H_    0.508036 0.405103 0.155505 0.114066
H5    H     H_    0.788581 0.004940 0.190830 0.193668
H6    H     H_    0.211422 0.005099 0.809159 0.193670
H7    H     H_    0.288581 0.504843 0.190820 0.193590
H8    H     H_    0.711419 0.504877 0.809177 0.193591
H9    H     H_    0.711340 0.994750 0.311358 0.200491
H10   H     H_    0.288658 0.994589 0.688658 0.200490
H11   H     H_    0.211340 0.494849 0.311369 0.200488
H12   H     H_    0.133342 0.863440 0.249750 0.140058
H13   H     H_    0.788660 0.494816 0.688635 0.200488
H14   H     H_    0.006562 0.788402 0.105748 0.138419
H15   H     H_    0.993439 0.788401 0.894255 0.138414
H16   H     H_    0.506588 0.288402 0.105769 0.138419
H17   H     H_    0.493412 0.288401 0.894231 0.138417
H18   H     H_    0.506618 0.211611 0.105795 0.149198
H19   H     H_    0.493382 0.211610 0.894206 0.149195
H20   H     H_    0.006593 0.711611 0.105773 0.149187
H21   H     H_    0.993409 0.711610 0.894230 0.149185
H22   H     H_    0.079614 0.159387 0.758076 0.183546
H23   H     H_    0.366652 0.363447 0.750249 0.140002
H24   H     H_    0.920357 0.159365 0.241930 0.183535
H25   H     H_    0.579632 0.659359 0.757999 0.182991
H26   H     H_    0.420362 0.659354 0.242006 0.182987
H27   H     H_    0.504355 0.788614 0.905037 0.191358
H28   H     H_    0.495645 0.788615 0.094962 0.191355
H29   H     H_    0.016954 0.288614 0.920727 0.191471
H30   H     H_    0.983046 0.288614 0.079272 0.191470
H31   H     H_    0.028896 0.111316 0.754867 0.180445
H32   H     H_    0.971091 0.111311 0.245158 0.180434
H33   H     H_    0.528898 0.611310 0.754784 0.181481
H34   H     H_    0.633350 0.363450 0.249752 0.140003
H35   H     H_    0.471100 0.611309 0.245224 0.181478
H36   H     H_    0.094867 0.006784 0.742771 0.144516
H37   H     H_    0.905119 0.006754 0.257180 0.144549
H38   H     H_    0.594895 0.506742 0.742870 0.144521
H39   H     H_    0.405101 0.506735 0.257119 0.144529
H40   H     H_    0.145784 0.055389 0.747514 0.161694
H41   H     H_    0.854182 0.055343 0.252411 0.161723
H42   H     H_    0.645833 0.555324 0.747631 0.161677
H43   H     H_    0.354160 0.555315 0.252354 0.161683
H44   H     H_    0.047437 0.045826 0.857517 0.166703
H45   H     H_    0.942674 0.854755 0.841325 0.136377
H46   H     H_    0.952554 0.045817 0.142477 0.166711
H47   H     H_    0.547448 0.545816 0.857524 0.165729
H48   H     H_    0.452550 0.545813 0.142475 0.165731
H49   H     H_    0.953742 0.952843 0.643540 0.163089
H50   H     H_    0.046266 0.952849 0.356467 0.163099
H51   H     H_    0.453730 0.452852 0.643528 0.163050
H52   H     H_    0.546272 0.452854 0.356473 0.163051
H53   H     H_    0.888294 0.972398 0.661675 0.152942
H54   H     H_    0.111710 0.972405 0.338333 0.152936
H55   H     H_    0.388288 0.472409 0.661665 0.153198
H56   H     H_    0.057338 0.854763 0.158679 0.136380
H57   H     H_    0.611713 0.472411 0.338338 0.153197
H58   H     H_    0.839585 0.922214 0.660441 0.152262
H59   H     H_    0.160423 0.922226 0.339569 0.152277
H60   H     H_    0.339574 0.422231 0.660430 0.152245
H61   H     H_    0.660428 0.422235 0.339573 0.152249
H62   H     H_    0.442656 0.354768 0.841319 0.136363
H63   H     H_    0.557347 0.354770 0.158680 0.136364
H64   H     H_    0.991979 0.905096 0.844500 0.114098
O1    O     O_R   0.939010 0.034440 0.439030 -0.602615
O2    O     O_R   0.439000 0.999980 0.990770 -0.595453
O3    O     O_R   0.061000 0.499980 0.009230 -0.595504
O4    O     O_R   0.939000 0.499980 0.990770 -0.595506
O5    O     O_R   0.500000 0.061030 0.051640 -0.611638
O6    O     O_R   0.500000 0.061030 0.948360 -0.611644
O7    O     O_R   0.000000 0.561030 0.051640 -0.611654
O8    O     O_R   0.000000 0.561030 0.948360 -0.611654
O9    O     O_R   0.939030 0.965580 0.439000 -0.615097
O10   O     O_R   0.060970 0.965580 0.561000 -0.615067
O11   O     O_R   0.439030 0.465580 0.439000 -0.615198
O12   O     O_R   0.060990 0.034440 0.560970 -0.602641
O13   O     O_R   0.560970 0.465580 0.561000 -0.615192
O14   O     O_R   0.000000 0.034440 0.591610 -0.606907
O15   O     O_R   0.000000 0.034440 0.408390 -0.606917
O16   O     O_R   0.500000 0.534440 0.591610 -0.606549
O17   O     O_R   0.500000 0.534440 0.408390 -0.606552
O18   O     O_R   0.000010 0.965580 0.591580 -0.624856
O19   O     O_R   0.999990 0.965580 0.408420 -0.624850
O20   O     O_R   0.500010 0.465580 0.591580 -0.624988
O21   O     O_R   0.499990 0.465580 0.408420 -0.624985
O22   O     O_R   0.034440 0.939000 0.034360 -0.610764
O23   O     O_R   0.439010 0.534440 0.439030 -0.602389
O24   O     O_R   0.965560 0.939000 0.965640 -0.610758
O25   O     O_R   0.534440 0.439000 0.034360 -0.610786
O26   O     O_R   0.465560 0.439000 0.965640 -0.610784
O27   O     O_R   0.034440 0.999990 0.942780 -0.622890
O28   O     O_R   0.965560 0.999990 0.057220 -0.622890
O29   O     O_R   0.534440 0.499990 0.942780 -0.623442
O30   O     O_R   0.465560 0.499990 0.057220 -0.623441
O31   O     O_R   0.965580 0.000000 0.873940 -0.609150
O32   O     O_R   0.034420 0.000000 0.126060 -0.609154
O33   O     O_R   0.465580 0.500000 0.873940 -0.608621
O34   O     O_R   0.560990 0.534440 0.560970 -0.602394
O35   O     O_R   0.534420 0.500000 0.126060 -0.608622
O36   O     O_R   0.034440 0.060970 0.034440 -0.608566
O37   O     O_R   0.965560 0.060970 0.965560 -0.608563
O38   O     O_R   0.534440 0.560970 0.034440 -0.608892
O39   O     O_R   0.465560 0.560970 0.965560 -0.608892
O40   O     O_R   0.500020 0.939060 0.051770 -0.609605
O41   O     O_R   0.499980 0.939060 0.948230 -0.609597
O42   O     O_R   0.000020 0.439060 0.051770 -0.609579
O43   O     O_R   0.999980 0.439060 0.948230 -0.609577
O44   O     O_R   0.561000 0.000050 0.112670 -0.617950
O45   O     O_R   0.439000 0.000050 0.887330 -0.617948
O46   O     O_R   0.061000 0.500050 0.112670 -0.617922
O47   O     O_R   0.939000 0.500050 0.887330 -0.617920
O48   O     O_R   0.561000 0.999980 0.009230 -0.595448
Zn1   Zn    Zn3+2 0.000000 0.045990 0.500000 1.022129
Zn2   Zn    Zn3+2 0.499990 0.000060 0.930950 1.013144
Zn3   Zn    Zn3+2 0.000010 0.500060 0.069050 1.013044
Zn4   Zn    Zn3+2 0.999990 0.500060 0.930950 1.013046
Zn5   Zn    Zn3+2 0.500000 0.545990 0.500000 1.023473
Zn6   Zn    Zn3+2 0.000000 0.954030 0.500000 0.985406
Zn7   Zn    Zn3+2 0.500000 0.454030 0.500000 0.985375
Zn8   Zn    Zn3+2 0.045990 0.999980 0.045940 1.001456
Zn9   Zn    Zn3+2 0.954010 0.999980 0.954060 1.001466
Zn10  Zn    Zn3+2 0.545990 0.499980 0.045940 1.001208
Zn11  Zn    Zn3+2 0.454010 0.499980 0.954060 1.001211
Zn12  Zn    Zn3+2 0.500010 0.000060 0.069050 1.013140

loop_
_geom_bond_atom_site_label_1
_geom_bond_atom_site_label_2
_ccdc_geom_bond_type
C63   C65   T    
C11   C171  S    
C18   C21   A    
C107  C112  A    
C150  H7    S    
C36   C42   T    
C136  C140  A    
C12   C172  S    
C2    C123  S    
C135  C139  A    
C121  C166  S    
C176  O27   A    
C70   H36   S    
C97   C124  A    
C53   F7    S    
C10   O48   A    
C95   C99   A    
C11   O45   A    
O14   Zn1   S    
C54   C63   S    
C107  H34   S    
C77   H43   S    
C5    O30   A    
C4    O33   A    
C115  H3    S    
C146  C150  A    
C109  H56   S    
C70   C74   A    
C86   H48   S    
C104  H1    S    
C169  H26   S    
C31   C62   A    
O20   Zn7   S    
C5    O35   A    
C85   C144  A    
C138  H13   S    
C6    O36   A    
C3    O32   A    
C43   H27   S    
C84   C133  A    
C19   H20   S    
C87   C118  S    
C17   H18   S    
C13   C124  S    
O27   Zn8   S    
C112  H63   S    
C132  C137  A    
C5    C155  S    
C17   C21   A    
C64   C66   T    
C108  C113  A    
C4    C144  S    
O36   Zn8   S    
C152  C170  T    
C127  F13   S    
C88   C119  S    
C9    O42   A    
C128  C150  A    
C130  C152  S    
C25   H14   S    
O17   Zn5   S    
C89   C162  S    
O11   Zn7   S    
C68   C90   A    
C78   C165  A    
C114  H2    S    
C23   H15   S    
C52   F8    S    
C51   F5    S    
C140  C145  A    
C97   H55   S    
C98   H57   S    
C22   C36   S    
C4    O29   A    
C89   O12   A    
C7    C66   S    
C77   C82   A    
C110  H62   S    
C122  C176  S    
C100  C163  S    
O2    Zn12  S    
C127  C131  A    
C108  H45   S    
O34   Zn5   S    
C37   C39   T    
C30   C61   A    
C73   C77   A    
C76   H42   S    
C3    C133  S    
C44   C48   A    
C29   H32   S    
C78   F1    S    
C44   H28   S    
O12   Zn1   S    
C135  H9    S    
O28   Zn9   S    
C27   C33   A    
C72   H38   S    
O44   Zn12  S    
C89   O10   A    
C14   C173  S    
C13   C57   A    
C13   C144  A    
O16   Zn5   S    
C119  O20   A    
C139  C143  A    
C98   C125  A    
C142  F4    S    
C132  C154  S    
C29   C60   A    
C62   C73   A    
C79   C91   A    
O42   Zn3   S    
C44   C52   A    
O48   Zn2   S    
C82   C169  A    
C113  H64   S    
C50   F6    S    
C147  C160  S    
C47   C50   A    
C60   C92   S    
C143  C148  A    
C17   C27   A    
C131  C136  A    
O21   Zn7   S    
O22   Zn8   S    
C90   C120  S    
C147  C151  A    
C15   O5    A    
C26   C33   A    
C140  F2    S    
C20   C23   A    
C71   H37   S    
C32   C37   S    
C8    O41   A    
C109  C114  A    
C114  C123  A    
C3    O28   A    
C175  O26   A    
C35   H49   S    
C116  C125  A    
C100  O23   A    
O25   Zn10  S    
C81   F10   S    
C73   H39   S    
C46   C87   A    
C105  C109  A    
C96   C123  A    
C142  C147  A    
C111  C164  S    
C103  C107  A    
O47   Zn4   S    
C45   H29   S    
O31   Zn9   S    
C126  F12   S    
C18   H19   S    
C14   O4    A    
C95   H53   S    
C120  O21   A    
C83   C91   A    
C35   C79   A    
O15   Zn1   S    
C83   C122  A    
O10   Zn6   S    
O18   Zn6   S    
C116  H4    S    
C113  C121  A    
O29   Zn10  S    
C8    C67   S    
C127  C149  A    
C33   C38   S    
C84   C92   A    
C96   C101  A    
O1    Zn1   S    
O37   Zn9   S    
O40   Zn12  S    
C130  C135  A    
C18   C26   A    
C112  C116  A    
C6    O37   A    
C50   C54   A    
C160  C164  T    
C9    C69   S    
C129  C151  A    
C39   C174  S    
C61   C93   S    
C148  H5    S    
C126  C130  A    
C98   C103  A    
C35   C166  A    
C27   H16   S    
C16   O7    A    
C43   C53   A    
C6    C65   S    
C134  C156  S    
O23   Zn5   S    
C14   O47   A    
C12   O3    A    
C168  H25   S    
O26   Zn11  S    
C97   C102  A    
C52   C55   A    
C149  H6    S    
C95   C121  A    
C99   C104  A    
C1    C161  S    
O33   Zn11  S    
C87   C92   A    
C101  H59   S    
C34   C41   T    
C151  H8    S    
C96   H54   S    
C7    O38   A    
C90   C94   A    
C1    O1    A    
C156  C173  T    
C2    C133  A    
O4    Zn3   S    
C15   C41   S    
C74   H40   S    
C138  C142  A    
C126  C148  A    
C21   C34   S    
C8    O40   A    
C60   C71   A    
O46   Zn3   S    
C86   C155  A    
C119  O16   A    
C45   C49   A    
O30   Zn11  S    
O6    Zn2   S    
C128  F14   S    
C28   C165  A    
C61   C72   A    
C20   C22   A    
C139  F16   S    
C62   C94   S    
C103  H61   S    
C111  O13   A    
C157  C161  T    
C104  C108  A    
C137  C141  A    
C115  C124  A    
O5    Zn12  S    
C141  F3    S    
C84   H46   S    
C117  O18   A    
C105  H12   S    
O3    Zn4   S    
C58   C69   T    
C10   C170  S    
C137  H11   S    
C23   C32   A    
C29   C167  A    
C30   C168  A    
C57   H51   S    
C38   C40   T    
C145  C158  S    
C31   C169  A    
O45   Zn2   S    
C79   C117  S    
C81   C168  A    
C176  O31   A    
C9    O43   A    
C24   C68   A    
C59   C70   A    
C10   O44   A    
C129  C134  A    
C75   C80   A    
C83   H44   S    
C74   C78   A    
O9    Zn6   S    
C110  C115  A    
C145  C149  A    
C174  O24   A    
C122  C166  A    
C31   H35   S    
C72   C76   A    
C136  H10   S    
C117  O14   A    
C120  O17   A    
C47   C49   A    
C2    C46   A    
C106  H23   S    
C111  O34   A    
O35   Zn10  S    
C102  H60   S    
O43   Zn4   S    
C45   C51   A    
C129  F15   S    
C86   C94   A    
O38   Zn10  S    
O24   Zn9   S    
C80   F9    S    
C102  C106  A    
C43   C48   A    
O8    Zn4   S    
C80   C167  A    
C24   C155  A    
C25   C32   A    
C30   H33   S    
C85   C93   A    
C167  H24   S    
C99   H58   S    
C128  C132  A    
C118  O19   A    
C143  C157  S    
C53   C55   A    
C101  C105  A    
C11   O2    A    
C131  C153  S    
C19   C22   A    
C7    O39   A    
C59   C91   S    
C146  C159  S    
C49   C58   S    
C85   H47   S    
O39   Zn11  S    
C55   C64   S    
C153  C171  T    
C154  C172  T    
C141  C146  A    
O19   Zn6   S    
C174  O22   A    
C47   H30   S    
C24   C125  S    
C159  C163  T    
C16   C42   S    
O41   Zn2   S    
C118  O15   A    
C106  C110  A    
C28   C59   A    
C48   C56   S    
C88   C93   A    
C76   C81   A    
C134  C138  A    
C40   C175  S    
C100  O11   A    
C56   C67   T    
C57   C88   A    
C82   F11   S    
C51   C54   A    
C20   H21   S    
O7    Zn3   S    
C15   O6    A    
C71   C75   A    
C68   H52   S    
C28   H31   S    
C75   H41   S    
C26   H17   S    
C19   C25   A    
C158  C162  T    
C16   O8    A    
C165  H22   S    
C1    O9    A    
C12   O46   A    
C46   H50   S    
C175  O25   A    
O32   Zn8   S    
O13   Zn7   S    
