data_mof_unit_18844.cif
_audit_creation_date              2012-12-10T17:35:32-0500
_audit_creation_method            fapswitch 2.2
_symmetry_space_group_name_H-M    P1
_symmetry_Int_Tables_number       1
_space_group_crystal_system       triclinic
_cell_length_a                    10.781882
_cell_length_b                    12.410193
_cell_length_c                    13.276043
_cell_angle_alpha                 116.793333
_cell_angle_beta                  76.42342
_cell_angle_gamma                 101.166999
_cell_volume                      1533.45667059

loop_
_atom_site_label
_atom_site_type_symbol
_atom_type_description
_atom_site_fract_x
_atom_site_fract_y
_atom_site_fract_z
_atom_type_partial_charge
C1    C     C_R   0.505391 0.855032 0.287682 0.856874
C2    C     C_3   0.122308 0.997889 0.491406 -0.052908
C3    C     C_3   0.046977 0.059101 0.616183 0.352532
C4    C     C_3   0.058637 0.864245 0.440666 -0.525294
C5    C     C_R   0.357876 0.271078 0.030654 -0.142841
C6    C     C_R   0.466215 0.226097 0.837037 -0.159246
C7    C     C_R   0.562351 0.815207 0.084328 -0.141303
C8    C     C_R   0.583103 0.737345 0.969165 -0.138187
C9    C     C_R   0.548353 0.613802 0.933552 -0.162928
C10   C     C_R   0.483356 0.565314 0.012325 0.030308
C11   C     C_R   0.445583 0.647330 0.129118 -0.006675
C12   C     C_R   0.739694 0.995806 0.493977 0.842544
C13   C     C_R   0.454813 0.437899 0.978462 0.059425
C14   C     C_R   0.380243 0.395109 0.057778 0.044054
C15   C     C_R   0.325513 0.475338 0.163975 -0.321658
C16   C     C_R   0.355135 0.601752 0.202610 0.494739
C17   C     C_R   0.498038 0.350914 0.868234 -0.212899
C18   C     C_R   0.403968 0.185483 0.922225 -0.015783
C19   C     C_R   0.499345 0.771933 0.166168 -0.095242
C20   C     C_R   0.673451 0.330671 0.305401 -0.393470
C21   C     C_R   0.347232 0.774307 0.662467 0.042411
C22   C     C_R   0.350542 0.706064 0.720374 -0.263101
C23   C     C_R   0.485028 0.144565 0.713659 0.778075
C24   C     C_R   0.426351 0.609992 0.668985 -0.205364
C25   C     C_R   0.487319 0.570625 0.553564 0.033312
C26   C     C_R   0.497583 0.655455 0.506312 0.264152
C27   C     C_R   0.543812 0.456211 0.484856 -0.096912
C28   C     C_R   0.618955 0.439050 0.376947 0.047940
C29   C     C_R   0.644438 0.532428 0.341977 -0.239911
C30   C     C_R   0.587857 0.639400 0.406997 -0.190372
C31   C     C_R   0.525074 0.355643 0.514453 0.574081
C32   C     C_R   0.653393 0.234939 0.338030 0.630778
C33   C     C_R   0.260426 0.998551 0.496762 0.772345
C34   C     C_3   0.960940 0.057303 0.415701 -0.364302
C35   C     C_3   0.106970 0.058129 0.411405 -0.009874
C36   C     C_3   0.905950 0.062695 0.612565 -0.486691
C37   C     C_3   0.914649 0.859905 0.438644 -0.147626
C38   C     C_3   0.877735 0.992463 0.488711 0.044692
Cu1   Cu    Cu3+1 0.529690 0.098270 0.475420 1.023940
Cu2   Cu    Cu3+1 0.470310 0.901730 0.524580 0.940528
H1    H     H_    0.933786 0.151632 0.452880 0.138147
H2    H     H_    0.064485 0.819035 0.494609 0.168654
H3    H     H_    0.842244 0.022571 0.668871 0.134798
H4    H     H_    0.048250 0.999299 0.658742 0.090716
H5    H     H_    0.257042 0.436399 0.215515 0.150570
H6    H     H_    0.305904 0.240977 0.095561 0.188758
H7    H     H_    0.556327 0.377592 0.804015 0.188850
H8    H     H_    0.599917 0.909475 0.109456 0.193524
H9    H     H_    0.572192 0.559184 0.843076 0.142003
H10   H     H_    0.631954 0.772342 0.907199 0.140291
H11   H     H_    0.934075 0.015799 0.329664 0.244254
H12   H     H_    0.709436 0.522934 0.263172 0.155679
H13   H     H_    0.729626 0.320330 0.223036 0.158386
H14   H     H_    0.293384 0.852531 0.704577 0.147967
H15   H     H_    0.440952 0.573741 0.724244 0.198651
H16   H     H_    0.299960 0.731548 0.807334 0.189558
H17   H     H_    0.621572 0.709026 0.378715 0.219399
H18   H     H_    0.884077 0.158418 0.647736 0.195230
H19   H     H_    0.858596 0.817635 0.495991 0.123146
H20   H     H_    0.111316 0.811697 0.354015 0.230208
N1    N     N_R   0.574690 0.246280 0.438200 -0.244117
N2    N     N_R   0.426100 0.754320 0.561190 -0.219783
O1    O     O_R   0.537340 0.972510 0.318130 -0.538528
O2    O     O_R   0.487200 0.806530 0.359650 -0.557866
O3    O     O_R   0.707380 0.082980 0.479220 -0.570093
O4    O     O_R   0.657240 0.917000 0.520740 -0.612658
O5    O     O_R   0.512800 0.193470 0.640350 -0.527453
O6    O     O_R   0.462660 0.027490 0.681870 -0.617451
O7    O     O_R   0.342760 0.083000 0.479260 -0.585114
O8    O     O_R   0.292620 0.917020 0.520780 -0.583170
C39   C     C_2   0.389259 0.056792 0.903734 0.335395
H21   H     H_    0.460887 0.996688 0.845437 0.099720
O9    O     O_2   0.298749 0.017346 0.956840 -0.542204
O10   O     O_3   0.287034 0.682283 0.303960 -0.586801
C40   C     C_3   0.230286 0.631701 0.383036 -0.278390
H22   H     H_    0.294771 0.575591 0.388904 0.165717
H23   H     H_    0.136741 0.579355 0.361584 0.138290
H24   H     H_    0.210868 0.704537 0.469954 0.197586
O11   O     O_3   0.704374 0.125389 0.267457 -0.553289
C41   C     C_3   0.834969 0.142290 0.221732 -0.333798
H25   H     H_    0.890374 0.213396 0.287351 0.149289
H26   H     H_    0.845323 0.162628 0.146695 0.156860
H27   H     H_    0.877418 0.055845 0.189641 0.225476
O12   O     O_3   0.477074 0.374342 0.626184 -0.618599
C42   C     C_3   0.342036 0.358621 0.645465 -0.246743
H28   H     H_    0.309328 0.265049 0.630954 0.260580
H29   H     H_    0.298194 0.388271 0.595450 0.162940
H30   H     H_    0.306668 0.413073 0.737462 0.157450
C43   C     C_2   0.175906 0.987085 0.289078 0.449596
H31   H     H_    0.278843 0.984020 0.273770 0.094129
O13   O     O_2   0.119423 0.932745 0.207452 -0.528546
C44   C     C_2   0.162617 0.190522 0.451634 0.318412
H32   H     H_    0.119677 0.257484 0.532856 0.116237
O14   O     O_2   0.250536 0.225089 0.392455 -0.578054
O15   O     O_3   0.102871 0.178130 0.676830 -0.627473
C45   C     C_3   0.092944 0.205124 0.793565 -0.381451
H33   H     H_    0.154679 0.149878 0.803978 0.180741
H34   H     H_    0.127677 0.301985 0.839763 0.198359
H35   H     H_    0.991737 0.191038 0.833289 0.175518
C46   C     C_2   0.884324 0.775728 0.319963 0.376950
H36   H     H_    0.911421 0.683838 0.279800 0.071434
O16   O     O_2   0.828732 0.807095 0.268851 -0.558035

loop_
_geom_bond_atom_site_label_1
_geom_bond_atom_site_label_2
_ccdc_geom_bond_type
C2    C35   S    
C45   H35   S    
C31   N1    A    
O15   C45   S    
C7    C8    A    
C42   H28   S    
C24   H15   S    
C11   C19   A    
C34   H11   S    
C29   C30   A    
Cu2   O8    S    
C16   O10   S    
C28   C29   A    
C32   N1    A    
C36   H18   S    
C21   H14   S    
C15   C16   A    
C30   H17   S    
Cu2   N2    S    
C34   C35   S    
C23   O5    A    
C44   H32   S    
C8    C9    A    
C45   H34   S    
C43   O13   D    
C9    C10   A    
C33   O7    A    
C35   C44   S    
Cu2   O4    S    
C21   C22   A    
Cu1   O3    S    
C34   H1    S    
C41   H27   S    
C6    C18   A    
C1    O1    A    
C46   O16   D    
C42   H29   S    
Cu1   N1    S    
C3    H4    S    
C1    C19   S    
O10   C40   S    
C27   C31   A    
C9    H9    S    
C24   C25   A    
C41   H26   S    
Cu1   Cu2   S    
C39   O9    D    
C41   H25   S    
C22   H16   S    
C5    C18   A    
C20   C28   A    
C25   C26   A    
C12   O4    A    
C31   O12   S    
C23   O6    A    
C2    C4    S    
C40   H22   S    
C37   C38   S    
C11   C16   A    
C12   O3    A    
C45   H33   S    
C4    H20   S    
C44   O14   D    
Cu1   O7    S    
O12   C42   S    
C40   H23   S    
C5    C14   A    
C37   H19   S    
C33   O8    A    
C35   C43   S    
C2    C33   S    
C26   C30   A    
C7    C19   A    
C22   C24   A    
C15   H5    S    
C1    O2    A    
C8    H10   S    
C20   C32   A    
C42   H30   S    
C18   C39   S    
C6    C17   A    
C34   C38   S    
Cu1   O5    S    
C17   H7    S    
C20   H13   S    
C10   C13   A    
C25   C27   A    
Cu1   O1    S    
C5    H6    S    
Cu2   O2    S    
C13   C17   A    
C7    H8    S    
C36   C38   S    
C2    C3    S    
C26   N2    A    
C39   H21   S    
C32   O11   S    
C4    H2    S    
C3    C36   S    
C6    C23   S    
C46   H36   S    
C12   C38   S    
C40   H24   S    
C10   C11   A    
O11   C41   S    
C4    C37   S    
Cu2   O6    S    
C27   C28   A    
C14   C15   A    
C36   H3    S    
C3    O15   S    
C21   N2    A    
C43   H31   S    
C13   C14   A    
C37   C46   S    
C29   H12   S    
