data_mof_unit_36678.cif
_audit_creation_date              2012-12-10T20:55:47-0500
_audit_creation_method            fapswitch 2.2
_symmetry_space_group_name_H-M    P1
_symmetry_Int_Tables_number       1
_space_group_crystal_system       triclinic
_cell_length_a                    15.873937
_cell_length_b                    15.05993
_cell_length_c                    10.789151
_cell_angle_alpha                 90.015981
_cell_angle_beta                  89.955533
_cell_angle_gamma                 89.992544
_cell_volume                      2579.2576394

loop_
_atom_site_label
_atom_site_type_symbol
_atom_type_description
_atom_site_fract_x
_atom_site_fract_y
_atom_site_fract_z
_atom_type_partial_charge
C1    C     C_1   0.251009 0.500019 0.503224 -0.078012
C2    C     C_R   0.427513 0.047420 0.460606 -0.071438
C3    C     C_R   0.955707 0.581991 0.503366 -0.039569
C4    C     C_R   0.044335 0.418001 0.505932 -0.041313
C5    C     C_R   0.044286 0.582014 0.505735 -0.040765
C6    C     C_R   0.955756 0.417988 0.503150 -0.037902
C7    C     C_R   0.339021 0.500006 0.500225 0.981233
C8    C     C_R   0.660979 0.499993 0.499746 0.982272
C9    C     C_R   0.500282 0.499976 0.259276 0.977757
C10   C     C_R   0.499220 0.500019 0.740661 0.972383
C11   C     C_R   0.912982 0.499984 0.499113 -0.037683
C12   C     C_1   0.749014 0.499976 0.499249 -0.084610
C13   C     C_R   0.087084 0.500019 0.509102 -0.038171
C14   C     C_1   0.500035 0.806966 0.499796 0.222321
C15   C     C_1   0.500041 0.193039 0.499773 0.221509
C16   C     C_1   0.823646 0.499971 0.498948 -0.092617
C17   C     C_1   0.176404 0.500025 0.506242 -0.089692
C18   C     C_R   0.450073 0.660367 0.106914 -0.108549
C19   C     C_R   0.442749 0.341812 0.894944 -0.059849
C20   C     C_R   0.552050 0.659026 0.893541 -0.106944
C21   C     C_R   0.548567 0.339374 0.103995 -0.055258
C22   C     C_R   0.473603 0.742108 0.051271 -0.078517
C23   C     C_R   0.498132 0.500200 0.873298 -0.117535
C24   C     C_R   0.463552 0.259211 0.951037 -0.073317
C25   C     C_R   0.530659 0.741344 0.949501 -0.061104
C26   C     C_R   0.522330 0.257813 0.050481 -0.115194
C27   C     C_R   0.513776 0.580257 0.939541 0.062879
C28   C     C_R   0.512289 0.419604 0.059555 0.062777
C29   C     C_R   0.486255 0.580586 0.060593 0.060348
C30   C     C_R   0.482203 0.420321 0.939887 0.024527
C31   C     C_2   0.093591 0.666264 0.498247 0.548896
C32   C     C_2   0.906419 0.333754 0.510370 0.541604
C33   C     C_2   0.906346 0.666198 0.511311 0.546349
C34   C     C_R   0.499898 0.500032 0.126539 -0.115378
C35   C     C_2   0.093720 0.333762 0.499144 0.552270
C36   C     C_2   0.554067 0.172347 0.101868 0.363672
C37   C     C_2   0.567888 0.825284 0.901749 0.494870
C38   C     C_2   0.429306 0.174387 0.901649 0.465375
C39   C     C_2   0.438635 0.827042 0.099419 0.523912
C40   C     C_2   0.350433 0.096782 0.421753 0.455359
C41   C     C_2   0.650754 0.903502 0.574345 0.380156
C42   C     C_2   0.649933 0.096778 0.576537 0.399112
C43   C     C_2   0.349564 0.903529 0.424136 0.378174
C44   C     C_2   0.376083 0.656735 0.192393 0.477838
C45   C     C_R   0.500094 0.905015 0.499520 0.019826
C46   C     C_2   0.373428 0.347334 0.802291 0.530036
C47   C     C_2   0.625896 0.653402 0.808016 0.473675
C48   C     C_2   0.620795 0.341489 0.192236 0.443841
C49   C     C_R   0.500103 0.094986 0.499481 0.018206
C50   C     C_R   0.427322 0.952622 0.461121 -0.081103
C51   C     C_R   0.572760 0.047413 0.538094 -0.097842
C52   C     C_R   0.572937 0.952613 0.537635 -0.081948
H1    H     H_    0.153102 0.672395 0.546954 0.084823
H2    H     H_    0.690633 0.927908 0.648231 0.076455
H3    H     H_    0.687757 0.073821 0.653620 0.075805
H4    H     H_    0.309906 0.927839 0.349940 0.083419
H5    H     H_    0.356432 0.714367 0.245019 0.063067
H6    H     H_    0.361119 0.292921 0.739062 0.111792
H7    H     H_    0.646630 0.710364 0.754919 0.065458
H8    H     H_    0.634597 0.285215 0.251449 0.075781
H9    H     H_    0.847233 0.327460 0.460842 0.085664
H10   H     H_    0.846943 0.672546 0.462378 0.084455
H11   H     H_    0.152990 0.327740 0.548528 0.089009
H12   H     H_    0.619990 0.165006 0.126018 0.086845
H13   H     H_    0.576467 0.834890 0.803016 -0.000312
H14   H     H_    0.470997 0.118294 0.886553 0.114022
H15   H     H_    0.430404 0.836741 0.198214 0.003971
H16   H     H_    0.312846 0.073823 0.344405 0.089269
N1    N     N_1   0.500000 0.270550 0.500000 -0.095458
N2    N     N_1   0.500000 0.729450 0.500000 -0.091946
O1    O     O_R   0.378020 0.573650 0.500040 -0.603144
O2    O     O_2   0.929276 0.272398 0.576220 -0.494898
O3    O     O_2   0.929453 0.727478 0.577149 -0.495955
O4    O     O_2   0.070829 0.272120 0.433804 -0.491878
O5    O     O_2   0.506477 0.110128 0.120937 -0.518000
O6    O     O_2   0.590619 0.883831 0.972540 -0.512805
O7    O     O_2   0.354069 0.165225 0.882153 -0.520983
O8    O     O_2   0.417386 0.886347 0.028896 -0.495068
O9    O     O_2   0.327283 0.163166 0.477175 -0.544762
O10   O     O_2   0.672105 0.835649 0.520882 -0.543577
O11   O     O_2   0.672902 0.163170 0.521037 -0.547858
O12   O     O_R   0.621980 0.426350 0.499960 -0.603956
O13   O     O_2   0.328019 0.835814 0.477701 -0.542830
O14   O     O_2   0.334463 0.588890 0.202374 -0.558837
O15   O     O_2   0.329047 0.413438 0.796148 -0.579929
O16   O     O_2   0.666176 0.584615 0.798537 -0.563777
O17   O     O_2   0.666303 0.406714 0.198776 -0.569179
O18   O     O_R   0.621980 0.573650 0.499960 -0.604741
O19   O     O_R   0.378020 0.426350 0.500040 -0.608357
O20   O     O_R   0.499990 0.573670 0.316780 -0.633706
O21   O     O_R   0.500010 0.426330 0.683220 -0.648929
O22   O     O_R   0.500010 0.573670 0.683220 -0.630289
O23   O     O_R   0.499990 0.426330 0.316780 -0.629028
O24   O     O_2   0.070334 0.727806 0.433038 -0.494557
Zn1   Zn    Zn3+2 0.500000 0.598370 0.500000 1.031404
Zn2   Zn    Zn3+2 0.500000 0.401630 0.500000 1.026653

loop_
_geom_bond_atom_site_label_1
_geom_bond_atom_site_label_2
_ccdc_geom_bond_type
C6    C32   S    
C21   C26   A    
C35   O4    D    
C27   C29   A    
C43   O13   D    
N1    Zn2   S    
C41   O10   D    
C19   C46   S    
O20   Zn1   S    
C32   O2    D    
C8    O12   A    
C2    C49   A    
C24   C26   A    
C32   H9    S    
C7    O1    A    
O1    Zn1   S    
C20   C25   A    
C3    C33   S    
C7    O19   A    
C4    C13   A    
C2    C50   A    
C25   C37   S    
O21   Zn2   S    
C38   H14   S    
C33   H10   S    
C49   C51   A    
C22   C25   A    
C37   H13   S    
C24   C38   S    
C23   C27   A    
C41   C52   S    
C5    C13   A    
C42   C51   S    
C21   C48   S    
O18   Zn1   S    
C10   O22   A    
C1    C7    S    
C46   H6    S    
C14   N2    T    
C42   O11   D    
C48   H8    S    
C14   C45   S    
C15   N1    T    
C40   O9    D    
O12   Zn2   S    
C51   C52   A    
C39   O8    D    
C12   C16   T    
C4    C6    A    
C6    C11   A    
C45   C52   A    
C44   O14   D    
C47   H7    S    
C29   C34   A    
O22   Zn1   S    
C8    O18   A    
C23   C30   A    
C36   O5    D    
C18   C44   S    
C42   H3    S    
C11   C16   S    
C44   H5    S    
C8    C12   S    
C48   O17   D    
C18   C29   A    
C31   H1    S    
C26   C36   S    
C38   O7    D    
C37   O6    D    
C10   O21   A    
O23   Zn2   S    
C9    C34   S    
C9    O23   A    
C33   O3    D    
C18   C22   A    
C39   H15   S    
C21   C28   A    
C3    C5    A    
C9    O20   A    
C43   C50   S    
C20   C27   A    
C10   C23   S    
C31   O24   D    
C1    C17   T    
C13   C17   S    
C46   O15   D    
O19   Zn2   S    
C28   C30   A    
N2    Zn1   S    
C45   C50   A    
C22   C39   S    
C19   C24   A    
C15   C49   S    
C41   H2    S    
C4    C35   S    
C20   C47   S    
C3    C11   A    
C28   C34   A    
C2    C40   S    
C43   H4    S    
C40   H16   S    
C47   O16   D    
C35   H11   S    
C36   H12   S    
C19   C30   A    
C5    C31   S    
