data_mof_unit_29274.cif
_audit_creation_date              2012-10-26T17:11:28-0400
_audit_creation_method            fapswitch 2.2
_symmetry_space_group_name_H-M    P1
_symmetry_Int_Tables_number       1
_space_group_crystal_system       triclinic
_cell_length_a                    27.984291
_cell_length_b                    18.749721
_cell_length_c                    16.837857
_cell_angle_alpha                 89.876172
_cell_angle_beta                  62.579389
_cell_angle_gamma                 89.799689
_cell_volume                      7842.1446156

loop_
_atom_site_label
_atom_site_type_symbol
_atom_type_description
_atom_site_fract_x
_atom_site_fract_y
_atom_site_fract_z
_atom_type_partial_charge
C1    C     C_R   0.294946 0.728161 0.329518 0.805293
C2    C     C_R   0.705154 0.271983 0.670238 0.806386
C3    C     C_R   0.705129 0.728014 0.670389 0.805041
C4    C     C_R   0.294828 0.272030 0.329792 0.805855
C5    C     C_R   0.794946 0.228161 0.329518 0.805292
C6    C     C_R   0.205155 0.771983 0.670238 0.806381
C7    C     C_R   0.205128 0.228015 0.670390 0.805040
C8    C     C_R   0.794828 0.772030 0.329792 0.805856
C9    C     C_R   0.402481 0.000474 0.487257 0.069011
C10   C     C_R   0.597157 0.999535 0.513792 0.069214
C11   C     C_R   0.902481 0.500474 0.487257 0.069014
C12   C     C_R   0.097157 0.499535 0.513792 0.069214
C13   C     C_R   0.577505 0.879338 0.574817 -0.238630
C14   C     C_R   0.422240 0.120587 0.425981 -0.238448
C15   C     C_R   0.382845 0.881875 0.552876 -0.242336
C16   C     C_R   0.616655 0.118207 0.448400 -0.242163
C17   C     C_R   0.077505 0.379338 0.574818 -0.238628
C18   C     C_R   0.922240 0.620587 0.425982 -0.238451
C19   C     C_R   0.882845 0.381875 0.552877 -0.242319
C20   C     C_R   0.116655 0.618207 0.448401 -0.242162
C21   C     C_R   0.225766 0.774734 0.947811 0.037324
C22   C     C_R   0.781977 0.234283 0.043119 0.027326
C23   C     C_R   0.775587 0.773346 0.050534 0.038261
C24   C     C_R   0.218870 0.232408 0.956222 0.028844
C25   C     C_R   0.725767 0.274735 0.947810 0.037388
C26   C     C_R   0.281975 0.734280 0.043123 0.027326
C27   C     C_R   0.275585 0.273349 0.050534 0.038255
C28   C     C_R   0.718873 0.732401 0.956221 0.028851
C29   C     C_R   0.229254 0.702928 0.967161 -0.234373
C30   C     C_R   0.779169 0.306158 0.022483 -0.248396
C31   C     C_R   0.771398 0.701340 0.033062 -0.233372
C32   C     C_R   0.222510 0.304490 0.974748 -0.246752
C33   C     C_R   0.729243 0.202931 0.967181 -0.234393
C34   C     C_R   0.279155 0.806157 0.022510 -0.248383
C35   C     C_R   0.271399 0.201342 0.033057 -0.233365
C36   C     C_R   0.722514 0.804482 0.974742 -0.246752
C37   C     C_R   0.258277 0.681560 0.012271 0.176584
C38   C     C_R   0.753076 0.326859 0.972070 0.171378
C39   C     C_R   0.742311 0.679786 0.988204 0.180312
C40   C     C_R   0.248979 0.325535 0.024303 0.173468
C41   C     C_R   0.758269 0.181563 0.012287 0.176582
C42   C     C_R   0.253062 0.826861 0.972096 0.171354
C43   C     C_R   0.242312 0.179789 0.988198 0.180302
C44   C     C_R   0.748981 0.825529 0.024299 0.173467
C45   C     C_R   0.147513 0.834065 0.941627 -0.209927
C46   C     C_R   0.858759 0.175112 0.053315 -0.194361
C47   C     C_R   0.853529 0.832855 0.057424 -0.207418
C48   C     C_R   0.142035 0.173348 0.946137 -0.193566
C49   C     C_R   0.647515 0.334070 0.941624 -0.209918
C50   C     C_R   0.358758 0.675111 0.053317 -0.194371
C51   C     C_R   0.353529 0.332856 0.057425 -0.207412
C52   C     C_R   0.642038 0.673343 0.946136 -0.193572
C53   C     C_R   0.119011 0.853479 0.894501 -0.060786
C54   C     C_R   0.883677 0.150206 0.103705 -0.070351
C55   C     C_R   0.881374 0.853087 0.105257 -0.059874
C56   C     C_R   0.116717 0.149440 0.896001 -0.068562
C57   C     C_R   0.619012 0.353482 0.894500 -0.060783
C58   C     C_R   0.383677 0.650206 0.103705 -0.070349
C59   C     C_R   0.381374 0.353087 0.105257 -0.059875
C60   C     C_R   0.616718 0.649438 0.896000 -0.068556
C61   C     C_R   0.136785 0.829831 0.806987 -0.223848
C62   C     C_R   0.863832 0.170737 0.192826 -0.224477
C63   C     C_R   0.863223 0.829874 0.193083 -0.228164
C64   C     C_R   0.136353 0.170498 0.807068 -0.229037
C65   C     C_R   0.636786 0.329831 0.806987 -0.223852
C66   C     C_R   0.363832 0.670737 0.192827 -0.224476
C67   C     C_R   0.363223 0.329874 0.193083 -0.228165
C68   C     C_R   0.636354 0.670496 0.807068 -0.229036
C69   C     C_R   0.183432 0.788845 0.765238 -0.063504
C70   C     C_R   0.817777 0.213026 0.233494 -0.063173
C71   C     C_R   0.816810 0.788662 0.234544 -0.064297
C72   C     C_R   0.182424 0.212477 0.766361 -0.063567
C73   C     C_R   0.683431 0.288844 0.765238 -0.063530
C74   C     C_R   0.317777 0.713025 0.233495 -0.063171
C75   C     C_R   0.316810 0.288662 0.234543 -0.064299
C76   C     C_R   0.682426 0.712474 0.766360 -0.063565
C77   C     C_R   0.211807 0.769479 0.812470 -0.216728
C78   C     C_R   0.791630 0.235753 0.183573 -0.211756
C79   C     C_R   0.788981 0.768778 0.186706 -0.210839
C80   C     C_R   0.208759 0.234453 0.816105 -0.205194
C81   C     C_R   0.711806 0.269475 0.812472 -0.216735
C82   C     C_R   0.291628 0.735750 0.183575 -0.211758
C83   C     C_R   0.288981 0.268777 0.186706 -0.210841
C84   C     C_R   0.708762 0.734447 0.816103 -0.205186
C85   C     C_R   0.200639 0.630904 0.513819 0.815237
C86   C     C_R   0.799287 0.369082 0.486399 0.815595
C87   C     C_R   0.803348 0.631722 0.472491 0.806171
C88   C     C_R   0.196617 0.368257 0.527614 0.806170
C89   C     C_R   0.700639 0.130904 0.513819 0.815236
C90   C     C_R   0.299287 0.869082 0.486399 0.815596
C91   C     C_R   0.303348 0.131722 0.472491 0.806170
C92   C     C_R   0.696618 0.868257 0.527613 0.806170
C93   C     C_R   0.194445 0.793024 0.900108 0.096602
C94   C     C_R   0.811689 0.215820 0.093680 0.075161
C95   C     C_R   0.806686 0.791815 0.098652 0.093324
C96   C     C_R   0.189064 0.213921 0.905789 0.072157
C97   C     C_R   0.694445 0.293024 0.900108 0.096599
C98   C     C_R   0.311687 0.715816 0.093683 0.075160
C99   C     C_R   0.306685 0.291816 0.098652 0.093326
C100  C     C_R   0.689067 0.713913 0.905787 0.072153
C101  C     C_R   0.926316 0.903383 0.066744 0.806673
C102  C     C_R   0.073023 0.097428 0.933737 0.805583
C103  C     C_R   0.073790 0.903480 0.933238 0.807298
C104  C     C_R   0.927111 0.097660 0.066093 0.806829
C105  C     C_R   0.426316 0.403383 0.066744 0.806674
C106  C     C_R   0.573023 0.597428 0.933737 0.805583
C107  C     C_R   0.573791 0.403481 0.933237 0.807304
C108  C     C_R   0.427111 0.597660 0.066093 0.806828
C109  C     C_R   0.069032 0.618143 0.440336 0.099822
C110  C     C_R   0.930398 0.382014 0.561242 0.101850
C111  C     C_R   0.971484 0.619411 0.429154 0.102684
C112  C     C_R   0.028096 0.380641 0.572109 0.102763
C113  C     C_R   0.569032 0.118143 0.440335 0.099822
C114  C     C_R   0.430398 0.882014 0.561241 0.101847
C115  C     C_R   0.471484 0.119411 0.429153 0.102684
C116  C     C_R   0.528096 0.880641 0.572109 0.102758
C117  C     C_R   0.055559 0.676435 0.401982 -0.201493
C118  C     C_R   0.943815 0.323817 0.599824 -0.203292
C119  C     C_R   0.007107 0.677201 0.396812 -0.200285
C120  C     C_R   0.992356 0.322971 0.604766 -0.201010
C121  C     C_R   0.555559 0.176435 0.401980 -0.201493
C122  C     C_R   0.443815 0.823817 0.599823 -0.203281
C123  C     C_R   0.507107 0.177200 0.396811 -0.200286
C124  C     C_R   0.492357 0.822971 0.604766 -0.201014
C125  C     C_R   0.985379 0.559839 0.465459 0.028066
C126  C     C_R   0.014150 0.440239 0.535921 0.028087
C127  C     C_R   0.034123 0.559393 0.471586 0.029899
C128  C     C_R   0.965365 0.440713 0.529885 0.030020
C129  C     C_R   0.485379 0.059839 0.465459 0.028064
C130  C     C_R   0.514150 0.940239 0.535921 0.028085
C131  C     C_R   0.534123 0.059393 0.471586 0.029898
C132  C     C_R   0.465365 0.940713 0.529884 0.030021
C133  C     C_R   0.451032 0.000378 0.494287 -0.050687
C134  C     C_R   0.548516 0.999683 0.507026 -0.050281
C135  C     C_R   0.951032 0.500378 0.494287 -0.050688
C136  C     C_R   0.048517 0.499682 0.507026 -0.050281
C137  C     C_R   0.370156 0.938535 0.509918 0.046500
C138  C     C_R   0.629485 0.061482 0.491061 0.045974
C139  C     C_R   0.613768 0.937189 0.542113 0.049778
C140  C     C_R   0.385990 0.062752 0.458614 0.049688
C141  C     C_R   0.870156 0.438535 0.509919 0.046495
C142  C     C_R   0.129485 0.561481 0.491061 0.045975
C143  C     C_R   0.113768 0.437189 0.542113 0.049777
C144  C     C_R   0.885990 0.562752 0.458614 0.049689
C145  C     C_R   0.325956 0.936333 0.489638 -0.112865
C146  C     C_R   0.673851 0.063647 0.510904 -0.112996
C147  C     C_R   0.666149 0.935462 0.536802 -0.115123
C148  C     C_R   0.333720 0.064483 0.463571 -0.115220
C149  C     C_R   0.825956 0.436333 0.489638 -0.112866
C150  C     C_R   0.173851 0.563647 0.510904 -0.112996
C151  C     C_R   0.166148 0.435462 0.536802 -0.115122
C152  C     C_R   0.833720 0.564484 0.463572 -0.115219
C153  C     C_R   0.306868 0.000137 0.471644 -0.273749
C154  C     C_R   0.693013 0.999820 0.528676 -0.274034
C155  C     C_R   0.806868 0.500137 0.471645 -0.273745
C156  C     C_R   0.193012 0.499820 0.528676 -0.274033
Cu1   Cu    Cu3+1 0.209920 0.785290 0.495070 0.931923
Cu2   Cu    Cu3+1 0.790080 0.214710 0.504930 0.931578
Cu3   Cu    Cu3+1 0.790080 0.785290 0.504930 0.935766
Cu4   Cu    Cu3+1 0.209920 0.214710 0.495070 0.935320
Cu5   Cu    Cu3+1 0.709920 0.285290 0.495070 0.931923
Cu6   Cu    Cu3+1 0.290080 0.714710 0.504930 0.931575
Cu7   Cu    Cu3+1 0.290080 0.285290 0.504930 0.935766
Cu8   Cu    Cu3+1 0.709920 0.714710 0.495070 0.935320
Cu9   Cu    Cu3+1 0.495240 0.500000 0.924150 0.933952
Cu10  Cu    Cu3+1 0.504760 0.500000 0.075850 0.934041
Cu11  Cu    Cu3+1 0.995240 0.000000 0.924150 0.933953
Cu12  Cu    Cu3+1 0.004760 0.000000 0.075850 0.934040
H1    H     H_    0.502120 0.776910 0.633559 0.138425
H2    H     H_    0.497330 0.223277 0.368058 0.138192
H3    H     H_    0.417146 0.778361 0.624894 0.138062
H4    H     H_    0.582154 0.221981 0.377139 0.136856
H5    H     H_    0.002120 0.276910 0.633560 0.138426
H6    H     H_    0.997329 0.723278 0.368060 0.138192
H7    H     H_    0.917146 0.278362 0.624895 0.138069
H8    H     H_    0.082153 0.721981 0.377141 0.136857
H9    H     H_    0.269710 0.000023 0.466398 0.189926
H10   H     H_    0.730261 0.999924 0.533633 0.189920
H11   H     H_    0.769710 0.500023 0.466398 0.189926
H12   H     H_    0.230261 0.499924 0.533634 0.189920
H13   H     H_    0.586190 0.834013 0.605907 0.162122
H14   H     H_    0.413687 0.165810 0.394577 0.161973
H15   H     H_    0.355344 0.838199 0.583385 0.167795
H16   H     H_    0.644142 0.161846 0.417681 0.168913
H17   H     H_    0.086190 0.334013 0.605907 0.162122
H18   H     H_    0.913686 0.665811 0.394580 0.161976
H19   H     H_    0.855343 0.338199 0.583385 0.167807
H20   H     H_    0.144142 0.661846 0.417681 0.168913
H21   H     H_    0.209674 0.662984 0.945774 0.151327
H22   H     H_    0.799490 0.345850 0.042707 0.147132
H23   H     H_    0.790660 0.661401 0.055442 0.150192
H24   H     H_    0.202647 0.344244 0.953305 0.146030
H25   H     H_    0.709655 0.162988 0.945810 0.151325
H26   H     H_    0.299467 0.845852 0.042749 0.147123
H27   H     H_    0.290661 0.161400 0.055434 0.150196
H28   H     H_    0.702654 0.844235 0.953295 0.146030
H29   H     H_    0.134289 0.852242 0.009623 0.144337
H30   H     H_    0.874379 0.160273 0.983722 0.159816
H31   H     H_    0.867156 0.850509 0.989081 0.145144
H32   H     H_    0.126618 0.158095 0.015590 0.161194
H33   H     H_    0.634293 0.352250 0.009619 0.144336
H34   H     H_    0.374378 0.660272 0.983724 0.159819
H35   H     H_    0.367155 0.350512 0.989082 0.145142
H36   H     H_    0.626620 0.658091 0.015588 0.161188
H37   H     H_    0.115384 0.845612 0.770057 0.175409
H38   H     H_    0.883067 0.151347 0.231741 0.176968
H39   H     H_    0.884158 0.846175 0.230441 0.173378
H40   H     H_    0.116891 0.151812 0.768351 0.174936
H41   H     H_    0.615384 0.345612 0.770057 0.175412
H42   H     H_    0.383068 0.651348 0.231741 0.176968
H43   H     H_    0.384158 0.346174 0.230441 0.173378
H44   H     H_    0.616891 0.651813 0.768351 0.174934
H45   H     H_    0.248564 0.738393 0.780431 0.151735
H46   H     H_    0.754850 0.266829 0.214903 0.149759
H47   H     H_    0.752371 0.737651 0.218584 0.155944
H48   H     H_    0.245437 0.265466 0.784751 0.153565
H49   H     H_    0.748561 0.238386 0.780434 0.151765
H50   H     H_    0.254848 0.766826 0.214906 0.149758
H51   H     H_    0.252371 0.237650 0.218583 0.155947
H52   H     H_    0.745441 0.765458 0.784749 0.153564
O1    O     O_R   0.255040 0.869590 0.478480 -0.585180
O2    O     O_R   0.744960 0.130410 0.521520 -0.585196
O3    O     O_R   0.744960 0.869590 0.521520 -0.583194
O4    O     O_R   0.255040 0.130410 0.478480 -0.583233
O5    O     O_R   0.755040 0.369590 0.478480 -0.585179
O6    O     O_R   0.244960 0.630410 0.521520 -0.585195
O7    O     O_R   0.244960 0.369590 0.521520 -0.583194
O8    O     O_R   0.755040 0.630410 0.478480 -0.583232
O9    O     O_R   0.182050 0.796550 0.624440 -0.586143
O10   O     O_R   0.817950 0.203450 0.375560 -0.586016
O11   O     O_R   0.817950 0.796550 0.375560 -0.592722
O12   O     O_R   0.182050 0.203450 0.624440 -0.592773
O13   O     O_R   0.682050 0.296550 0.624440 -0.586143
O14   O     O_R   0.317950 0.703450 0.375560 -0.586017
O15   O     O_R   0.317950 0.296550 0.375560 -0.592721
O16   O     O_R   0.682050 0.703450 0.624440 -0.592773
O17   O     O_R   0.250530 0.763330 0.367210 -0.600098
O18   O     O_R   0.749470 0.236670 0.632790 -0.601540
O19   O     O_R   0.749470 0.763330 0.632790 -0.588681
O20   O     O_R   0.250530 0.236670 0.367210 -0.589884
O21   O     O_R   0.750530 0.263330 0.367210 -0.600097
O22   O     O_R   0.249470 0.736670 0.632790 -0.601542
O23   O     O_R   0.249470 0.263330 0.632790 -0.588681
O24   O     O_R   0.750530 0.736670 0.367210 -0.589884
O25   O     O_R   0.177260 0.690030 0.513710 -0.592996
O26   O     O_R   0.822740 0.309970 0.486290 -0.592657
O27   O     O_R   0.822740 0.690030 0.486290 -0.589633
O28   O     O_R   0.177260 0.309970 0.513710 -0.589651
O29   O     O_R   0.677260 0.190030 0.513710 -0.592997
O30   O     O_R   0.322740 0.809970 0.486290 -0.592656
O31   O     O_R   0.322740 0.190030 0.486290 -0.589631
O32   O     O_R   0.677260 0.809970 0.513710 -0.589651
O33   O     O_R   0.051640 0.926880 0.885090 -0.587411
O34   O     O_R   0.948360 0.073120 0.114910 -0.588596
O35   O     O_R   0.948360 0.926880 0.114910 -0.588695
O36   O     O_R   0.051640 0.073120 0.885090 -0.590062
O37   O     O_R   0.551640 0.426880 0.885090 -0.587412
O38   O     O_R   0.448360 0.573120 0.114910 -0.588597
O39   O     O_R   0.448360 0.426880 0.114910 -0.588695
O40   O     O_R   0.551640 0.573120 0.885090 -0.590063
O41   O     O_R   0.940620 0.926560 0.986760 -0.592189
O42   O     O_R   0.059380 0.073440 0.013240 -0.592402
O43   O     O_R   0.059380 0.926560 0.013240 -0.593325
O44   O     O_R   0.940620 0.073440 0.986760 -0.593199
O45   O     O_R   0.440620 0.426560 0.986760 -0.592189
O46   O     O_R   0.559380 0.573440 0.013240 -0.592404
O47   O     O_R   0.559380 0.426560 0.013240 -0.593323
O48   O     O_R   0.440620 0.573440 0.986760 -0.593199
C157  C     C_3   0.258263 0.903290 0.940160 -0.423632
C158  C     C_3   0.299966 0.909859 0.841982 -0.801658
H53   H     H_    0.339786 0.890179 0.832346 0.253603
H54   H     H_    0.287590 0.878883 0.798444 0.253700
H55   H     H_    0.303993 0.966715 0.821297 0.237023
H56   H     H_    0.219041 0.924127 0.949005 0.206895
H57   H     H_    0.271119 0.938018 0.980211 0.203670
C159  C     C_3   0.764176 0.102336 0.023006 -0.414014
C160  C     C_3   0.802462 0.069317 0.932657 -0.841341
H58   H     H_    0.782631 0.066415 0.888821 0.244372
H59   H     H_    0.839765 0.101363 0.898360 0.251722
H60   H     H_    0.814243 0.014774 0.942012 0.235585
H61   H     H_    0.779154 0.090579 0.072167 0.214977
H62   H     H_    0.724133 0.076335 0.049222 0.198788
C161  C     C_3   0.744974 0.902649 0.053049 -0.424610
C162  C     C_3   0.703369 0.912032 0.150796 -0.797932
H63   H     H_    0.663254 0.893572 0.161020 0.252341
H64   H     H_    0.715167 0.881511 0.195573 0.258822
H65   H     H_    0.700359 0.969304 0.169207 0.234540
H66   H     H_    0.784459 0.922458 0.043545 0.206182
H67   H     H_    0.732797 0.936904 0.011454 0.203814
C163  C     C_3   0.236709 0.100517 0.977847 -0.416251
C164  C     C_3   0.198798 0.067374 0.068280 -0.843119
H68   H     H_    0.218327 0.065993 0.112649 0.245674
H69   H     H_    0.160816 0.098419 0.101777 0.253842
H70   H     H_    0.188354 0.012147 0.059152 0.234735
H71   H     H_    0.221625 0.088633 0.928940 0.215787
H72   H     H_    0.276915 0.074636 0.951410 0.199090
C165  C     C_3   0.758283 0.403282 0.940122 -0.423668
C166  C     C_3   0.799942 0.409836 0.841929 -0.802203
H73   H     H_    0.839736 0.390030 0.832186 0.253735
H74   H     H_    0.787469 0.378991 0.798457 0.253823
H75   H     H_    0.804052 0.466688 0.821270 0.237087
H76   H     H_    0.719056 0.424131 0.949024 0.206932
H77   H     H_    0.771178 0.438008 0.980119 0.203717
C167  C     C_3   0.264185 0.602331 0.022986 -0.414013
C168  C     C_3   0.302473 0.569312 0.932636 -0.841334
H78   H     H_    0.282644 0.566414 0.888796 0.244367
H79   H     H_    0.339777 0.601357 0.898342 0.251719
H80   H     H_    0.314251 0.514767 0.941991 0.235582
H81   H     H_    0.279163 0.590572 0.072148 0.214975
H82   H     H_    0.224143 0.576329 0.049200 0.198784
C169  C     C_3   0.244975 0.402656 0.053051 -0.424602
C170  C     C_3   0.203375 0.412041 0.150802 -0.797934
H83   H     H_    0.163258 0.393578 0.161037 0.252342
H84   H     H_    0.215178 0.381524 0.195575 0.258823
H85   H     H_    0.200365 0.469315 0.169207 0.234539
H86   H     H_    0.284462 0.422464 0.043537 0.206178
H87   H     H_    0.232794 0.436911 0.011460 0.203809
C171  C     C_3   0.736706 0.600515 0.977861 -0.416277
C172  C     C_3   0.698798 0.567376 0.068295 -0.843101
H88   H     H_    0.718320 0.566031 0.112676 0.245687
H89   H     H_    0.660805 0.598404 0.101771 0.253837
H90   H     H_    0.688374 0.512137 0.059176 0.234735
H91   H     H_    0.721620 0.588627 0.928957 0.215810
H92   H     H_    0.776911 0.574634 0.951427 0.199096

loop_
_geom_bond_atom_site_label_1
_geom_bond_atom_site_label_2
_ccdc_geom_bond_type
C85   O25   A    
C164  H68   S    
C34   C42   A    
C16   C113  A    
C78   H46   S    
C80   H48   S    
C167  H82   S    
C90   O30   A    
C27   C99   S    
C171  H91   S    
C13   C139  A    
C162  H63   S    
C117  C119  A    
C46   H30   S    
C88   O7    A    
C8    O24   A    
C43   C163  S    
C30   C38   A    
C109  C127  A    
C111  C125  A    
C165  H76   S    
C102  O42   A    
C67   H43   S    
Cu5   O21   S    
C34   H26   S    
C143  C151  A    
C126  C136  A    
C19   C141  A    
C92   C147  S    
C82   C98   A    
C110  C118  A    
C130  C134  A    
Cu4   O28   S    
Cu7   O7    S    
C73   C81   A    
C14   H14   S    
C153  H9    S    
C7    O12   A    
C50   H34   S    
C115  C123  A    
C77   H45   S    
C84   C100  A    
Cu4   Cu7   S    
C127  C136  A    
C128  C135  A    
C112  C120  A    
C27   C35   A    
C44   C161  S    
C21   C29   A    
Cu3   O11   S    
C24   C32   A    
C5    C70   S    
C2    O13   A    
C146  C154  A    
Cu12  O34   S    
Cu10  O46   S    
Cu2   O18   S    
C129  C133  A    
Cu4   O4    S    
C63   C71   A    
C158  H54   S    
C36   C44   A    
C166  H73   S    
C32   C40   A    
C137  C145  A    
C8    C71   S    
C48   C96   A    
C161  H66   S    
C162  H65   S    
C16   C138  A    
C16   H16   S    
C87   O27   A    
C24   C96   S    
C149  C155  A    
C156  H12   S    
C21   C93   S    
C78   C94   A    
C18   C144  A    
C23   C95   S    
C118  C120  A    
C121  C123  A    
C49   C97   A    
C21   C42   A    
Cu5   O13   S    
C87   O8    A    
C125  C127  A    
C24   C43   A    
C10   C138  A    
C91   O4    A    
Cu12  O42   S    
Cu1   Cu6   S    
C62   H38   S    
C110  C128  A    
C15   C137  A    
C9    C133  A    
C6    C69   S    
C172  H89   S    
Cu11  O33   S    
C69   C77   A    
C45   C93   A    
C71   C79   A    
Cu1   O9    S    
C62   C70   A    
C159  H62   S    
C157  H56   S    
C163  H72   S    
C1    C74   S    
C164  H69   S    
C119  H6    S    
C9    C140  A    
C20   H20   S    
C45   H29   S    
C66   C74   A    
C49   C57   A    
C170  H83   S    
C111  C119  A    
C108  O48   A    
C39   C171  S    
C52   C60   A    
C59   C67   A    
C53   C61   A    
C12   C142  A    
C168  H79   S    
C55   C63   A    
Cu4   O12   S    
Cu7   O23   S    
C66   H42   S    
C35   C43   A    
C45   C53   A    
C160  H58   S    
Cu1   O1    S    
C22   C94   S    
C47   H31   S    
Cu6   O6    S    
C92   O32   A    
C49   H33   S    
C50   C98   A    
Cu2   O2    S    
C90   O1    A    
C17   H17   S    
C7    C72   S    
C1    O17   A    
C52   C100  A    
C36   H28   S    
C25   C38   A    
C88   O28   A    
C83   H51   S    
C46   C94   A    
C27   C40   A    
C81   H49   S    
C116  C130  A    
C11   C141  A    
C60   C68   A    
C2    C73   S    
C25   C97   S    
C14   C140  A    
C13   H13   S    
C87   C152  S    
C88   C151  S    
C67   C75   A    
C122  C124  A    
C68   H44   S    
C60   C106  S    
C126  C128  A    
C22   C30   A    
C68   C76   A    
C104  O44   A    
C170  H85   S    
C171  H92   S    
C107  O37   A    
C162  H64   S    
C56   C102  S    
C72   C80   A    
Cu5   O29   S    
C125  C135  A    
C138  C146  A    
C102  O36   A    
C30   H22   S    
C123  H2    S    
Cu7   O15   S    
C121  H4    S    
C113  C121  A    
C159  C160  S    
C122  H3    S    
C12   C136  A    
C160  H60   S    
C3    O19   A    
C161  C162  S    
C86   O5    A    
C5    O10   A    
C6    O22   A    
C83   C99   A    
Cu1   O25   S    
C61   H37   S    
Cu8   O16   S    
C131  C134  A    
C76   C84   A    
C109  C117  A    
C91   O31   A    
C37   C167  S    
C129  C131  A    
C59   C105  S    
C89   O29   A    
C48   H32   S    
Cu10  O38   S    
C54   C104  S    
C90   C145  S    
C8    O11   A    
C22   C41   A    
C14   C115  A    
C31   H23   S    
C32   H24   S    
C163  C164  S    
Cu11  O41   S    
C85   C150  S    
C4    C75   S    
Cu2   Cu5   S    
C19   H19   S    
C9    C137  A    
C124  H1    S    
C155  H11   S    
Cu9   O48   S    
C15   H15   S    
Cu10  O47   S    
Cu6   O22   S    
C113  C131  A    
C112  C126  A    
C35   H27   S    
C33   H25   S    
C63   H39   S    
C157  C158  S    
C158  H55   S    
C140  C148  A    
C166  H74   S    
C74   C82   A    
C51   H35   S    
C167  H81   S    
C106  O46   A    
C141  C149  A    
C50   C58   A    
Cu11  Cu12  S    
C54   C62   A    
C28   C39   A    
Cu9   O37   S    
C23   C44   A    
C52   H36   S    
C166  H75   S    
C130  C132  A    
C79   C95   A    
C11   C135  A    
C3    O16   A    
C152  C155  A    
C1    O14   A    
C46   C54   A    
C165  H77   S    
C151  C156  A    
C18   C111  A    
Cu1   O17   S    
C154  H10   S    
C103  O33   A    
C10   C139  A    
Cu8   O24   S    
Cu11  O36   S    
C116  C124  A    
C101  O35   A    
C92   O3    A    
C57   C65   A    
C12   C143  A    
C26   C37   A    
C4    O20   A    
C17   C143  A    
C33   C41   A    
C142  C150  A    
Cu7   O31   S    
C75   C83   A    
C53   C103  S    
C169  H87   S    
C77   C93   A    
C170  H84   S    
C58   C108  S    
C13   C116  A    
C172  H88   S    
Cu6   O14   S    
C28   C36   A    
C144  C152  A    
C168  H78   S    
C29   C37   A    
Cu3   O19   S    
C158  H53   S    
C105  O45   A    
C23   C31   A    
C169  C170  S    
Cu9   Cu10  S    
C101  O41   A    
C70   C78   A    
C165  C166  S    
C108  O38   A    
C40   C169  S    
Cu2   O10   S    
C104  O34   A    
C161  H67   S    
C64   H40   S    
C139  C147  A    
C159  H61   S    
C65   C73   A    
C147  C154  A    
C26   C34   A    
C132  C133  A    
C80   C96   A    
C84   H52   S    
C11   C144  A    
C65   H41   S    
C145  C153  A    
C28   C100  S    
C79   H47   S    
C172  H90   S    
C86   O26   A    
Cu9   O45   S    
C169  H86   S    
C106  O40   A    
C91   C148  S    
C58   C66   A    
Cu5   O5    S    
C51   C99   A    
C89   C146  S    
C157  H57   S    
C163  H71   S    
C20   C142  A    
C164  H70   S    
C86   C149  S    
C89   O2    A    
C2    O18   A    
Cu12  O35   S    
C18   H18   S    
C171  C172  S    
C82   H50   S    
C168  H80   S    
C56   C64   A    
C15   C114  A    
Cu8   O8    S    
C3    C76   S    
Cu3   O27   S    
C41   C159  S    
C26   C98   S    
C117  H8    S    
C167  C168  S    
C57   C107  S    
C118  H7    S    
C160  H59   S    
C107  O47   A    
C4    O15   A    
C51   C59   A    
C7    O23   A    
C17   C112  A    
C47   C55   A    
C115  C129  A    
C19   C110  A    
C61   C69   A    
C48   C56   A    
C47   C95   A    
Cu4   O20   S    
Cu3   Cu8   S    
C114  C132  A    
C10   C134  A    
C55   C101  S    
Cu9   O40   S    
Cu10  O39   S    
C42   C157  S    
Cu6   O30   S    
C81   C97   A    
Cu3   O3    S    
C31   C39   A    
C29   H21   S    
Cu11  O44   S    
C64   C72   A    
Cu12  O43   S    
C20   C109  A    
C114  C122  A    
C120  H5    S    
C38   C165  S    
C105  O39   A    
C148  C153  A    
C6    O9    A    
C25   C33   A    
C103  O43   A    
C150  C156  A    
C85   O6    A    
Cu2   O26   S    
C5    O21   A    
Cu8   O32   S    
