data_mof_unit_41460.cif
_audit_creation_date              2012-12-10T18:18:24-0500
_audit_creation_method            fapswitch 2.2
_symmetry_space_group_name_H-M    P1
_symmetry_Int_Tables_number       1
_space_group_crystal_system       triclinic
_cell_length_a                    13.998197
_cell_length_b                    15.023553
_cell_length_c                    15.482521
_cell_angle_alpha                 90.000782
_cell_angle_beta                  66.909076
_cell_angle_gamma                 90.094665
_cell_volume                      2995.15035544

loop_
_atom_site_label
_atom_site_type_symbol
_atom_type_description
_atom_site_fract_x
_atom_site_fract_y
_atom_site_fract_z
_atom_type_partial_charge
C1    C     C_R   0.500036 0.673542 0.500115 0.892739
C2    C     C_R   0.499884 0.769372 0.501349 -0.067061
C3    C     C_R   0.409753 0.184917 0.507512 -0.247585
C4    C     C_R   0.590256 0.815075 0.492463 -0.243231
C5    C     C_R   0.408943 0.092367 0.504904 0.007911
C6    C     C_R   0.591070 0.907627 0.495052 0.008504
C7    C     C_R   0.499898 0.046353 0.498531 0.016297
C8    C     C_R   0.500124 0.953639 0.501400 0.015244
C9    C     C_R   0.590763 0.093164 0.489540 0.045672
C10   C     C_R   0.409263 0.906829 0.510383 0.044059
C11   C     C_R   0.319097 0.044273 0.511525 0.431652
C12   C     C_R   0.499968 0.326457 0.499876 0.890204
C13   C     C_R   0.680908 0.955721 0.488446 0.433963
C14   C     C_R   0.319733 0.952036 0.516592 -0.212314
C15   C     C_R   0.680289 0.047956 0.483345 -0.217721
C16   C     C_R   0.434556 0.498995 0.677146 0.889123
C17   C     C_R   0.565368 0.503955 0.323142 0.891013
C18   C     C_R   0.187508 0.427119 0.532536 -0.063453
C19   C     C_R   0.812677 0.572682 0.466884 -0.056368
C20   C     C_R   0.216412 0.572494 0.466641 -0.055255
C21   C     C_R   0.783733 0.427426 0.533068 -0.065600
C22   C     C_R   0.115992 0.574414 0.466141 0.002890
C23   C     C_R   0.383578 0.573037 0.102608 -0.321325
C24   C     C_R   0.884273 0.425428 0.533218 0.004234
C25   C     C_R   0.050784 0.499857 0.499521 0.087669
C26   C     C_R   0.949469 0.499999 0.499822 0.079227
C27   C     C_R   0.086878 0.425108 0.532508 0.006319
C28   C     C_R   0.913474 0.574622 0.466533 0.004120
C29   C     C_R   0.079378 0.648787 0.433332 -0.213699
C30   C     C_R   0.921117 0.350849 0.565446 -0.209148
C31   C     C_R   0.978896 0.648927 0.433617 -0.202855
C32   C     C_R   0.021794 0.350509 0.564576 -0.215584
C33   C     C_R   0.392767 0.506418 0.780263 -0.197560
C34   C     C_R   0.626201 0.547746 0.890696 -0.319082
C35   C     C_R   0.607352 0.519725 0.221053 -0.184372
C36   C     C_R   0.259724 0.545044 0.931902 -0.162100
C37   C     C_R   0.744981 0.540474 0.066893 -0.176535
C38   C     C_R   0.286902 0.521783 0.837839 0.426247
C39   C     C_R   0.714211 0.531327 0.163897 0.422089
C40   C     C_R   0.466191 0.508096 0.820437 -0.276893
C41   C     C_R   0.534673 0.526420 0.180285 -0.288559
C42   C     C_R   0.441016 0.535420 0.912651 0.056463
C43   C     C_R   0.564125 0.543260 0.084912 0.056572
C44   C     C_R   0.335315 0.551105 0.970461 -0.031940
C45   C     C_R   0.306748 0.571323 0.065829 0.493957
C46   C     C_R   0.671135 0.544104 0.026294 -0.029982
C47   C     C_R   0.518911 0.544395 0.948928 0.026163
C48   C     C_R   0.488366 0.552861 0.046468 0.027148
C49   C     C_3   0.157260 0.541120 0.197206 0.076193
C50   C     C_3   0.111425 0.459128 0.168520 -0.380705
C51   C     C_3   0.046925 0.403391 0.254113 -0.870213
C52   C     C_3   0.844759 0.479717 0.816511 0.090680
C53   C     C_3   0.883474 0.413454 0.870830 -0.367793
C54   C     C_3   0.940591 0.335532 0.809250 -0.909594
C55   C     C_R   0.702111 0.547656 0.928507 0.490004
C56   C     C_R   0.590535 0.185089 0.488560 -0.220461
C57   C     C_R   0.409493 0.814904 0.511364 -0.212109
C58   C     C_R   0.500131 0.230622 0.498612 -0.067625
H1    H     H_    0.216081 0.370621 0.558584 0.130404
H2    H     H_    0.544271 0.486939 0.778385 0.175084
H3    H     H_    0.178550 0.556708 0.975060 0.200690
H4    H     H_    0.827116 0.545806 0.023741 0.200003
H5    H     H_    0.361098 0.595170 0.174289 0.152152
H6    H     H_    0.653253 0.554958 0.815457 0.162095
H7    H     H_    0.660503 0.221111 0.481378 0.154652
H8    H     H_    0.339530 0.778881 0.518532 0.157414
H9    H     H_    0.340029 0.222304 0.518509 0.160953
H10   H     H_    0.659972 0.777687 0.481496 0.161768
H11   H     H_    0.250522 0.915434 0.522659 0.175317
H12   H     H_    0.784105 0.629072 0.440677 0.132287
H13   H     H_    0.749498 0.084558 0.477285 0.172840
H14   H     H_    0.092546 0.578960 0.249851 0.196456
H15   H     H_    0.208687 0.520449 0.233115 0.124524
H16   H     H_    0.061082 0.480647 0.131944 0.253665
H17   H     H_    0.175270 0.417527 0.119516 0.211143
H18   H     H_    0.094950 0.382317 0.293065 0.258300
H19   H     H_    0.017471 0.343083 0.231064 0.268752
H20   H     H_    0.979433 0.442338 0.301696 0.273212
H21   H     H_    0.911441 0.499786 0.751603 0.194877
H22   H     H_    0.787632 0.446902 0.792936 0.118214
H23   H     H_    0.267879 0.628929 0.440530 0.134278
H24   H     H_    0.937314 0.447778 0.896954 0.251377
H25   H     H_    0.816344 0.387423 0.932061 0.213654
H26   H     H_    0.890289 0.301905 0.778731 0.262940
H27   H     H_    0.962232 0.286583 0.852166 0.270114
H28   H     H_    0.012760 0.359480 0.751975 0.266114
H29   H     H_    0.766782 0.572875 0.254070 0.342749
H30   H     H_    0.223807 0.462999 0.762871 0.339436
H31   H     H_    0.249198 0.136548 0.471245 0.325067
H32   H     H_    0.750737 0.863472 0.528828 0.327828
H33   H     H_    0.732306 0.370966 0.559153 0.134752
H34   H     H_    0.128470 0.706739 0.407298 0.157107
H35   H     H_    0.872197 0.292747 0.591148 0.148743
H36   H     H_    0.952550 0.706962 0.407745 0.168032
H37   H     H_    0.048557 0.292054 0.589416 0.165124
H38   H     H_    0.453830 0.514430 0.223263 0.180229
N1    N     N_R   0.249980 0.499930 0.499960 -0.095304
N2    N     N_R   0.750020 0.500070 0.500040 -0.097624
O1    O     O_R   0.419720 0.632140 0.499980 -0.625340
O2    O     O_3   0.806182 0.557703 0.870385 -0.639367
O3    O     O_3   0.790551 0.532694 0.199025 -0.760047
O4    O     O_3   0.208143 0.514570 0.805975 -0.752989
O5    O     O_3   0.229624 0.084031 0.513169 -0.763192
O6    O     O_3   0.770353 0.915963 0.486869 -0.761004
O7    O     O_R   0.580280 0.367860 0.500020 -0.627996
O8    O     O_R   0.580270 0.632160 0.499970 -0.634315
O9    O     O_R   0.419730 0.367840 0.500030 -0.633254
O10   O     O_R   0.373870 0.499980 0.632250 -0.596646
O11   O     O_R   0.626130 0.500020 0.367750 -0.597468
O12   O     O_R   0.534420 0.500000 0.632240 -0.611874
O13   O     O_R   0.465580 0.500000 0.367760 -0.616996
O14   O     O_3   0.205937 0.598451 0.119521 -0.643829
Zn1   Zn    Zn3+2 0.392800 0.499980 0.500010 0.954029
Zn2   Zn    Zn3+2 0.607200 0.500020 0.499990 0.951234

loop_
_geom_bond_atom_site_label_1
_geom_bond_atom_site_label_2
_ccdc_geom_bond_type
C23   C45   A    
C22   C29   A    
C54   H28   S    
C2    C4    A    
C57   H8    S    
C1    O1    A    
C54   H26   S    
C37   H4    S    
C2    C57   A    
C16   O12   A    
C7    C8    A    
C53   C54   S    
C44   C45   A    
O8    Zn2   S    
C40   H2    S    
C24   C26   A    
C5    C11   A    
C30   H35   S    
C50   H16   S    
C12   O7    A    
C11   C14   A    
N2    Zn2   S    
C41   H38   S    
C56   H7    S    
C1    C2    S    
O9    Zn1   S    
H29   O3    S    
C20   N1    A    
C22   C25   A    
C46   C55   A    
C18   N1    A    
C52   H21   S    
C43   C48   A    
O12   Zn2   S    
C1    O8    A    
C38   O4    S    
C12   C58   S    
C40   C42   A    
C34   C55   A    
C20   H23   S    
H31   O5    S    
C41   C43   A    
C42   C44   A    
C17   O13   A    
C19   N2    A    
C39   O3    S    
C37   C39   A    
C45   O14   S    
C33   C40   A    
O7    Zn2   S    
C10   C57   A    
C51   H18   S    
C4    C6    A    
C10   C14   A    
C4    H10   S    
C6    C8    A    
C25   C26   A    
C49   H14   S    
C53   H24   S    
O10   Zn1   S    
C55   O2    S    
C35   C39   A    
C51   H19   S    
C16   C33   S    
C54   H27   S    
C47   C48   A    
C34   H6    S    
C50   C51   S    
O13   Zn1   S    
C9    C56   A    
C13   O6    S    
C19   C28   A    
H32   O6    S    
O11   Zn2   S    
C49   O14   S    
C20   C22   A    
C13   C15   A    
C14   H11   S    
C49   H15   S    
C36   C44   A    
N1    Zn1   S    
C36   H3    S    
C52   C53   S    
C5    C7    A    
C21   H33   S    
C7    C9    A    
C23   C48   A    
C27   C32   A    
C28   C31   A    
C3    H9    S    
C18   C27   A    
C3    C5    A    
C17   O11   A    
O1    Zn1   S    
C12   O9    A    
H30   O4    S    
C25   C27   A    
C31   H36   S    
C15   H13   S    
C26   C28   A    
C33   C38   A    
C53   H25   S    
C36   C38   A    
C9    C15   A    
C51   H20   S    
C29   C31   A    
C50   H17   S    
C6    C13   A    
C30   C32   A    
C21   N2    A    
C23   H5    S    
C56   C58   A    
C42   C47   A    
C35   C41   A    
C43   C46   A    
C24   C30   A    
C16   O10   A    
C3    C58   A    
C18   H1    S    
C32   H37   S    
C8    C10   A    
C49   C50   S    
C21   C24   A    
C52   O2    S    
C19   H12   S    
C11   O5    S    
C34   C47   A    
C17   C35   S    
C37   C46   A    
C52   H22   S    
C29   H34   S    
