data_mof_unit_55751.cif
_audit_creation_date              2012-12-10T18:46:12-0500
_audit_creation_method            fapswitch 2.2
_symmetry_space_group_name_H-M    P1
_symmetry_Int_Tables_number       1
_space_group_crystal_system       triclinic
_cell_length_a                    9.841797
_cell_length_b                    10.713028
_cell_length_c                    13.11192
_cell_angle_alpha                 90.087192
_cell_angle_beta                  69.558733
_cell_angle_gamma                 89.945798
_cell_volume                      1295.40540816

loop_
_atom_site_label
_atom_site_type_symbol
_atom_type_description
_atom_site_fract_x
_atom_site_fract_y
_atom_site_fract_z
_atom_type_partial_charge
C1    C     C_R   0.499953 0.740117 0.500123 0.855988
C2    C     C_R   0.428102 0.520328 0.985917 0.076662
C3    C     C_R   0.452967 0.558688 0.878224 0.097455
C4    C     C_R   0.537989 0.542838 0.030243 0.086717
C5    C     C_R   0.658117 0.619467 0.974105 0.155591
C6    C     C_R   0.668497 0.672316 0.874677 -0.241046
C7    C     C_R   0.567074 0.642408 0.827183 -0.202937
C8    C     C_R   0.533346 0.488451 0.127637 -0.257798
C9    C     C_R   0.756022 0.593450 0.119418 -0.035672
C10   C     C_R   0.364821 0.509987 0.823180 -0.118821
C11   C     C_R   0.608085 0.935974 0.525424 -0.187523
C12   C     C_R   0.419096 0.504927 0.704546 0.857637
C13   C     C_R   0.608237 0.063879 0.525223 -0.187561
C14   C     C_R   0.500060 0.127423 0.499997 -0.014079
C15   C     C_R   0.391762 0.063954 0.474942 -0.193332
C16   C     C_R   0.391656 0.936066 0.475083 -0.187670
C17   C     C_R   0.499859 0.872530 0.500256 -0.007786
C18   C     C_R   0.956879 0.416144 0.438196 -0.025132
C19   C     C_R   0.100788 0.416237 0.438143 -0.073470
C20   C     C_R   0.043189 0.583981 0.561664 -0.082268
C21   C     C_R   0.899469 0.584153 0.561405 -0.056966
C22   C     C_R   0.500026 0.259871 0.499954 0.869731
C23   C     C_R   0.581386 0.501931 0.295002 0.880337
C24   C     C_R   0.766755 0.642203 0.017909 -0.246514
C25   C     C_R   0.632623 0.520886 0.177072 -0.140486
C26   C     C_R   0.235033 0.448897 0.881299 -0.211604
C27   C     C_R   0.198510 0.427868 0.992123 -0.106443
C28   C     C_R   0.295252 0.460105 0.043976 -0.167328
H1    H     H_    0.691856 0.112645 0.545519 0.155278
H2    H     H_    0.308213 0.112761 0.454527 0.151307
H3    H     H_    0.308046 0.887312 0.454763 0.158199
H4    H     H_    0.925470 0.349207 0.388693 0.137668
H5    H     H_    0.178393 0.349324 0.388578 0.120200
H6    H     H_    0.074650 0.651104 0.610998 0.124964
H7    H     H_    0.822435 0.651833 0.610125 0.116746
H8    H     H_    0.757108 0.734337 0.832205 0.140168
H9    H     H_    0.859692 0.698898 0.973111 0.168397
H10   H     H_    0.448725 0.423457 0.169762 0.149087
H11   H     H_    0.164693 0.413239 0.840317 0.161311
H12   H     H_    0.261900 0.439369 0.129700 0.145155
H13   H     H_    0.097937 0.381095 0.036976 0.169206
H14   H     H_    0.578347 0.685739 0.750162 0.150844
H15   H     H_    0.691559 0.887135 0.545917 0.148271
N1    N     N_R   0.142790 0.500030 0.500030 -0.077014
N2    N     N_R   0.857180 0.499940 0.500010 -0.073959
O1    O     O_R   0.385370 0.683250 0.500010 -0.625226
O2    O     O_R   0.614700 0.683220 0.500010 -0.628908
O3    O     O_R   0.328400 0.499990 0.653620 -0.611375
O4    O     O_R   0.557730 0.499960 0.653620 -0.610783
O5    O     O_R   0.385300 0.316780 0.499990 -0.627200
O6    O     O_R   0.614630 0.316750 0.499990 -0.625217
O7    O     O_R   0.442270 0.500040 0.346380 -0.612533
O8    O     O_R   0.671600 0.500010 0.346380 -0.569879
Zn1   Zn    Zn3+2 0.346870 0.500020 0.500000 0.944829
Zn2   Zn    Zn3+2 0.653130 0.499980 0.500000 0.971507
C29   C     C_2   0.874118 0.622695 0.161282 0.921303
O9    O     O_2   0.924960 0.540973 0.202265 -0.641976
O10   O     O_R   0.933343 0.742727 0.147799 -0.809379
H16   H     H_    0.015258 0.750853 0.177480 0.343326

loop_
_geom_bond_atom_site_label_1
_geom_bond_atom_site_label_2
_ccdc_geom_bond_type
C2    C4    A    
C9    C24   A    
C11   H15   S    
C6    C7    A    
C21   H7    S    
C29   O10   S    
C2    C28   A    
C27   H13   S    
C1    C17   S    
C12   O3    A    
C22   O5    A    
C4    C8    A    
C20   H6    S    
O1    Zn1   S    
C23   C25   S    
C12   O4    A    
C23   O7    A    
C9    C25   A    
C9    C29   S    
C13   C14   A    
C20   C21   A    
C16   H3    S    
O3    Zn1   S    
C8    C25   A    
C11   C13   A    
C14   C22   S    
C26   C27   A    
O5    Zn1   S    
C5    C24   A    
C10   C12   S    
C8    H10   S    
C23   O8    A    
C13   H1    S    
C20   N1    A    
C6    H8    S    
C24   H9    S    
C3    C7    A    
C21   N2    A    
O8    Zn2   S    
C1    O2    A    
C5    C6    A    
C26   H11   S    
C1    O1    A    
C22   O6    A    
C18   H4    S    
C29   O9    D    
C28   H12   S    
C15   C16   A    
C18   N2    A    
N1    Zn1   S    
C19   N1    A    
N2    Zn2   S    
C15   H2    S    
O2    Zn2   S    
C18   C19   A    
C19   H5    S    
C7    H14   S    
C27   C28   A    
C3    C10   A    
C14   C15   A    
C4    C5    A    
C2    C3    A    
O6    Zn2   S    
O10   H16   S    
O4    Zn2   S    
C10   C26   A    
C11   C17   A    
O7    Zn1   S    
C16   C17   A    
