data_mof_unit_36599.cif
_audit_creation_date              2012-10-26T18:28:20-0400
_audit_creation_method            fapswitch 2.2
_symmetry_space_group_name_H-M    P1
_symmetry_Int_Tables_number       1
_space_group_crystal_system       triclinic
_cell_length_a                    27.791281
_cell_length_b                    11.036259
_cell_length_c                    9.817851
_cell_angle_alpha                 111.093227
_cell_angle_beta                  97.885278
_cell_angle_gamma                 91.056602
_cell_volume                      2775.41858481

loop_
_atom_site_label
_atom_site_type_symbol
_atom_type_description
_atom_site_fract_x
_atom_site_fract_y
_atom_site_fract_z
_atom_type_partial_charge
C1    C     C_R   0.496502 0.254129 0.440679 0.584812
C2    C     C_R   0.871260 0.392316 0.497639 0.024918
C3    C     C_R   0.354925 0.491320 0.503665 0.020263
C4    C     C_R   0.645129 0.509369 0.496467 0.019454
C5    C     C_R   0.973961 0.394038 0.511038 0.018696
C6    C     C_R   0.025933 0.606269 0.481625 0.018630
C7    C     C_R   0.974707 0.606853 0.480579 0.018969
C8    C     C_R   0.025564 0.397787 0.522160 0.018712
C9    C     C_R   0.948948 0.499777 0.493120 0.033981
C10   C     C_R   0.051137 0.502690 0.504670 0.034041
C11   C     C_R   0.946170 0.287336 0.516220 -0.139645
C12   C     C_R   0.503506 0.745872 0.559322 0.582978
C13   C     C_R   0.053103 0.705750 0.459652 -0.139949
C14   C     C_R   0.895955 0.286972 0.510139 -0.110779
C15   C     C_R   0.103233 0.705071 0.463680 -0.111181
C16   C     C_R   0.407615 0.496243 0.500723 0.589135
C17   C     C_R   0.592404 0.503977 0.499336 0.587802
C18   C     C_R   0.052815 0.300340 0.551432 -0.140196
C19   C     C_R   0.948077 0.711545 0.468147 -0.139741
C20   C     C_2   0.494513 0.114824 0.407240 -0.096615
C21   C     C_2   0.505492 0.885177 0.592761 -0.097814
C22   C     C_2   0.500931 0.069560 0.516613 -0.150971
C23   C     C_R   0.102565 0.503845 0.509948 -0.026925
C24   C     C_2   0.499066 0.930440 0.483389 -0.151091
C25   C     C_2   0.504164 0.510554 0.081177 -0.024632
C26   C     C_2   0.495839 0.489440 0.918822 -0.024607
C27   C     C_R   0.178916 0.405427 0.538343 0.400202
C28   C     C_R   0.821611 0.601652 0.471397 0.399725
C29   C     C_R   0.179063 0.603266 0.492260 0.400427
C30   C     C_R   0.820636 0.394166 0.495182 0.400288
C31   C     C_R   0.287318 0.590489 0.625124 -0.056644
C32   C     C_R   0.712645 0.413883 0.371823 -0.057023
C33   C     C_R   0.337172 0.585988 0.621142 -0.165181
C34   C     C_R   0.897529 0.498587 0.488099 -0.026945
C35   C     C_R   0.662809 0.417820 0.376294 -0.165576
C36   C     C_R   0.321751 0.397185 0.390304 -0.010797
C37   C     C_R   0.678411 0.600949 0.612246 -0.011021
C38   C     C_R   0.271724 0.404801 0.394850 -0.080998
C39   C     C_R   0.728423 0.593525 0.607389 -0.080908
C40   C     C_R   0.254484 0.500363 0.511695 0.230423
C41   C     C_R   0.745597 0.501205 0.487659 0.228991
C42   C     C_2   0.336960 0.285974 0.269328 0.237076
C43   C     C_2   0.663347 0.709662 0.736178 0.238101
C44   C     C_R   0.128268 0.403378 0.535469 0.024486
C45   C     C_R   0.872253 0.603893 0.474085 0.024612
C46   C     C_R   0.103039 0.303156 0.557482 -0.111892
C47   C     C_R   0.897957 0.709668 0.464651 -0.111842
C48   C     C_R   0.128417 0.605202 0.489197 0.024570
Cu1   Cu    Cu3+1 0.508480 0.521810 0.644910 0.995722
Cu2   Cu    Cu3+1 0.491520 0.478190 0.355090 0.995071
H1    H     H_    0.512218 0.951218 0.707588 0.115798
H2    H     H_    0.879422 0.792475 0.455231 0.166281
H3    H     H_    0.637967 0.347614 0.286667 0.132332
H4    H     H_    0.361972 0.658199 0.708806 0.131150
H5    H     H_    0.725715 0.342716 0.278471 0.143878
H6    H     H_    0.274141 0.664218 0.716172 0.142180
H7    H     H_    0.876523 0.203176 0.515508 0.167964
H8    H     H_    0.122193 0.783505 0.445940 0.168278
H9    H     H_    0.961878 0.200897 0.522938 0.107065
H10   H     H_    0.036813 0.785301 0.436528 0.108291
H11   H     H_    0.036668 0.220749 0.572524 0.108055
H12   H     H_    0.487789 0.048782 0.292413 0.115730
H13   H     H_    0.964793 0.798251 0.463188 0.106602
H14   H     H_    0.492355 0.864680 0.368368 0.157317
H15   H     H_    0.507640 0.135320 0.631635 0.157095
H16   H     H_    0.311491 0.237654 0.168532 0.107501
H17   H     H_    0.688590 0.754081 0.838332 0.107105
H18   H     H_    0.467576 0.417056 0.846098 0.153055
H19   H     H_    0.532429 0.582933 0.153900 0.152730
H20   H     H_    0.547840 0.622665 0.934165 0.218048
H21   H     H_    0.452160 0.377335 0.065833 0.217771
H22   H     H_    0.245793 0.334361 0.308966 0.120410
H23   H     H_    0.754397 0.661911 0.695278 0.122378
H24   H     H_    0.122052 0.225697 0.579402 0.166603
N1    N     N_R   0.203125 0.503886 0.515705 -0.395686
N2    N     N_R   0.796971 0.498274 0.483182 -0.395423
N3    N     N_2   0.478780 0.445430 0.137360 -0.351044
N4    N     N_2   0.521220 0.554570 0.862640 -0.351014
O1    O     O_R   0.504520 0.332330 0.577400 -0.508791
O2    O     O_2   0.797121 0.701876 0.456819 -0.490493
O3    O     O_2   0.795361 0.293670 0.506878 -0.490501
O4    O     O_2   0.203986 0.698937 0.470094 -0.489976
O5    O     O_2   0.376655 0.242563 0.282870 -0.488975
O6    O     O_2   0.624117 0.755628 0.723711 -0.487581
O7    O     O_R   0.495480 0.667670 0.422600 -0.508814
O8    O     O_R   0.490210 0.295500 0.332650 -0.465156
O9    O     O_R   0.509790 0.704500 0.667350 -0.465321
O10   O     O_R   0.437420 0.518430 0.622370 -0.511544
O11   O     O_R   0.562580 0.481570 0.377630 -0.512401
O12   O     O_R   0.423110 0.481600 0.377610 -0.455051
O13   O     O_R   0.576890 0.518400 0.622390 -0.454775
O14   O     O_2   0.203832 0.309831 0.563594 -0.490183

loop_
_geom_bond_atom_site_label_1
_geom_bond_atom_site_label_2
_ccdc_geom_bond_type
C16   O12   A    
H20   N4    S    
Cu1   O9    S    
C36   C42   S    
C17   O13   A    
C46   H24   S    
C39   C41   A    
C13   H10   S    
C31   C40   A    
C26   N4    D    
C12   O7    A    
C25   N3    D    
C5    C11   A    
C11   C14   A    
C27   N1    A    
C21   H1    S    
C35   H3    S    
C3    C33   A    
C1    O8    A    
Cu1   N4    S    
Cu2   O7    S    
C27   C44   A    
Cu2   O12   S    
C19   H13   S    
C32   C41   A    
C31   C33   A    
C31   H6    S    
C32   H5    S    
C2    C34   A    
C4    C35   A    
C24   H14   S    
C43   O6    D    
Cu1   O10   S    
C15   C48   A    
Cu1   O13   S    
C11   H9    S    
C18   C46   A    
C44   C46   A    
C45   C47   A    
C38   H22   S    
C28   C45   A    
C29   C48   A    
C32   C35   A    
C17   O11   A    
C25   C26   S    
C12   C21   S    
C8    C18   A    
C23   C44   A    
Cu1   O1    S    
C37   C43   S    
C22   H15   S    
C5    C9    A    
C30   N2    A    
Cu2   O11   S    
C27   O14   S    
C34   C45   A    
C6    C7    A    
C4    C17   S    
C8    C10   A    
C20   C22   D    
C7    C19   A    
C13   C15   A    
C9    C34   A    
C1    O1    A    
C15   H8    S    
C22   C24   S    
C25   H19   S    
C28   N2    A    
Cu2   N3    S    
H21   N3    S    
C16   O10   A    
C2    C14   A    
C33   H4    S    
C7    C9    A    
C14   H7    S    
C1    C20   S    
C23   C48   A    
C12   O9    A    
C42   O5    D    
C6    C10   A    
C5    C8    A    
C18   H11   S    
C47   H2    S    
C29   N1    A    
C10   C23   A    
C40   N1    S    
C2    C30   A    
C26   H18   S    
C30   O3    S    
C36   C38   A    
C29   O4    S    
C37   C39   A    
C41   N2    S    
C38   C40   A    
C3    C36   A    
C19   C47   A    
C39   H23   S    
C20   H12   S    
C28   O2    S    
Cu2   O8    S    
C4    C37   A    
C43   H17   S    
Cu1   Cu2   S    
C21   C24   D    
C42   H16   S    
C3    C16   S    
C6    C13   A    
