data_mof_unit_48071.cif
_audit_creation_date              2012-12-10T17:03:55-0500
_audit_creation_method            fapswitch 2.2
_symmetry_space_group_name_H-M    P1
_symmetry_Int_Tables_number       1
_space_group_crystal_system       triclinic
_cell_length_a                    9.861372
_cell_length_b                    11.091957
_cell_length_c                    15.868239
_cell_angle_alpha                 94.759199
_cell_angle_beta                  79.534896
_cell_angle_gamma                 112.301923
_cell_volume                      1578.96247534

loop_
_atom_site_label
_atom_site_type_symbol
_atom_type_description
_atom_site_fract_x
_atom_site_fract_y
_atom_site_fract_z
_atom_type_partial_charge
C1    C     C_R   0.557314 0.745890 0.506601 0.809735
C2    C     C_R   0.442680 0.254112 0.493410 0.809774
C3    C     C_R   0.314950 0.433235 0.074728 -0.221103
C4    C     C_R   0.669447 0.496793 0.922640 -0.218581
C5    C     C_R   0.214659 0.415675 0.019480 -0.233574
C6    C     C_R   0.768941 0.510804 0.977751 -0.232184
C7    C     C_2   0.591283 0.886182 0.511702 -0.186220
C8    C     C_2   0.408695 0.113823 0.488333 -0.185782
C9    C     C_2   0.488345 0.930680 0.497801 -0.200406
C10   C     C_2   0.511456 0.069295 0.502493 -0.200189
C11   C     C_2   0.926916 0.497630 0.489647 0.051408
C12   C     C_2   0.073030 0.502271 0.510403 0.050399
C13   C     C_R   0.411625 0.486342 0.662629 0.796279
C14   C     C_R   0.588027 0.512249 0.337329 0.796951
C15   C     C_R   0.358344 0.472253 0.755353 -0.053494
C16   C     C_R   0.638277 0.513753 0.244211 -0.053661
C17   C     C_R   0.160545 0.418295 0.877344 -0.201166
C18   C     C_R   0.827274 0.527461 0.120684 -0.199029
C19   C     C_R   0.207452 0.436195 0.789434 -0.186419
C20   C     C_R   0.784495 0.528442 0.209317 -0.186891
C21   C     C_R   0.461374 0.490727 0.810042 -0.250931
C22   C     C_R   0.535446 0.496859 0.189655 -0.250862
C23   C     C_R   0.416421 0.467651 0.898322 0.091029
C24   C     C_R   0.574016 0.490390 0.100222 0.090148
C25   C     C_R   0.263551 0.433975 0.931906 0.167409
C26   C     C_R   0.723741 0.509516 0.066044 0.166464
C27   C     C_R   0.519157 0.478791 0.954028 0.067547
C28   C     C_R   0.468922 0.468323 0.044054 0.067681
Cu1   Cu    Cu3+1 0.362980 0.479380 0.485080 0.954390
Cu2   Cu    Cu3+1 0.637020 0.520620 0.514920 0.954776
H1    H     H_    0.097718 0.388123 0.045718 0.140225
H2    H     H_    0.882825 0.524189 0.950899 0.139641
H3    H     H_    0.426175 0.491950 0.218583 0.146894
H4    H     H_    0.576992 0.525429 0.782219 0.146444
H5    H     H_    0.865721 0.541266 0.250338 0.155195
H6    H     H_    0.125886 0.421472 0.748298 0.156239
H7    H     H_    0.043378 0.390968 0.902673 0.130779
H8    H     H_    0.941470 0.540752 0.094760 0.132822
H9    H     H_    0.266736 0.414196 0.141132 0.139675
H10   H     H_    0.713602 0.496629 0.855406 0.138079
H11   H     H_    0.616698 0.137765 0.518101 0.190647
H12   H     H_    0.382961 0.862186 0.482397 0.190678
H13   H     H_    0.109818 0.551683 0.568734 0.144399
H14   H     H_    0.890056 0.448092 0.431360 0.143478
N1    N     N_2   0.842890 0.551600 0.537350 -0.088549
N2    N     N_2   0.157110 0.448400 0.462650 -0.088446
O1    O     O_R   0.426810 0.668300 0.492040 -0.589412
O2    O     O_R   0.573190 0.331700 0.507960 -0.589689
O3    O     O_R   0.658240 0.703130 0.517240 -0.562001
O4    O     O_R   0.341760 0.296870 0.482760 -0.562274
O5    O     O_R   0.319390 0.472820 0.610170 -0.587821
O6    O     O_R   0.680610 0.527180 0.389830 -0.587251
O7    O     O_R   0.550820 0.507640 0.635370 -0.587237
O8    O     O_R   0.449180 0.492360 0.364630 -0.587570
C29   C     C_1   0.265897 0.027776 0.467094 0.252103
N3    N     N_1   0.152049 0.959406 0.449997 -0.289440
C30   C     C_1   0.734296 0.972280 0.532629 0.251875
N4    N     N_1   0.848316 0.040699 0.549472 -0.290228
N5    N     N_2   0.124373 0.410328 0.381432 -0.370841
H15   H     H_    0.194894 0.475265 0.335228 0.256638
C31   C     C_3   0.109047 0.277375 0.359681 -0.553172
H16   H     H_    0.062960 0.248485 0.299042 0.181207
H17   H     H_    0.031655 0.211032 0.410949 0.244709
H18   H     H_    0.218681 0.267623 0.350145 0.238986
N6    N     N_2   0.875797 0.590008 0.618496 -0.370749
H19   H     H_    0.804856 0.525613 0.664879 0.256576
C32   C     C_3   0.892196 0.723319 0.639746 -0.551814
H20   H     H_    0.938501 0.752440 0.700304 0.183898
H21   H     H_    0.782918 0.733738 0.649179 0.237688
H22   H     H_    0.969857 0.789038 0.588255 0.244124

loop_
_geom_bond_atom_site_label_1
_geom_bond_atom_site_label_2
_ccdc_geom_bond_type
C31   H18   S    
C6    H2    S    
C11   C12   S    
C4    H10   S    
Cu1   Cu2   S    
C14   C16   S    
C23   C27   A    
N2    N5    S    
C9    C10   S    
Cu2   N1    S    
C18   C20   A    
C18   C26   A    
C9    H12   S    
Cu1   N2    S    
C16   C20   A    
C32   H22   S    
C17   C25   A    
C7    C9    D    
C3    C5    A    
C29   N3    T    
C13   C15   S    
C18   H8    S    
C3    H9    S    
N5    H15   S    
C14   O8    A    
C17   H7    S    
C10   H11   S    
C15   C19   A    
C30   N4    T    
C6    C26   A    
Cu1   O1    S    
C5    C25   A    
C8    C29   S    
Cu2   O2    S    
C3    C28   A    
C17   C19   A    
Cu2   O3    S    
C24   C26   A    
C12   H13   S    
C13   O7    A    
Cu1   O4    S    
C23   C25   A    
C21   C23   A    
N1    N6    S    
C31   H16   S    
Cu2   O7    S    
C22   C24   A    
C11   N1    D    
N5    C31   S    
Cu1   O8    S    
C32   H20   S    
C11   H14   S    
C15   C21   A    
C4    C27   A    
C13   O5    A    
C4    C6    A    
N6    H19   S    
Cu1   O5    S    
C2    C8    S    
C27   C28   A    
C31   H17   S    
C22   H3    S    
Cu2   O6    S    
C1    O1    A    
N6    C32   S    
C5    H1    S    
C21   H4    S    
C2    O4    A    
C2    O2    A    
C19   H6    S    
C1    C7    S    
C20   H5    S    
C1    O3    A    
C7    C30   S    
C8    C10   D    
C14   O6    A    
C24   C28   A    
C16   C22   A    
C32   H21   S    
C12   N2    D    
