data_mof_unit_52533.cif
_audit_creation_date              2012-12-10T18:21:17-0500
_audit_creation_method            fapswitch 2.2
_symmetry_space_group_name_H-M    P1
_symmetry_Int_Tables_number       1
_space_group_crystal_system       triclinic
_cell_length_a                    14.956161
_cell_length_b                    14.007411
_cell_length_c                    10.680379
_cell_angle_alpha                 90.140909
_cell_angle_beta                  89.994016
_cell_angle_gamma                 89.533305
_cell_volume                      2237.42735531

loop_
_atom_site_label
_atom_site_type_symbol
_atom_type_description
_atom_site_fract_x
_atom_site_fract_y
_atom_site_fract_z
_atom_type_partial_charge
C1    C     C_R   0.326874 0.500433 0.500360 0.879296
C2    C     C_3   0.586357 0.440460 0.926505 0.729002
C3    C     C_R   0.813142 0.565249 0.408306 0.434094
C4    C     C_R   0.768737 0.499086 0.485405 -0.168096
C5    C     C_R   0.815227 0.434074 0.558938 -0.270943
C6    C     C_R   0.907187 0.436410 0.563336 0.122578
C7    C     C_R   0.953743 0.503995 0.490789 -0.068789
C8    C     C_R   0.907155 0.568303 0.410840 -0.050634
C9    C     C_R   0.952506 0.372956 0.642065 -0.251883
C10   C     C_R   0.045237 0.374577 0.650026 0.196605
C11   C     C_R   0.092866 0.439239 0.574990 0.124849
C12   C     C_R   0.501227 0.500025 0.257614 1.017167
C13   C     C_R   0.046948 0.505845 0.497402 -0.007829
C14   C     C_R   0.094636 0.573229 0.425585 -0.016006
C15   C     C_R   0.048812 0.639609 0.349278 0.333168
C16   C     C_R   0.955894 0.634057 0.336935 0.187242
C17   C     C_R   0.185645 0.437579 0.573813 -0.250738
C18   C     C_R   0.231606 0.502158 0.500278 -0.083722
C19   C     C_R   0.187515 0.569571 0.427323 -0.201957
C20   C     C_R   0.545217 0.798074 0.409458 -0.021755
C21   C     C_R   0.546154 0.200748 0.410440 -0.061020
C22   C     C_R   0.454122 0.797725 0.591394 -0.006875
C23   C     C_R   0.453929 0.203446 0.591152 -0.009633
C24   C     C_R   0.451496 0.898894 0.594935 -0.109565
C25   C     C_R   0.452757 0.102367 0.596082 -0.111828
C26   C     C_R   0.673202 0.499700 0.495652 0.886479
C27   C     C_R   0.498615 0.949386 0.502077 0.049076
C28   C     C_R   0.499125 0.050641 0.502558 0.055601
C29   C     C_R   0.545705 0.898511 0.408290 0.040038
C30   C     C_R   0.546365 0.100307 0.408949 0.043153
C31   C     C_R   0.404772 0.950763 0.689107 0.181470
C32   C     C_R   0.405839 0.051835 0.690063 0.178728
C33   C     C_R   0.592657 0.048835 0.316086 -0.197681
C34   C     C_R   0.592320 0.948819 0.315749 -0.195390
C35   C     C_R   0.500234 0.500181 0.742278 0.998920
C36   C     C_3   0.500256 0.606269 0.072314 0.190344
C37   C     C_3   0.417241 0.447174 0.071007 0.150514
C38   C     C_3   0.506972 0.605728 0.928625 0.089156
C39   C     C_3   0.411948 0.458913 0.927834 0.103489
C40   C     C_3   0.591550 0.450465 0.073145 0.581668
C41   C     C_3   0.502153 0.500232 0.121206 -0.226203
C42   C     C_3   0.502558 0.500083 0.878445 -0.262420
H1    H     H_    0.557868 0.645881 0.113207 0.154197
H2    H     H_    0.421404 0.369604 0.092638 0.101808
H3    H     H_    0.222903 0.386400 0.629682 0.183897
H4    H     H_    0.226972 0.615937 0.368538 0.191306
H5    H     H_    0.581032 0.757880 0.338396 0.141985
H6    H     H_    0.582649 0.239985 0.340150 0.167093
H7    H     H_    0.420341 0.755779 0.661364 0.137353
H8    H     H_    0.417841 0.246222 0.658846 0.180190
H9    H     H_    0.629135 0.085986 0.243611 0.159059
H10   H     H_    0.628623 0.910759 0.243101 0.153679
H11   H     H_    0.447822 0.645474 0.891462 0.180652
H12   H     H_    0.358000 0.511700 0.904635 0.175184
H13   H     H_    0.779182 0.383737 0.616922 0.177192
H14   H     H_    0.915680 0.322741 0.699045 0.156097
N1    N     N_R   0.500070 0.750030 0.500050 -0.105059
N2    N     N_R   0.500070 0.249970 0.500050 -0.110029
O1    O     O_R   0.367860 0.580280 0.500020 -0.629512
O2    O     O_R   0.367860 0.419720 0.500020 -0.631582
O3    O     O_R   0.500000 0.580270 0.314790 -0.604742
O4    O     O_R   0.500000 0.419730 0.314790 -0.648420
O5    O     O_R   0.632160 0.580270 0.499960 -0.597172
O6    O     O_R   0.632160 0.419730 0.499960 -0.615410
O7    O     O_R   0.500030 0.580270 0.685200 -0.609128
O8    O     O_R   0.500030 0.419730 0.685200 -0.560469
Zn1   Zn    Zn3+2 0.500020 0.607200 0.499990 0.991230
Zn2   Zn    Zn3+2 0.500020 0.392800 0.499990 0.978633
N3    N     N_2   0.089987 0.311300 0.733880 -0.326322
H15   H     H_    0.058469 0.246591 0.744756 0.233138
C43   C     C_3   0.112474 0.354217 0.853079 -0.781707
H16   H     H_    0.050597 0.374805 0.904485 0.253215
H17   H     H_    0.154502 0.418395 0.839476 0.251861
H18   H     H_    0.150763 0.302202 0.910596 0.235696
O9    O     O_3   0.092868 0.708669 0.281532 -0.766942
H19   H     H_    0.139977 0.736064 0.335604 0.333854
N4    N     N_2   0.912095 0.695752 0.250049 -0.228638
H20   H     H_    0.935643 0.764764 0.249695 0.258457
C44   C     C_3   0.904396 0.656235 0.125229 -0.615193
H21   H     H_    0.971684 0.647365 0.082362 0.237153
H22   H     H_    0.863911 0.705241 0.066052 0.231093
H23   H     H_    0.870525 0.585939 0.127981 0.245081
N5    N     N_2   0.355584 0.903034 0.784142 -0.288588
H24   H     H_    0.317504 0.846624 0.753494 0.213432
C45   C     C_3   0.406116 0.882503 0.896432 -0.742830
H25   H     H_    0.461220 0.831203 0.875649 0.246994
H26   H     H_    0.361284 0.850714 0.967599 0.242067
H27   H     H_    0.434477 0.949164 0.935958 0.256830
N6    N     N_2   0.359919 0.100953 0.788114 -0.291351
H28   H     H_    0.394561 0.156644 0.827900 0.239499
C46   C     C_3   0.267514 0.123888 0.760963 -0.736103
H29   H     H_    0.235495 0.154923 0.845662 0.240298
H30   H     H_    0.230516 0.058423 0.734387 0.253424
H31   H     H_    0.263127 0.176707 0.683693 0.232019
O10   O     O_3   0.420863 0.653169 0.109627 -0.696997
H32   H     H_    0.431998 0.722786 0.103516 0.324631
O11   O     O_3   0.338238 0.484134 0.125118 -0.694595
H33   H     H_    0.328479 0.449761 0.205096 0.331509
O12   O     O_3   0.582532 0.655478 0.884752 -0.728356
H34   H     H_    0.634798 0.640284 0.938196 0.392742
O13   O     O_3   0.389312 0.371883 0.870275 -0.801279
H35   H     H_    0.325748 0.359477 0.891019 0.347039
O14   O     O_3   0.663371 0.510303 0.105991 -0.800875
H36   H     H_    0.719878 0.473271 0.095991 0.394359
O15   O     O_3   0.608489 0.360785 0.130207 -0.753799
H37   H     H_    0.553841 0.321778 0.130473 0.300789
O16   O     O_3   0.665323 0.477548 0.873599 -0.739502
H38   H     H_    0.669574 0.455427 0.785424 0.347654
O17   O     O_3   0.581567 0.343375 0.889645 -0.729135
H39   H     H_    0.530126 0.312681 0.930567 0.344979
O18   O     O_3   0.766045 0.628475 0.333505 -0.739937
H40   H     H_    0.710148 0.598149 0.304982 0.356629

loop_
_geom_bond_atom_site_label_1
_geom_bond_atom_site_label_2
_ccdc_geom_bond_type
C23   N2    A    
C15   O9    S    
C2    O17   S    
O13   H35   S    
C27   C29   A    
O8    Zn2   S    
O10   H32   S    
C24   C27   A    
C26   O5    A    
C6    C9    A    
C37   O11   S    
O11   H33   S    
C19   H4    S    
C7    C8    A    
N4    H20   S    
C25   C28   A    
C1    C18   S    
O6    Zn2   S    
C17   H3    S    
C38   C42   S    
C1    O1    A    
C5    C6    A    
C39   H12   S    
C35   O7    A    
C15   C16   A    
C2    O16   S    
C31   N5    S    
C44   H23   S    
C17   C18   A    
C18   C19   A    
N3    C43   S    
C35   C42   S    
C26   O6    A    
O1    Zn1   S    
C32   N6    S    
C3    O18   S    
O7    Zn1   S    
O16   H38   S    
N6    C46   S    
C9    C10   A    
C21   H6    S    
C25   C32   A    
N4    C44   S    
C8    C16   A    
C13   C14   A    
C36   C41   S    
N1    Zn1   S    
C39   O13   S    
C39   C42   S    
C20   C29   A    
C45   H26   S    
O5    Zn1   S    
O18   H40   S    
C3    C8    A    
C1    O2    A    
C46   H29   S    
C44   H22   S    
C38   O12   S    
C23   H8    S    
C35   O8    A    
C45   H25   S    
C29   C34   A    
O9    H19   S    
C12   C41   S    
C46   H30   S    
C12   O4    A    
O3    Zn1   S    
N5    H24   S    
C7    C13   A    
C33   C34   A    
C9    H14   S    
C22   H7    S    
N2    Zn2   S    
C40   C41   S    
N5    C45   S    
C22   C24   A    
C3    C4    A    
O14   H36   S    
C43   H17   S    
C21   C30   A    
C45   H27   S    
C11   C17   A    
C30   C33   A    
C14   C19   A    
C5    H13   S    
C31   C32   A    
C4    C5    A    
C43   H18   S    
C4    C26   S    
C6    C7    A    
C33   H9    S    
O15   H37   S    
C34   H10   S    
O12   H34   S    
O4    Zn2   S    
C37   H2    S    
C36   C38   S    
N6    H28   S    
C24   C31   A    
C21   N2    A    
C37   C39   S    
O17   H39   S    
C40   O14   S    
C12   O3    A    
C11   C13   A    
C36   O10   S    
C38   H11   S    
C2    C42   S    
C22   N1    A    
C28   C30   A    
C23   C25   A    
C37   C41   S    
N3    H15   S    
C20   H5    S    
C10   C11   A    
C44   H21   S    
C10   N3    S    
C2    C40   S    
C43   H16   S    
O2    Zn2   S    
C27   C28   A    
C14   C15   A    
C16   N4    S    
C36   H1    S    
C20   N1    A    
C40   O15   S    
C46   H31   S    
