data_mof_unit_64028.cif
_audit_creation_date              2012-12-10T19:27:20-0500
_audit_creation_method            fapswitch 2.2
_symmetry_space_group_name_H-M    P1
_symmetry_Int_Tables_number       1
_space_group_crystal_system       triclinic
_cell_length_a                    18.620581
_cell_length_b                    18.557559
_cell_length_c                    18.989511
_cell_angle_alpha                 109.735467
_cell_angle_beta                  109.548316
_cell_angle_gamma                 108.835549
_cell_volume                      5069.33722037

loop_
_atom_site_label
_atom_site_type_symbol
_atom_type_description
_atom_site_fract_x
_atom_site_fract_y
_atom_site_fract_z
_atom_type_partial_charge
Br1   Br    Br    0.217083 0.995657 0.374015 -0.359964
Br2   Br    Br    0.050009 0.443182 0.750222 -0.364533
Br3   Br    Br    0.834806 0.133710 0.831293 -0.288708
Br4   Br    Br    0.179214 0.829272 0.460842 -0.295540
Br5   Br    Br    0.989592 0.537863 0.290185 -0.353064
Br6   Br    Br    0.691835 0.155549 0.636233 -0.348757
Br7   Br    Br    0.366956 0.147319 0.367284 -0.289518
Br8   Br    Br    0.265882 0.696938 0.282529 -0.381773
Br9   Br    Br    0.037682 0.251537 0.066609 -0.326600
Br10  Br    Br    0.179972 0.357371 0.026075 -0.492483
Br11  Br    Br    0.195586 0.248643 0.210338 -0.365504
Br12  Br    Br    0.572861 0.772417 0.495624 -0.353621
Br13  Br    Br    0.738126 0.936535 0.518499 -0.334757
Br14  Br    Br    0.813897 0.562134 0.520629 -0.393094
C1    C     C_R   0.379465 0.379450 0.499727 0.904490
C2    C     C_R   0.607332 0.334950 0.608313 -0.182869
C3    C     C_R   0.297637 0.226545 0.464002 -0.007387
C4    C     C_R   0.619506 0.498472 0.619338 0.855628
C5    C     C_R   0.316924 0.313828 0.504047 -0.206136
C6    C     C_R   0.279530 0.338987 0.554593 -0.144782
C7    C     C_R   0.215075 0.275925 0.555525 0.435008
C8    C     C_R   0.187617 0.186476 0.503683 -0.159254
C9    C     C_R   0.234112 0.163724 0.464550 0.023927
C10   C     C_3   0.202549 0.095421 0.375159 0.509059
C11   C     C_3   0.271909 0.166096 0.373575 0.067715
C12   C     C_R   0.761629 0.580713 0.754418 -0.130512
C13   C     C_R   0.240787 0.424872 0.247931 -0.093474
C14   C     C_R   0.313667 0.503091 0.317530 -0.148450
C15   C     C_R   0.317006 0.583257 0.329678 -0.160558
C16   C     C_R   0.617020 0.620612 0.497501 0.944334
C17   C     C_R   0.253756 0.584746 0.265682 0.252813
C18   C     C_R   0.185297 0.504645 0.190871 -0.130948
C19   C     C_R   0.177053 0.425633 0.186199 -0.041265
C20   C     C_3   0.157002 0.342257 0.114745 0.317346
C21   C     C_3   0.230144 0.342240 0.183826 0.621956
C22   C     C_R   0.759092 0.687099 0.510358 0.073247
C23   C     C_R   0.814045 0.499203 0.813282 -0.078266
C24   C     C_R   0.682352 0.689129 0.499325 -0.249587
C25   C     C_R   0.676105 0.764518 0.504346 0.242769
C26   C     C_R   0.743473 0.831676 0.509153 0.217727
C27   C     C_R   0.814604 0.821116 0.507340 -0.223863
C28   C     C_R   0.380649 0.501567 0.380654 0.909646
C29   C     C_R   0.824491 0.752499 0.514762 0.087926
C30   C     C_3   0.845992 0.690303 0.464052 -0.484859
C31   C     C_3   0.772689 0.617395 0.458148 0.125116
C32   C     C_R   0.996511 0.379412 0.876608 0.910141
C33   C     C_R   0.879989 0.500008 0.880229 0.823374
C34   C     C_R   0.749663 0.418755 0.736961 0.031756
C35   C     C_R   0.000152 0.620240 0.120066 0.853795
C36   C     C_R   0.120122 0.501720 0.121653 0.948537
C37   C     C_R   0.999188 0.120073 0.619068 0.888914
C38   C     C_R   0.120119 0.118474 0.499084 0.893098
C39   C     C_R   0.001698 0.881010 0.380564 0.892343
C40   C     C_R   0.780284 0.664188 0.759597 0.463294
C41   C     C_R   0.879876 0.881661 0.501597 0.919233
C42   C     C_R   0.943803 0.224225 0.779868 0.021318
C43   C     C_R   0.985938 0.312264 0.801425 -0.195833
C44   C     C_R   0.014867 0.331951 0.746662 0.303286
C45   C     C_R   0.681249 0.417610 0.675516 -0.006261
C46   C     C_R   0.018610 0.267425 0.685893 -0.204669
C47   C     C_R   0.994957 0.185402 0.680708 -0.107579
C48   C     C_R   0.949037 0.161923 0.720715 -0.003436
C49   C     C_3   0.952219 0.111682 0.767822 0.215936
C50   C     C_3   0.945406 0.180596 0.833333 0.076349
C51   C     C_R   0.995603 0.675696 0.253040 -0.007635
C52   C     C_R   0.837572 0.742050 0.839269 0.520057
C53   C     C_R   0.998094 0.685522 0.184288 -0.044634
C54   C     C_R   0.993205 0.756020 0.175708 -0.172861
C55   C     C_R   0.993636 0.820302 0.240451 -0.118244
C56   C     C_R   0.688872 0.499015 0.683311 -0.115679
C57   C     C_R   0.002933 0.815725 0.315064 -0.036438
C58   C     C_R   0.000435 0.741452 0.319122 -0.140726
C59   C     C_3   0.060476 0.730528 0.385955 0.634281
C60   C     C_3   0.052919 0.656294 0.311606 0.012698
C61   C     C_R   0.882550 0.738325 0.912376 -0.345781
C62   C     C_R   0.874476 0.658597 0.904770 -0.190432
C63   C     C_R   0.816991 0.579456 0.824736 0.041926
C64   C     C_R   0.751264 0.339225 0.721299 -0.218455
C65   C     C_R   0.681261 0.258681 0.651352 0.198376
C66   C     C_R   0.606583 0.255963 0.595925 0.465255
H1    H     H_    0.243932 0.187510 0.328470 0.183040
H2    H     H_    0.990690 0.875319 0.234148 0.179218
H3    H     H_    0.114841 0.670468 0.310099 0.162663
H4    H     H_    0.926901 0.797665 0.974659 0.174153
H5    H     H_    0.912939 0.659569 0.962521 0.160913
H6    H     H_    0.807025 0.338457 0.762752 0.187621
H7    H     H_    0.548429 0.329770 0.564811 0.197652
H8    H     H_    0.297690 0.407287 0.591053 0.207860
H9    H     H_    0.538206 0.127868 0.529111 0.393030
H10   H     H_    0.141091 0.254660 0.606670 0.312060
H11   H     H_    0.105241 0.032245 0.259564 0.354070
H12   H     H_    0.370797 0.644586 0.386377 0.218478
H13   H     H_    0.745996 0.625584 0.640270 0.329759
H14   H     H_    0.331841 0.412970 0.179359 0.347854
H15   H     H_    0.892812 0.869519 0.903239 0.348277
H16   H     H_    0.080991 0.173854 0.832278 0.368833
H17   H     H_    0.960676 0.664650 0.394909 0.342921
H18   H     H_    0.832181 0.686391 0.400781 0.168339
H19   H     H_    0.912419 0.702234 0.503823 0.275362
H20   H     H_    0.716222 0.570849 0.391554 0.155323
H21   H     H_    0.042554 0.282340 0.645149 0.194737
H22   H     H_    0.894918 0.044375 0.729981 0.202637
H23   H     H_    0.003819 0.221782 0.898427 0.195300
H24   H     H_    0.990535 0.761991 0.120213 0.145800
O1    O     O_R   0.408400 0.356680 0.448290 -0.590425
O2    O     O_R   0.948300 0.091670 0.539990 -0.600501
O3    O     O_R   0.143340 0.091640 0.551750 -0.613372
O4    O     O_R   0.408370 0.460100 0.551700 -0.632802
O5    O     O_R   0.039900 0.091690 0.448360 -0.581501
O6    O     O_R   0.051700 0.908430 0.460110 -0.575292
O7    O     O_R   0.948260 0.908480 0.356720 -0.626479
O8    O     O_R   0.960100 0.908410 0.551740 -0.592725
O9    O     O_R   0.856660 0.908460 0.448350 -0.593640
O10   O     O_R   0.591630 0.448290 0.539910 -0.608741
O11   O     O_R   0.591590 0.551710 0.643320 -0.586810
O12   O     O_R   0.051700 0.460090 0.908430 -0.567731
O13   O     O_R   0.591630 0.539900 0.448300 -0.628298
O14   O     O_R   0.591600 0.643320 0.551710 -0.542286
O15   O     O_R   0.408410 0.448290 0.356680 -0.580860
O16   O     O_R   0.408370 0.551710 0.460090 -0.609662
O17   O     O_R   0.948260 0.356680 0.908450 -0.595567
O18   O     O_3   0.532248 0.178678 0.528489 -0.672769
O19   O     O_3   0.179510 0.304476 0.604970 -0.729253
O20   O     O_3   0.116963 0.070631 0.317785 -0.757887
O21   O     O_3   0.749750 0.673060 0.687958 -0.688347
O22   O     O_3   0.303572 0.353934 0.172889 -0.672900
O23   O     O_R   0.856640 0.448300 0.908430 -0.623221
O24   O     O_3   0.850262 0.821071 0.842985 -0.667549
O25   O     O_3   0.032525 0.112554 0.802036 -0.683304
O26   O     O_3   0.024856 0.703654 0.433232 -0.686539
O27   O     O_R   0.960090 0.551710 0.908400 -0.602829
O28   O     O_R   0.948250 0.539920 0.091630 -0.593581
O29   O     O_R   0.051690 0.643330 0.091610 -0.609239
O30   O     O_R   0.039870 0.448310 0.091660 -0.575215
O31   O     O_R   0.143310 0.551720 0.091640 -0.578291
O32   O     O_R   0.051740 0.091620 0.643380 -0.588368
Zn1   Zn    Zn3+2 0.500020 0.430950 0.430950 1.110251
Zn2   Zn    Zn3+2 0.499980 0.569050 0.569050 1.099546
Zn3   Zn    Zn3+2 0.930910 0.430960 0.000050 1.115726
Zn4   Zn    Zn3+2 0.069050 0.569060 0.000020 1.112699
Zn5   Zn    Zn3+2 0.069070 0.000020 0.569080 1.120351
Zn6   Zn    Zn3+2 0.930930 0.000080 0.431020 1.087626

loop_
_geom_bond_atom_site_label_1
_geom_bond_atom_site_label_2
_ccdc_geom_bond_type
C39   O6    A    
C4    C56   S    
C50   H23   S    
O17   Zn3   S    
C41   O8    A    
C21   O22   S    
C59   C60   S    
C5    C6    A    
C37   C47   S    
C60   H3    S    
C29   C30   S    
C4    O10   A    
Br6   C65   S    
C66   O18   S    
Br3   C50   S    
C13   C19   A    
O28   Zn3   S    
C1    C5    S    
C3    C9    A    
C14   C15   A    
H17   O26   S    
C36   O31   A    
C24   C25   A    
C30   H19   S    
C28   O15   A    
H9    O18   S    
C44   C46   A    
C10   O20   S    
C42   C43   A    
C16   C24   S    
C20   C21   S    
H10   O19   S    
O10   Zn1   S    
C34   C64   A    
Br5   C60   S    
C55   C57   A    
C27   C41   S    
Br13  C26   S    
O27   Zn4   S    
O7    Zn6   S    
C30   H18   S    
H15   O24   S    
C38   O3    A    
C54   C55   A    
C51   C53   A    
C2    H7    S    
C9    C10   S    
C42   C50   S    
C32   O17   A    
O5    Zn6   S    
C55   H2    S    
C23   C33   S    
C64   H6    S    
O8    Zn5   S    
C39   O7    A    
C7    C8    A    
C11   H1    S    
C27   C29   A    
O23   Zn3   S    
C49   H22   S    
C12   C40   A    
C35   O28   A    
O2    Zn6   S    
Br14  C31   S    
H14   O22   S    
O31   Zn4   S    
C40   O21   S    
C12   C63   A    
C53   C54   A    
O15   Zn1   S    
C62   C63   A    
C36   O30   A    
C25   C26   A    
C64   C65   A    
C41   O9    A    
C13   C21   S    
C23   C63   A    
C51   C60   S    
C49   C50   S    
C33   O27   A    
C46   C47   A    
C2    C66   A    
C2    C45   A    
C1    O4    A    
C7    O19   S    
O6    Zn5   S    
C61   C62   A    
C48   C49   S    
C37   O32   A    
C17   C18   A    
O11   Zn2   S    
C19   C20   S    
C22   C31   S    
Br10  C20   S    
C10   C11   S    
C23   C34   A    
C18   C36   S    
Br4   C59   S    
O29   Zn4   S    
C26   C27   A    
H11   O20   S    
C32   C43   S    
Br9   C20   S    
C12   C56   A    
C42   C48   A    
O3    Zn5   S    
C46   H21   S    
C39   C57   S    
O30   Zn3   S    
C30   C31   S    
C34   C45   A    
C8    C38   S    
C35   O29   A    
C59   O26   S    
C35   C53   S    
Br8   C17   S    
O13   Zn1   S    
C54   H24   S    
C58   C59   S    
C31   H20   S    
C4    O11   A    
Br2   C44   S    
C33   O23   A    
C40   C52   A    
C16   O13   A    
C51   C58   A    
C16   O14   A    
Br7   C11   S    
C32   O12   A    
C3    C11   S    
C18   C19   A    
C1    O1    A    
Br12  C25   S    
Br11  C21   S    
C57   C58   A    
C15   C17   A    
O4    Zn2   S    
C28   O16   A    
C43   C44   A    
C38   O5    A    
C37   O2    A    
C52   C61   A    
C6    H8    S    
C22   C24   A    
C3    C5    A    
O32   Zn5   S    
C52   O24   S    
C49   O25   S    
C47   C48   A    
C61   H4    S    
H13   O21   S    
C45   C56   A    
O1    Zn1   S    
C65   C66   A    
O16   Zn2   S    
C6    C7    A    
Br1   C10   S    
C13   C14   A    
C8    C9    A    
C22   C29   A    
O9    Zn6   S    
O14   Zn2   S    
C62   H5    S    
C15   H12   S    
H16   O25   S    
O12   Zn4   S    
C14   C28   S    
