data_mof_unit_20278.cif
_audit_creation_date              2012-12-10T17:42:40-0500
_audit_creation_method            fapswitch 2.2
_symmetry_space_group_name_H-M    P1
_symmetry_Int_Tables_number       1
_space_group_crystal_system       triclinic
_cell_length_a                    10.049156
_cell_length_b                    10.7713
_cell_length_c                    13.320609
_cell_angle_alpha                 92.876349
_cell_angle_beta                  72.318731
_cell_angle_gamma                 91.18752
_cell_volume                      1371.99011486

loop_
_atom_site_label
_atom_site_type_symbol
_atom_type_description
_atom_site_fract_x
_atom_site_fract_y
_atom_site_fract_z
_atom_type_partial_charge
C1    C     C_R   0.504024 0.738529 0.490926 0.868595
C2    C     C_R   0.467871 0.429866 0.969552 0.047131
C3    C     C_R   0.502256 0.440596 0.860565 -0.002173
C4    C     C_R   0.567611 0.466136 0.020359 0.043446
C5    C     C_R   0.710484 0.472373 0.961500 0.070518
C6    C     C_R   0.748431 0.435627 0.853367 0.158427
C7    C     C_R   0.644347 0.423772 0.804326 -0.188401
C8    C     C_R   0.526186 0.494225 0.128683 -0.358555
C9    C     C_R   0.764848 0.536121 0.123263 0.525448
C10   C     C_R   0.394560 0.438531 0.811094 -0.133642
C11   C     C_R   0.275204 0.875325 0.445946 -0.266385
C12   C     C_R   0.425845 0.481537 0.700696 0.863987
C13   C     C_R   0.140479 0.923092 0.482967 0.609633
C14   C     C_R   0.116698 0.029902 0.549014 -0.247171
C15   C     C_R   0.230642 0.101135 0.558593 -0.302365
C16   C     C_R   0.368499 0.056346 0.515669 0.109931
C17   C     C_R   0.385179 0.933161 0.477218 0.040035
C18   C     C_R   0.507093 0.870955 0.478893 -0.093975
C19   C     C_R   0.622147 0.937899 0.490635 -0.232790
C20   C     C_R   0.616553 0.065255 0.501306 -0.226838
C21   C     C_R   0.490770 0.126283 0.512173 -0.108301
C22   C     C_R   0.810198 0.664765 0.637581 -0.147420
C23   C     C_R   0.495892 0.260374 0.506361 0.840746
C24   C     C_R   0.853145 0.745201 0.706884 -0.298462
C25   C     C_R   0.991534 0.742985 0.710608 0.572898
C26   C     C_R   0.085159 0.660960 0.640939 -0.177212
C27   C     C_R   0.045604 0.579529 0.568982 -0.034255
C28   C     C_R   0.902688 0.580573 0.568051 0.125258
C29   C     C_R   0.955534 0.425327 0.430393 0.071778
C30   C     C_R   0.099495 0.427191 0.430426 0.558835
C31   C     C_R   0.577265 0.507117 0.297513 0.883899
C32   C     C_R   0.808132 0.510212 0.013694 -0.331039
C33   C     C_R   0.624442 0.514462 0.181938 -0.172323
C34   C     C_R   0.267493 0.379965 0.865288 0.124809
C35   C     C_R   0.238800 0.356679 0.972432 -0.159009
C36   C     C_R   0.344907 0.365018 0.019596 0.131335
H1    H     H_    0.291617 0.791941 0.395011 0.180084
H2    H     H_    0.011415 0.064457 0.583100 0.150316
H3    H     H_    0.208560 0.190293 0.599486 0.196556
H4    H     H_    0.710393 0.115290 0.503350 0.163911
H5    H     H_    0.703621 0.671558 0.639777 0.219864
H6    H     H_    0.776960 0.809415 0.756374 0.144907
H7    H     H_    0.189646 0.663824 0.644709 0.224515
H8    H     H_    0.917332 0.522313 0.971242 0.157150
H9    H     H_    0.416115 0.493697 0.172628 0.211850
H10   H     H_    0.144248 0.306576 0.011743 0.150752
H11   H     H_    0.675374 0.382237 0.725233 0.191078
H12   H     H_    0.715824 0.892056 0.492991 0.200379
N1    N     N_R   0.856860 0.501200 0.500990 -0.161240
N2    N     N_R   0.142450 0.501280 0.501020 -0.165821
O1    O     O_R   0.385310 0.683220 0.500000 -0.638540
O2    O     O_R   0.614640 0.683250 0.500010 -0.624777
O3    O     O_R   0.328400 0.499950 0.653610 -0.641818
O4    O     O_R   0.557730 0.499970 0.653620 -0.649568
O5    O     O_R   0.385360 0.316750 0.499990 -0.606115
O6    O     O_R   0.614690 0.316780 0.500000 -0.664204
O7    O     O_R   0.442270 0.500030 0.346380 -0.574677
O8    O     O_R   0.671600 0.500050 0.346390 -0.577500
Zn1   Zn    Zn3+2 0.346880 0.499980 0.499990 0.956668
Zn2   Zn    Zn3+2 0.653120 0.500020 0.500010 0.935739
O9    O     O_3   0.860921 0.576573 0.173327 -0.596767
C37   C     C_3   0.895424 0.701726 0.150708 -0.327514
H13   H     H_    0.801919 0.762249 0.181106 0.151973
H14   H     H_    0.945311 0.713296 0.064906 0.159121
H15   H     H_    0.972772 0.732932 0.190900 0.192757
O10   O     O_3   0.031472 0.860264 0.460141 -0.602729
C38   C     C_3   0.007052 0.915428 0.373711 -0.398353
H16   H     H_    0.925852 0.860500 0.350469 0.206413
H17   H     H_    0.102512 0.915047 0.303969 0.157929
H18   H     H_    0.966983 0.011656 0.395448 0.151637
C39   C     C_3   0.911263 0.333333 0.355868 -0.321074
C40   C     C_3   0.983105 0.349264 0.238399 -0.766919
H19   H     H_    0.904199 0.358337 0.196531 0.257804
H20   H     H_    0.054006 0.431308 0.223595 0.291043
H21   H     H_    0.039505 0.263131 0.202768 0.212152
H22   H     H_    0.923267 0.236951 0.376886 0.137842
H23   H     H_    0.801476 0.339362 0.365208 0.272678
O11   O     O_3   0.045510 0.822750 0.774661 -0.610833
C41   C     C_3   0.942735 0.871698 0.864684 -0.363180
H24   H     H_    0.871001 0.797995 0.906855 0.158838
H25   H     H_    0.884373 0.947283 0.843129 0.179117
H26   H     H_    0.995776 0.913624 0.920194 0.191598
C42   C     C_3   0.888787 0.383792 0.791821 -0.427773
C43   C     C_3   0.880932 0.241321 0.787926 -0.915611
H27   H     H_    0.798202 0.206888 0.753928 0.257895
H28   H     H_    0.980746 0.201909 0.736967 0.253614
H29   H     H_    0.858502 0.206418 0.868504 0.263673
H30   H     H_    0.918207 0.414276 0.709954 0.201314
H31   H     H_    0.971487 0.418579 0.824244 0.201047
O12   O     O_3   0.200772 0.361849 0.353568 -0.602963
C44   C     C_3   0.188189 0.233400 0.370217 -0.313858
H32   H     H_    0.291343 0.197187 0.367782 0.217440
H33   H     H_    0.107263 0.210551 0.444153 0.137366
H34   H     H_    0.159897 0.182503 0.305467 0.162129
C45   C     C_3   0.199989 0.288427 0.807257 -0.467303
C46   C     C_3   0.280297 0.165726 0.785266 -0.833504
H35   H     H_    0.219502 0.092301 0.757248 0.279284
H36   H     H_    0.383939 0.177721 0.726136 0.251980
H37   H     H_    0.296153 0.132713 0.858238 0.267027
H38   H     H_    0.094055 0.266860 0.858858 0.226419
H39   H     H_    0.191404 0.325524 0.733792 0.231883
C47   C     C_3   0.342305 0.275238 0.104212 -0.410604
C48   C     C_3   0.318146 0.139754 0.073244 -0.924998
H40   H     H_    0.212999 0.125700 0.063594 0.250580
H41   H     H_    0.399390 0.110732 0.998908 0.273624
H42   H     H_    0.325795 0.079028 0.136214 0.246200
H43   H     H_    0.441376 0.274723 0.124387 0.233437
H44   H     H_    0.260523 0.306359 0.174283 0.262268

loop_
_geom_bond_atom_site_label_1
_geom_bond_atom_site_label_2
_ccdc_geom_bond_type
C24   C25   A    
C16   C21   A    
O5    Zn1   S    
C24   H6    S    
C45   C46   S    
C43   H29   S    
C30   O12   S    
O3    Zn1   S    
C23   O6    A    
O4    Zn2   S    
C26   C27   A    
C29   C30   A    
N1    Zn2   S    
C9    O9    S    
N2    Zn1   S    
C31   O8    A    
C43   H28   S    
C18   C19   A    
C3    C7    A    
C5    C6    A    
C20   H4    S    
O7    Zn1   S    
C22   H5    S    
C14   H2    S    
O8    Zn2   S    
C15   C16   A    
C46   H37   S    
C36   C47   S    
C34   C35   A    
C11   H1    S    
C8    H9    S    
C37   H14   S    
O2    Zn2   S    
C9    C32   A    
C48   H41   S    
C19   C20   A    
C16   C17   A    
C46   H36   S    
C31   C33   S    
C47   H44   S    
C48   H40   S    
C12   O3    A    
C27   N2    A    
C4    C8    A    
C5    C32   A    
O10   C38   S    
C30   N2    A    
C22   C28   A    
C13   C14   A    
C9    C33   A    
C47   C48   S    
C40   H21   S    
C26   H7    S    
C13   O10   S    
C32   H8    S    
C42   H31   S    
C38   H16   S    
C34   C45   S    
C40   H20   S    
C44   H32   S    
C41   H25   S    
O11   C41   S    
C40   H19   S    
C29   N1    A    
C25   C26   A    
C25   O11   S    
O6    Zn2   S    
C38   H17   S    
C35   C36   A    
C7    H11   S    
C2    C4    A    
C37   H13   S    
C44   H33   S    
C28   N1    A    
C42   C43   S    
C46   H35   S    
C17   C18   A    
C1    C18   S    
C47   H43   S    
C10   C34   A    
C43   H27   S    
C1    O1    A    
C15   H3    S    
C10   C12   S    
C21   C23   S    
C22   C24   A    
O1    Zn1   S    
C39   H23   S    
C2    C36   A    
C11   C17   A    
C6    C42   S    
C37   H15   S    
C45   H38   S    
C4    C5    A    
C41   H26   S    
C23   O5    A    
C6    C7    A    
C38   H18   S    
C31   O7    A    
C2    C3    A    
C39   C40   S    
C3    C10   A    
C44   H34   S    
C11   C13   A    
O12   C44   S    
C39   H22   S    
C42   H30   S    
C48   H42   S    
C8    C33   A    
O9    C37   S    
C1    O2    A    
C41   H24   S    
C20   C21   A    
C27   C28   A    
C14   C15   A    
C35   H10   S    
C12   O4    A    
C45   H39   S    
C19   H12   S    
C29   C39   S    
