data_mof_unit_48342.cif
_audit_creation_date              2012-12-10T19:04:14-0500
_audit_creation_method            fapswitch 2.2
_symmetry_space_group_name_H-M    P1
_symmetry_Int_Tables_number       1
_space_group_crystal_system       triclinic
_cell_length_a                    10.654413
_cell_length_b                    10.785348
_cell_length_c                    9.58381
_cell_angle_alpha                 89.796846
_cell_angle_beta                  90.32357
_cell_angle_gamma                 89.362837
_cell_volume                      1101.19765324

loop_
_atom_site_label
_atom_site_type_symbol
_atom_type_description
_atom_site_fract_x
_atom_site_fract_y
_atom_site_fract_z
_atom_type_partial_charge
C1    C     C_R   0.503329 0.262585 0.500371 0.787975
C2    C     C_3   0.954557 0.606809 0.455568 0.154782
C3    C     C_3   0.037618 0.519148 0.371036 0.399171
C4    C     C_3   0.122896 0.500703 0.499123 -0.066333
C5    C     C_R   0.471058 0.064124 0.618193 0.051585
C6    C     C_R   0.515189 0.129424 0.503287 -0.049454
C7    C     C_R   0.576634 0.064592 0.396165 -0.225433
C8    C     C_R   0.577518 0.934966 0.396856 -0.197094
C9    C     C_R   0.514480 0.870732 0.502641 -0.044249
C10   C     C_R   0.469242 0.936684 0.617082 0.008812
C11   C     C_3   0.343219 0.933745 0.685595 0.223286
C12   C     C_R   0.259534 0.501373 0.499620 0.835830
C13   C     C_3   0.346850 0.074352 0.688614 -0.424469
C14   C     C_R   0.581214 0.572357 0.073002 0.178767
C15   C     C_R   0.425016 0.421723 0.074014 0.320753
C16   C     C_R   0.424124 0.423530 0.924903 -0.115573
C17   C     C_R   0.585031 0.568705 0.926417 0.197601
C18   C     C_3   0.606229 0.704761 0.913843 -0.524267
C19   C     C_3   0.594182 0.711211 0.071722 0.020451
C20   C     C_R   0.503740 0.737451 0.500047 0.773164
C21   C     C_R   0.740164 0.497320 0.500387 0.816021
C22   C     C_3   0.045012 0.387938 0.545325 -0.259354
C23   C     C_3   0.959032 0.406530 0.414631 -0.237709
C24   C     C_3   0.876298 0.495949 0.500982 -0.143609
C25   C     C_3   0.959469 0.476388 0.631992 -0.213397
C26   C     C_3   0.037902 0.587474 0.583926 0.349655
Cu1   Cu    Cu3+1 0.499990 0.499980 0.640670 0.943501
Cu2   Cu    Cu3+1 0.500010 0.500020 0.359330 0.977125
H1    H     H_    0.924093 0.332699 0.344469 0.150319
H2    H     H_    0.343136 0.889274 0.790500 0.110173
H3    H     H_    0.274201 0.120996 0.622375 0.204185
H4    H     H_    0.356088 0.112211 0.795556 0.138878
H5    H     H_    0.360250 0.364644 0.868126 0.150272
H6    H     H_    0.702600 0.724943 0.876875 0.164723
H7    H     H_    0.531227 0.755677 0.856385 0.220385
H8    H     H_    0.681816 0.741788 0.124212 0.129584
H9    H     H_    0.085004 0.298081 0.582242 0.157257
H10   H     H_    0.925329 0.459570 0.739573 0.161428
H11   H     H_    0.620806 0.113602 0.311078 0.144817
H12   H     H_    0.624497 0.885630 0.313947 0.157499
N1    N     N_R   0.500800 0.500930 0.147930 -0.206918
N2    N     N_R   0.500800 0.500890 0.852020 -0.193097
O1    O     O_R   0.500000 0.319640 0.618810 -0.587535
O2    O     O_R   0.500010 0.319680 0.381230 -0.557238
O3    O     O_R   0.316850 0.499950 0.618770 -0.571386
O4    O     O_R   0.316860 0.499990 0.381190 -0.541970
O5    O     O_R   0.499990 0.680320 0.618770 -0.601072
O6    O     O_R   0.500000 0.680360 0.381190 -0.547758
O7    O     O_R   0.683140 0.500010 0.618810 -0.584441
O8    O     O_R   0.683150 0.500050 0.381230 -0.587146
N3    N     N_2   0.340348 0.344415 0.146594 -0.361855
H13   H     H_    0.247882 0.370225 0.130829 0.270997
C27   C     C_3   0.360160 0.212674 0.127393 -0.698809
H14   H     H_    0.325302 0.183941 0.023319 0.189608
H15   H     H_    0.307620 0.161188 0.208371 0.242221
H16   H     H_    0.461323 0.188036 0.137577 0.233872
N4    N     N_2   0.484291 0.783808 0.115018 -0.395794
H17   H     H_    0.495738 0.877550 0.098392 0.241078
C28   C     C_3   0.357903 0.742793 0.083096 -0.558755
H18   H     H_    0.290278 0.820291 0.100368 0.195681
H19   H     H_    0.330841 0.666704 0.154256 0.272833
H20   H     H_    0.348917 0.712449 0.973109 0.210032
O9    O     O_3   0.080154 0.680351 0.673191 -0.733001
H21   H     H_    0.003222 0.720125 0.710807 0.324531
N5    N     N_2   0.899515 0.722708 0.407208 -0.447958
H22   H     H_    0.829038 0.755304 0.471095 0.236524
C29   C     C_3   0.987676 0.817431 0.368516 -0.636397
H23   H     H_    0.936318 0.895726 0.317790 0.209255
H24   H     H_    0.057798 0.780675 0.293604 0.258064
H25   H     H_    0.036282 0.852738 0.462693 0.276594
O10   O     O_3   0.080494 0.541898 0.235843 -0.753182
H26   H     H_    0.003888 0.548133 0.176960 0.323962
O11   O     O_3   0.249117 0.891597 0.595457 -0.703313
H27   H     H_    0.262862 0.800956 0.587106 0.355311

loop_
_geom_bond_atom_site_label_1
_geom_bond_atom_site_label_2
_ccdc_geom_bond_type
O11   H27   S    
C13   H4    S    
C3    C23   S    
C2    N5    S    
C21   O7    A    
C7    C8    A    
C27   H14   S    
C19   N4    S    
Cu2   O4    S    
C23   H1    S    
C19   H8    S    
C5    C6    A    
C16   H5    S    
N4    C28   S    
C15   C16   A    
Cu2   N1    S    
C18   C19   S    
C17   N2    A    
C9    C20   S    
Cu2   O8    S    
C1    O1    A    
C11   H2    S    
C8    C9    A    
N5    C29   S    
C22   C25   S    
C23   C24   S    
C15   N3    S    
C4    C12   S    
C9    C10   A    
C5    C13   S    
Cu1   O3    S    
C28   H18   S    
C14   C17   A    
C29   H23   S    
C21   O8    A    
C27   H15   S    
C28   H19   S    
N3    H13   S    
C24   C25   S    
C15   N1    A    
C12   O4    A    
C11   O11   S    
C25   C26   S    
C22   H9    S    
Cu2   O2    S    
C1    C6    S    
C29   H24   S    
C3    O10   S    
C26   O9    S    
C25   H10   S    
C4    C22   S    
C1    O2    A    
C17   C18   S    
C2    C26   S    
C18   H6    S    
C20   O6    A    
C14   N1    A    
C2    C24   S    
C3    C4    S    
C16   N2    A    
C18   H7    S    
C27   H16   S    
Cu1   O5    S    
Cu2   O6    S    
C28   H20   S    
C14   C19   S    
C13   H3    S    
C12   O3    A    
C4    C26   S    
C6    C7    A    
C29   H25   S    
C2    C3    S    
O10   H26   S    
C11   C13   S    
Cu1   N2    S    
N4    H17   S    
C20   O5    A    
C10   C11   S    
O9    H21   S    
Cu1   O1    S    
C5    C10   A    
N5    H22   S    
C21   C24   S    
Cu1   Cu2   S    
C7    H11   S    
C22   C23   S    
C8    H12   S    
N3    C27   S    
Cu1   O7    S    
