data_mof_unit_13945.cif
_audit_creation_date              2012-12-11T15:41:24-0500
_audit_creation_method            fapswitch 2.2
_symmetry_space_group_name_H-M    P1
_symmetry_Int_Tables_number       1
_space_group_crystal_system       triclinic
_cell_length_a                    19.20352
_cell_length_b                    10.988881
_cell_length_c                    18.837811
_cell_angle_alpha                 90.301524
_cell_angle_beta                  90.758263
_cell_angle_gamma                 90.416561
_cell_volume                      3974.74250739

loop_
_atom_site_label
_atom_site_type_symbol
_atom_type_description
_atom_site_fract_x
_atom_site_fract_y
_atom_site_fract_z
_atom_type_partial_charge
Br1   Br    Br    0.599781 0.349864 0.390333 -0.324118
Br2   Br    Br    0.103982 0.563788 0.343580 -0.345452
Br3   Br    Br    0.415011 0.741630 0.597212 -0.345788
Br4   Br    Br    0.602088 0.057562 0.343218 -0.333623
Br5   Br    Br    0.925555 0.388921 0.053307 -0.353351
Br6   Br    Br    0.074082 0.389878 0.946652 -0.351092
Br7   Br    Br    0.425552 0.888898 0.053312 -0.352208
Br8   Br    Br    0.574080 0.889878 0.946653 -0.350523
Br9   Br    Br    0.531233 0.522246 0.586733 -0.298705
Br10  Br    Br    0.098571 0.856315 0.388065 -0.331810
Br11  Br    Br    0.039925 0.019204 0.588074 -0.292568
Br12  Br    Br    0.797257 0.180478 0.383649 -0.389086
Br13  Br    Br    0.070044 0.353892 0.545648 -0.390156
Br14  Br    Br    0.324843 0.659517 0.379689 -0.393637
Br15  Br    Br    0.569516 0.853139 0.547347 -0.386145
Br16  Br    Br    0.913090 0.214661 0.590960 -0.335664
C1    C     C_R   0.709411 0.000365 0.861253 0.541127
C2    C     C_R   0.300918 0.456190 0.037126 0.021761
C3    C     C_R   0.762896 0.856355 0.355194 0.582934
C4    C     C_2   0.563523 0.181916 0.931121 -0.046075
C5    C     C_2   0.436541 0.180192 0.068882 -0.050173
C6    C     C_2   0.063521 0.681912 0.931122 -0.045956
C7    C     C_2   0.936545 0.680199 0.068882 -0.049969
C8    C     C_2   0.498199 0.183307 0.038447 -0.043009
C9    C     C_2   0.501882 0.183553 0.961602 -0.045298
C10   C     C_2   0.998204 0.683436 0.038449 -0.043010
C11   C     C_2   0.001886 0.683710 0.961605 -0.045287
C12   C     C_R   0.778918 0.472754 0.063903 0.016260
C13   C     C_R   0.199500 0.956348 0.962761 0.023941
C14   C     C_R   0.221203 0.473995 0.936403 0.017432
C15   C     C_R   0.278918 0.972752 0.063902 0.016055
C16   C     C_R   0.721202 0.973989 0.936401 0.017403
C17   C     C_R   0.800918 0.956187 0.037123 0.021995
C18   C     C_R   0.821564 0.414140 0.948178 -0.127772
C19   C     C_R   0.178705 0.413005 0.051769 -0.121423
C20   C     C_R   0.321566 0.914136 0.948178 -0.127618
C21   C     C_R   0.678704 0.913009 0.051769 -0.121254
C22   C     C_R   0.833706 0.431766 0.020232 0.133223
C23   C     C_R   0.166336 0.432236 0.979956 0.138128
C24   C     C_R   0.333706 0.931758 0.020233 0.132883
C25   C     C_R   0.290626 0.999602 0.139038 0.542007
C26   C     C_R   0.666334 0.932238 0.979956 0.138061
C27   C     C_3   0.667584 0.594780 0.030845 -0.168711
C28   C     C_3   0.333599 0.595755 0.970516 -0.168396
C29   C     C_3   0.167592 0.094794 0.030840 -0.168752
C30   C     C_3   0.833600 0.095739 0.970499 -0.168061
C31   C     C_3   0.653223 0.563466 0.953539 0.449649
C32   C     C_3   0.348096 0.563136 0.047401 0.449201
C33   C     C_3   0.153232 0.063480 0.953534 0.449650
C34   C     C_3   0.848091 0.063143 0.047388 0.449013
C35   C     C_R   0.754187 0.423289 0.919167 -0.001969
C36   C     C_R   0.209411 0.500366 0.861254 0.541529
C37   C     C_R   0.246228 0.422250 0.080694 -0.000912
C38   C     C_R   0.254189 0.923291 0.919166 -0.001755
C39   C     C_R   0.746228 0.922251 0.080693 -0.000748
C40   C     C_R   0.452827 0.179037 0.436918 0.001933
C41   C     C_R   0.489191 0.177389 0.580461 0.035024
C42   C     C_R   0.955349 0.678378 0.436579 0.004052
C43   C     C_R   0.989745 0.676940 0.580417 0.035307
C44   C     C_R   0.474350 0.285719 0.471066 -0.019143
C45   C     C_R   0.492627 0.283840 0.540429 0.061287
C46   C     C_R   0.974546 0.786141 0.471143 -0.022199
C47   C     C_R   0.790626 0.499603 0.139038 0.542692
C48   C     C_R   0.993344 0.783547 0.540475 0.064360
C49   C     C_R   0.454460 0.076300 0.551333 -0.109907
C50   C     C_R   0.438005 0.076528 0.478445 -0.167709
C51   C     C_R   0.957697 0.574088 0.550393 -0.118058
C52   C     C_R   0.944478 0.573108 0.476991 -0.171407
C53   C     C_R   0.567772 0.184375 0.854892 0.535208
C54   C     C_R   0.432193 0.183412 0.145107 0.541004
C55   C     C_R   0.067770 0.684375 0.854893 0.535091
C56   C     C_R   0.932194 0.683412 0.145107 0.542096
C57   C     C_3   0.524728 0.386948 0.454688 0.090663
C58   C     C_R   0.712259 0.484449 0.033687 -0.058322
C59   C     C_3   0.548449 0.377891 0.531508 0.064376
C60   C     C_3   0.025032 0.887754 0.455159 0.088406
C61   C     C_3   0.050667 0.874862 0.530995 0.068560
C62   C     C_R   0.774554 0.474021 0.435213 0.039915
C63   C     C_R   0.227161 0.462742 0.567258 0.039116
C64   C     C_R   0.272467 0.967315 0.433459 0.032684
C65   C     C_R   0.727029 0.963620 0.567131 0.038470
C66   C     C_R   0.818324 0.394553 0.470979 -0.067374
C67   C     C_R   0.186068 0.507173 0.511167 -0.089303
C68   C     C_R   0.306890 0.871643 0.465807 -0.030099
C69   C     C_R   0.288075 0.485343 0.966503 -0.057349
C70   C     C_R   0.684631 0.005083 0.511165 -0.084689
C71   C     C_R   0.808189 0.366009 0.539818 0.003152
C72   C     C_R   0.200026 0.474972 0.441952 0.066265
C73   C     C_R   0.294971 0.840026 0.532888 -0.018815
C74   C     C_R   0.698070 0.971088 0.442314 0.073035
C75   C     C_R   0.716508 0.509953 0.548991 -0.086725
C76   C     C_R   0.299901 0.363380 0.480598 -0.099986
C77   C     C_R   0.218109 0.006553 0.548765 -0.084043
C78   C     C_R   0.801073 0.868058 0.480022 -0.104001
C79   C     C_R   0.724082 0.536775 0.476502 0.220811
C80   C     C_R   0.212261 0.984456 0.033685 -0.058470
C81   C     C_R   0.286039 0.392187 0.551368 0.247139
C82   C     C_R   0.225175 0.034249 0.476410 0.217448
C83   C     C_R   0.787370 0.897022 0.550826 0.252062
C84   C     C_3   0.849543 0.273342 0.454249 0.056470
C85   C     C_3   0.109763 0.491665 0.495449 0.016973
C86   C     C_3   0.356621 0.769417 0.453809 0.057329
C87   C     C_3   0.608208 0.989188 0.495748 0.017674
C88   C     C_3   0.833304 0.239443 0.530554 0.074698
C89   C     C_3   0.126999 0.455482 0.420064 0.073039
C90   C     C_3   0.339196 0.729779 0.529625 0.076857
C91   C     C_R   0.788075 0.985331 0.966499 -0.057367
C92   C     C_3   0.625182 0.950925 0.420518 0.077045
C93   C     C_R   0.755676 0.417002 0.579658 -0.028918
C94   C     C_R   0.255659 0.402982 0.425914 0.035071
C95   C     C_R   0.252367 0.906070 0.577307 -0.025526
C96   C     C_R   0.755157 0.903052 0.425739 0.031675
C97   C     C_R   0.739167 0.365599 0.851444 0.549655
C98   C     C_R   0.261001 0.365378 0.148423 0.565620
C99   C     C_R   0.239168 0.865600 0.851443 0.549696
C100  C     C_R   0.761001 0.865378 0.148422 0.566153
C101  C     C_R   0.710782 0.997359 0.639575 0.566340
C102  C     C_R   0.699497 0.456340 0.962763 0.024064
C103  C     C_R   0.288049 0.995982 0.360249 0.548148
C104  C     C_R   0.210858 0.497102 0.639559 0.568261
C105  C     C_R   0.788264 0.497059 0.360301 0.559576
C106  C     C_R   0.527950 0.176957 0.646316 0.556990
C107  C     C_R   0.437327 0.181505 0.362168 0.546498
C108  C     C_R   0.027992 0.676903 0.646389 0.557058
C109  C     C_R   0.938322 0.681331 0.362332 0.547143
C110  C     C_R   0.739555 0.361997 0.647031 0.541616
C111  C     C_R   0.262990 0.356303 0.355244 0.585887
C112  C     C_R   0.239358 0.860869 0.646995 0.551400
Cl1   Cl    Cl    0.662181 0.635195 0.440545 -0.544972
Cl2   Cl    Cl    0.315473 0.668382 0.111174 -0.464615
Cl3   Cl    Cl    0.186991 0.170048 0.891322 -0.485021
Cl4   Cl    Cl    0.815456 0.168407 0.111142 -0.466448
Cl5   Cl    Cl    0.338149 0.327103 0.618492 -0.514327
Cl6   Cl    Cl    0.167083 0.141576 0.443159 -0.546448
Cl7   Cl    Cl    0.841521 0.835701 0.617534 -0.509249
Cl8   Cl    Cl    0.565178 0.520560 0.934738 -0.439014
Cl9   Cl    Cl    0.435848 0.519854 0.065255 -0.445236
Cl10  Cl    Cl    0.065185 0.020586 0.934729 -0.439133
Cl11  Cl    Cl    0.935845 0.019879 0.065252 -0.446802
Cl12  Cl    Cl    0.686975 0.670040 0.891328 -0.485828
Cr1   Cr    Cr6+3 0.769260 0.163750 0.750730 1.116097
Cr2   Cr    Cr6+3 0.385810 0.322400 0.252290 1.144806
Cr3   Cr    Cr6+3 0.114190 0.822400 0.747710 1.148511
Cr4   Cr    Cr6+3 0.885810 0.822400 0.252290 1.138480
Cr5   Cr    Cr6+3 0.230740 0.163750 0.249270 1.114664
Cr6   Cr    Cr6+3 0.269260 0.663750 0.750730 1.116197
Cr7   Cr    Cr6+3 0.730740 0.663750 0.249270 1.116881
Cr8   Cr    Cr6+3 0.612640 0.009910 0.748780 1.162691
Cr9   Cr    Cr6+3 0.387360 0.009910 0.251220 1.147548
Cr10  Cr    Cr6+3 0.112640 0.509910 0.748780 1.160245
Cr11  Cr    Cr6+3 0.887360 0.509910 0.251220 1.142394
Cr12  Cr    Cr6+3 0.614190 0.322400 0.747710 1.145813
H1    H     H_    0.545731 0.185347 0.070636 0.172035
H2    H     H_    0.340717 0.300791 0.468768 0.115539
H3    H     H_    0.184163 0.060194 0.581615 0.222237
H4    H     H_    0.843215 0.808403 0.467943 0.114988
H5    H     H_    0.906189 0.279378 0.443324 0.179348
H6    H     H_    0.083469 0.580139 0.498858 0.140973
H7    H     H_    0.411642 0.798180 0.447457 0.176989
H8    H     H_    0.581234 0.077192 0.498406 0.143201
H9    H     H_    0.791011 0.171634 0.536125 0.135105
H10   H     H_    0.113778 0.359856 0.406585 0.227874
H11   H     H_    0.308562 0.644826 0.532537 0.144464
H12   H     H_    0.454338 0.184505 0.929436 0.166817
H13   H     H_    0.612101 0.855018 0.407844 0.227698
H14   H     H_    0.388567 0.178496 0.037624 0.062603
H15   H     H_    0.611531 0.180846 0.962327 0.063401
H16   H     H_    0.888570 0.678414 0.037621 0.062567
H17   H     H_    0.111522 0.680674 0.962326 0.063297
H18   H     H_    0.864345 0.383711 0.915757 0.196295
H19   H     H_    0.135866 0.381799 0.084018 0.198318
H20   H     H_    0.364347 0.883703 0.915758 0.196621
H21   H     H_    0.635865 0.881806 0.084020 0.198551
H22   H     H_    0.199119 0.178509 0.038731 0.128888
H23   H     H_    0.045735 0.685533 0.070639 0.171863
H24   H     H_    0.802703 0.179541 0.963731 0.130305
H25   H     H_    0.699106 0.678501 0.038736 0.128750
H26   H     H_    0.302698 0.679555 0.963759 0.130123
H27   H     H_    0.621459 0.586508 0.065568 0.206966
H28   H     H_    0.379510 0.588227 0.935486 0.208578
H29   H     H_    0.121465 0.086531 0.065561 0.206744
H30   H     H_    0.879513 0.088193 0.935472 0.208518
H31   H     H_    0.446616 0.995346 0.582414 0.208851
H32   H     H_    0.418845 0.995682 0.453208 0.132093
H33   H     H_    0.951229 0.491906 0.580952 0.207134
H34   H     H_    0.954345 0.684790 0.929442 0.166629
H35   H     H_    0.932564 0.488781 0.450494 0.153280
H36   H     H_    0.997454 0.974646 0.444788 0.196234
H37   H     H_    0.102906 0.832517 0.536339 0.124152
H38   H     H_    0.497368 0.473099 0.441892 0.200576
H39   H     H_    0.601421 0.339438 0.539162 0.127456
H40   H     H_    0.677122 0.555289 0.579596 0.220329
O1    O     O_R   0.784290 0.290360 0.830540 -0.536430
O2    O     O_R   0.456020 0.282110 0.333230 -0.446193
O3    O     O_R   0.043980 0.782110 0.666770 -0.462604
O4    O     O_R   0.956020 0.782110 0.333230 -0.447006
O5    O     O_R   0.679070 0.374030 0.674430 -0.494678
O6    O     O_R   0.320930 0.374030 0.325570 -0.491792
O7    O     O_R   0.179070 0.874030 0.674430 -0.492592
O8    O     O_R   0.820930 0.874030 0.325570 -0.497971
O9    O     O_3   0.665360 0.165350 0.749070 -0.387792
O10   O     O_3   0.334640 0.165350 0.250930 -0.413057
O11   O     O_3   0.165360 0.665350 0.749070 -0.388341
O12   O     O_R   0.215710 0.290360 0.169460 -0.535489
O13   O     O_3   0.834640 0.665350 0.250930 -0.412333
O14   O     O_R   0.762610 0.041070 0.825230 -0.477568
O15   O     O_R   0.237390 0.041070 0.174770 -0.481151
O16   O     O_R   0.262610 0.541070 0.825230 -0.477399
O17   O     O_R   0.737390 0.541070 0.174770 -0.480445
O18   O     O_R   0.667390 0.924160 0.829970 -0.388998
O19   O     O_R   0.332610 0.924160 0.170030 -0.383680
O20   O     O_R   0.167390 0.424160 0.829970 -0.388787
O21   O     O_R   0.832610 0.424160 0.170030 -0.384403
O22   O     O_R   0.553980 0.081420 0.821780 -0.472506
O23   O     O_R   0.284290 0.790360 0.830540 -0.535944
O24   O     O_R   0.446020 0.081420 0.178220 -0.451255
O25   O     O_R   0.053980 0.581420 0.821780 -0.473345
O26   O     O_R   0.946020 0.581420 0.178220 -0.451487
O27   O     O_R   0.543210 0.283170 0.826740 -0.433958
O28   O     O_R   0.456790 0.283170 0.173260 -0.426462
O29   O     O_R   0.043210 0.783170 0.826740 -0.434080
O30   O     O_R   0.956790 0.783170 0.173260 -0.426597
O31   O     O_R   0.678350 0.375000 0.822720 -0.466002
O32   O     O_R   0.321650 0.375000 0.177280 -0.463681
O33   O     O_R   0.178350 0.875000 0.822720 -0.466270
O34   O     O_R   0.715710 0.790360 0.169460 -0.534577
O35   O     O_R   0.821650 0.875000 0.177280 -0.464843
O36   O     O_R   0.785060 0.289300 0.670580 -0.475119
O37   O     O_R   0.214940 0.289300 0.329420 -0.466140
O38   O     O_R   0.285060 0.789300 0.670580 -0.471154
O39   O     O_R   0.714940 0.789300 0.329420 -0.466539
O40   O     O_R   0.763330 0.040090 0.676940 -0.431014
O41   O     O_R   0.236670 0.040090 0.323060 -0.400579
O42   O     O_R   0.263330 0.540090 0.676940 -0.435383
O43   O     O_R   0.736670 0.540090 0.323060 -0.399487
O44   O     O_R   0.668160 0.923110 0.670000 -0.414248
O45   O     O_R   0.554690 0.080440 0.673480 -0.499524
O46   O     O_R   0.331840 0.923110 0.330000 -0.464614
O47   O     O_R   0.168160 0.423110 0.670000 -0.412759
O48   O     O_R   0.831840 0.423110 0.330000 -0.462944
O49   O     O_R   0.445310 0.080440 0.326520 -0.467089
O50   O     O_R   0.054690 0.580440 0.673480 -0.502873
O51   O     O_R   0.945310 0.580440 0.326520 -0.472322
O52   O     O_R   0.543980 0.282110 0.666770 -0.465987

loop_
_geom_bond_atom_site_label_1
_geom_bond_atom_site_label_2
_ccdc_geom_bond_type
C60   H36   S    
C17   C39   A    
Cr3   O11   S    
C92   H13   S    
Cr6   O42   S    
Cr11  O21   S    
C42   C46   A    
C4    C9    D    
C55   O29   A    
Cr5   O41   S    
C31   Cl8   S    
C19   C37   A    
C68   C86   S    
C48   C61   S    
C19   C23   A    
C17   C91   A    
C74   C96   A    
C64   C68   A    
C21   C39   A    
C12   C58   A    
Br1   C57   S    
C28   H28   S    
C29   H29   S    
C13   C33   S    
C3    C96   S    
C45   C59   S    
Cr1   O40   S    
Cr11  O48   S    
C33   Cl3   S    
C27   H27   S    
C18   C35   A    
C35   C97   S    
C32   Cl9   S    
Cr2   O10   S    
C1    O14   A    
Cr1   O9    S    
C99   O33   A    
C66   C71   A    
Cr6   O38   S    
Cr5   O10   S    
C87   H8    S    
Br14  C86   S    
C106  O45   A    
C13   C38   A    
C76   C94   A    
C9    H12   S    
C15   C80   A    
Cr12  O27   S    
C65   C101  S    
C44   C57   S    
C84   C88   S    
C35   C102  A    
C19   H19   S    
C15   C24   A    
Br2   C89   S    
C7    C10   D    
C21   C26   A    
Cr7   O13   S    
C62   C105  S    
Cr1   O14   S    
C97   O31   A    
C20   C24   A    
C46   C48   A    
Br11  C61   S    
C2    C37   A    
C43   C51   A    
C41   C106  S    
Br10  C60   S    
C84   H5    S    
Br16  C88   S    
C31   C102  S    
C52   H35   S    
C105  O43   A    
C16   C91   A    
C31   Cl12  S    
C76   C81   A    
Br7   C24   S    
C107  O2    A    
C86   C90   S    
C87   C92   S    
C81   Cl5   S    
C15   C25   S    
Cr4   O30   S    
Cr6   O23   S    
C18   H18   S    
C78   H4    S    
C94   C111  S    
C72   C94   A    
Cr1   O36   S    
C67   C72   A    
C64   C103  S    
C56   O30   A    
Cr11  O13   S    
C53   O27   A    
C33   Cl10  S    
C63   C104  S    
Cr2   O6    S    
C46   C60   S    
C97   O1    A    
Cr10  O11   S    
Cr3   O33   S    
C70   C87   S    
Cr2   O32   S    
C74   C92   S    
Cr7   O34   S    
C103  O41   A    
Cr8   O9    S    
Br3   C90   S    
C85   C89   S    
C58   C102  A    
C20   H20   S    
C2    C69   A    
Br12  C84   S    
C100  O35   A    
C99   O23   A    
Cr8   O45   S    
C40   C107  S    
Cr9   O19   S    
C77   H3    S    
C10   H23   S    
C60   C61   S    
Cr6   O16   S    
C1    O18   A    
C70   C74   A    
C28   H26   S    
C88   H9    S    
C98   O32   A    
C34   Cl11  S    
C106  O52   A    
C65   C83   A    
C101  O44   A    
Cr7   O39   S    
C17   C34   S    
C21   H21   S    
C111  O37   A    
C54   O28   A    
C5    H14   S    
C40   C44   A    
C2    C32   S    
C44   C45   A    
Cr8   O44   S    
C11   H34   S    
Cr10  O20   S    
C25   O15   A    
C59   H39   S    
C51   C52   A    
Cr6   O11   S    
Cr8   O18   S    
C7    H16   S    
C47   O21   A    
Br4   C92   S    
C62   C66   A    
C50   H32   S    
Cr4   O8    S    
C29   C33   S    
C62   C79   A    
Cr3   O3    S    
C38   C99   S    
Cr9   O46   S    
Cr2   O2    S    
Cr11  O26   S    
C83   Cl7   S    
Cr4   O35   S    
Cr1   O1    S    
C90   H11   S    
C8    C9    S    
C14   C69   A    
C41   C45   A    
Cr2   O28   S    
C34   Cl4   S    
C77   C95   A    
Cr4   O4    S    
C110  O5    A    
C104  O42   A    
Br5   C22   S    
C73   C95   A    
C85   H6    S    
C49   C50   A    
C6    C11   D    
C30   C91   S    
C10   C11   S    
C42   C109  S    
C73   C90   S    
C30   H24   S    
Cr12  O9    S    
C5    C8    D    
C68   C73   A    
C57   C59   S    
Br13  C85   S    
C28   C69   S    
C3    O39   A    
C111  O6    A    
C6    C55   S    
Cr5   O15   S    
C56   O26   A    
C8    H1    S    
C79   Cl1   S    
Cr4   O13   S    
C49   H31   S    
C42   C52   A    
C43   C108  S    
Br6   C23   S    
C4    H15   S    
Cr5   O37   S    
C27   H25   S    
C98   O12   A    
C112  O38   A    
C67   C85   S    
C64   C82   A    
C18   C22   A    
C57   H38   S    
C66   C84   S    
C7    C56   S    
C63   C81   A    
C110  O36   A    
C53   O22   A    
C65   C70   A    
Br8   C26   S    
Cr8   O22   S    
C86   H7    S    
Cr3   O29   S    
C13   C80   A    
C103  O46   A    
Cr12  O52   S    
C71   C93   A    
C105  O48   A    
Cr3   O7    S    
C75   H40   S    
C30   C34   S    
C101  O40   A    
C55   O25   A    
Cr7   O43   S    
C5    C54   S    
C54   O24   A    
C30   H30   S    
C109  O4    A    
C112  O7    A    
C61   H37   S    
C43   C48   A    
C29   H22   S    
C63   C67   A    
C72   C89   S    
C32   Cl2   S    
C75   C93   A    
Cr5   O12   S    
C27   C31   S    
C78   C83   A    
C27   C58   S    
C40   C50   A    
C77   C82   A    
C108  O3    A    
C78   C96   A    
C47   O17   A    
Cr10  O25   S    
Cr12  O5    S    
C109  O51   A    
C3    O8    A    
C107  O49   A    
C82   Cl6   S    
C4    C53   S    
Cr9   O24   S    
C6    H17   S    
C20   C38   A    
C104  O47   A    
Cr11  O51   S    
C71   C88   S    
C25   O19   A    
C12   C47   S    
C51   H33   S    
C93   C110  S    
Cr10  O50   S    
C75   C79   A    
Cr9   O49   S    
Cr10  O47   S    
C39   C100  S    
Cr12  O31   S    
C100  O34   A    
C95   C112  S    
C36   O20   A    
C1    C16   S    
C16   C26   A    
C89   H10   S    
C37   C98   S    
C76   H2    S    
Br9   C59   S    
Br15  C87   S    
C12   C22   A    
Cr7   O17   S    
C29   C80   S    
C108  O50   A    
Cr9   O10   S    
C28   C32   S    
C14   C23   A    
C14   C36   S    
C41   C49   A    
C36   O16   A    
