data_mof_unit_28856.cif
_audit_creation_date              2012-12-10T17:09:52-0500
_audit_creation_method            fapswitch 2.2
_symmetry_space_group_name_H-M    P1
_symmetry_Int_Tables_number       1
_space_group_crystal_system       triclinic
_cell_length_a                    10.829343
_cell_length_b                    12.975835
_cell_length_c                    11.672039
_cell_angle_alpha                 99.75125
_cell_angle_beta                  92.870234
_cell_angle_gamma                 92.006769
_cell_volume                      1612.85086714

loop_
_atom_site_label
_atom_site_type_symbol
_atom_type_description
_atom_site_fract_x
_atom_site_fract_y
_atom_site_fract_z
_atom_type_partial_charge
C1    C     C_R   0.494960 0.299034 0.478636 0.816997
C2    C     C_R   0.074700 0.593793 0.547173 0.041978
C3    C     C_R   0.129095 0.498767 0.504894 -0.156915
C4    C     C_R   0.056833 0.406261 0.461825 0.108295
C5    C     C_R   0.926666 0.409329 0.463188 0.141181
C6    C     C_R   0.871842 0.507519 0.494023 -0.169980
C7    C     C_R   0.484669 0.813645 0.534246 -0.037539
C8    C     C_R   0.482696 0.185488 0.466060 -0.106705
C9    C     C_R   0.430460 0.015399 0.345010 0.139410
C10   C     C_R   0.444953 0.124838 0.358198 -0.191819
C11   C     C_R   0.504189 0.138302 0.563278 -0.286712
C12   C     C_R   0.262704 0.498027 0.501114 0.803323
C13   C     C_R   0.492297 0.030514 0.553317 0.159925
C14   C     C_R   0.457704 0.967687 0.443859 0.100275
C15   C     C_R   0.453937 0.858716 0.436415 -0.269848
C16   C     C_R   0.512344 0.877069 0.642657 -0.216683
C17   C     C_R   0.516503 0.984977 0.652035 -0.201327
C18   C     C_R   0.387357 0.393915 0.023411 0.059083
C19   C     C_R   0.399461 0.405644 0.145731 0.034735
C20   C     C_R   0.549752 0.543979 0.156762 0.005407
C21   C     C_R   0.543720 0.536473 0.033688 -0.002322
C22   C     C_R   0.459300 0.461407 0.966084 -0.000013
C23   C     C_R   0.492983 0.700345 0.521512 0.772808
C24   C     C_R   0.450731 0.455775 0.843313 0.004926
C25   C     C_R   0.606507 0.589895 0.853567 0.041235
C26   C     C_R   0.619969 0.600507 0.975829 0.058298
C27   C     C_R   0.737713 0.506420 0.499329 0.808063
C28   C     C_R   0.147719 0.681755 0.605500 -0.161332
C29   C     C_R   0.094817 0.775793 0.644799 -0.191606
C30   C     C_R   0.971786 0.788248 0.615493 -0.123079
C31   C     C_R   0.899460 0.706022 0.547421 0.153696
C32   C     C_R   0.945838 0.602344 0.528255 0.003209
Cu1   Cu    Cu3+1 0.509250 0.507730 0.615930 0.921694
Cu2   Cu    Cu3+1 0.490750 0.492270 0.384070 0.922719
H1    H     H_    0.541285 0.032861 0.736065 0.136200
H2    H     H_    0.425986 0.164293 0.285267 0.169578
H3    H     H_    0.532434 0.185478 0.646930 0.158212
H4    H     H_    0.386612 0.400831 0.788626 0.144942
H5    H     H_    0.663218 0.638455 0.808271 0.127171
H6    H     H_    0.348606 0.352994 0.190324 0.127314
H7    H     H_    0.613047 0.599484 0.211652 0.144679
H8    H     H_    0.245990 0.679012 0.624215 0.156556
H9    H     H_    0.151202 0.841145 0.692621 0.145940
H10   H     H_    0.934875 0.864924 0.639697 0.135836
H11   H     H_    0.430205 0.807808 0.354380 0.149781
H12   H     H_    0.535007 0.843382 0.719470 0.154668
N1    N     N_R   0.523180 0.519350 0.790130 -0.197444
N2    N     N_R   0.476820 0.480650 0.209890 -0.194607
O1    O     O_R   0.506570 0.354460 0.582000 -0.586346
O2    O     O_R   0.490940 0.341410 0.386200 -0.594055
O3    O     O_R   0.327470 0.506530 0.597920 -0.595477
O4    O     O_R   0.311840 0.493480 0.402120 -0.570249
O5    O     O_R   0.509060 0.658590 0.613800 -0.598614
O6    O     O_R   0.493430 0.645540 0.418000 -0.590196
O7    O     O_R   0.688160 0.506520 0.597880 -0.573682
O8    O     O_R   0.672530 0.493470 0.402080 -0.597084
C33   C     C_3   0.119537 0.304665 0.416788 -0.374297
C34   C     C_3   0.119414 0.285488 0.283907 -0.845783
H13   H     H_    0.025401 0.263232 0.243540 0.239449
H14   H     H_    0.152156 0.357385 0.253042 0.257096
H15   H     H_    0.181495 0.221285 0.254058 0.230193
H16   H     H_    0.216721 0.305950 0.451921 0.184279
H17   H     H_    0.075656 0.236567 0.447362 0.202918
C35   C     C_3   0.299543 0.307678 0.958451 -0.432470
C36   C     C_3   0.369871 0.213625 0.903114 -0.839362
H18   H     H_    0.433876 0.235617 0.839150 0.243925
H19   H     H_    0.424223 0.181833 0.971376 0.250082
H20   H     H_    0.303205 0.151368 0.857402 0.244781
H21   H     H_    0.234597 0.280207 0.018918 0.199382
H22   H     H_    0.240731 0.337327 0.891571 0.199071
C37   C     C_3   0.718113 0.678387 0.039666 -0.427602
C38   C     C_3   0.661533 0.779331 0.095714 -0.850812
H23   H     H_    0.736195 0.836250 0.137355 0.246501
H24   H     H_    0.609098 0.814474 0.028807 0.255418
H25   H     H_    0.598605 0.763969 0.163445 0.239981
H26   H     H_    0.771503 0.643552 0.106171 0.202521
H27   H     H_    0.786640 0.698782 0.978328 0.199809
C39   C     C_3   0.783447 0.738159 0.487918 -0.423919
C40   C     C_3   0.809900 0.820504 0.411473 -0.833285
H28   H     H_    0.722632 0.836200 0.364613 0.247715
H29   H     H_    0.846211 0.895644 0.464314 0.248417
H30   H     H_    0.877435 0.791559 0.346199 0.257005
H31   H     H_    0.735310 0.673271 0.428449 0.223716
H32   H     H_    0.722575 0.771008 0.556767 0.201278
C41   C     C_3   0.846180 0.307560 0.438307 -0.396843
C42   C     C_3   0.828417 0.263210 0.549780 -0.849183
H33   H     H_    0.919215 0.248844 0.591328 0.243886
H34   H     H_    0.778212 0.318282 0.612437 0.272165
H35   H     H_    0.773483 0.187883 0.528826 0.245105
H36   H     H_    0.754318 0.318504 0.397313 0.215349
H37   H     H_    0.885023 0.247023 0.373561 0.205205
C43   C     C_3   0.385974 0.949212 0.228342 -0.405849
C44   C     C_3   0.357835 0.008368 0.127899 -0.864369
H38   H     H_    0.282740 0.063341 0.149133 0.248931
H39   H     H_    0.442476 0.051305 0.108076 0.247449
H40   H     H_    0.326498 0.951585 0.048675 0.247394
H41   H     H_    0.457953 0.893456 0.200010 0.203346
H42   H     H_    0.300412 0.903590 0.240973 0.206908

loop_
_geom_bond_atom_site_label_1
_geom_bond_atom_site_label_2
_ccdc_geom_bond_type
Cu1   O7    S    
C6    C32   A    
C21   C26   A    
Cu2   O8    S    
C44   H38   S    
C1    C8    S    
C20   H7    S    
C41   H37   S    
C43   H42   S    
C33   H16   S    
C41   C42   S    
C31   C39   S    
C5    C6    A    
C28   C29   A    
C30   C31   A    
C27   O7    A    
C34   H14   S    
C2    C32   A    
C18   C19   A    
C11   H3    S    
C3    C12   S    
C19   N2    A    
C39   H31   S    
C31   C32   A    
C16   C17   A    
C36   H19   S    
C4    C33   S    
C24   H4    S    
C33   H17   S    
C35   H22   S    
C1    O2    A    
C25   N1    A    
C5    C41   S    
C34   H15   S    
C7    C15   A    
C44   H39   S    
C18   C22   A    
C13   C14   A    
C29   H9    S    
C26   C37   S    
C30   H10   S    
C38   H25   S    
C9    C43   S    
C12   O4    A    
C43   H41   S    
C23   O5    A    
Cu1   O5    S    
Cu2   O2    S    
C38   H24   S    
C16   H12   S    
C40   H29   S    
C27   O8    A    
C38   H23   S    
C34   H13   S    
C9    C14   A    
C29   C30   A    
C6    C27   S    
C36   H20   S    
Cu1   Cu2   S    
C35   H21   S    
C20   N2    A    
C7    C16   A    
Cu2   O6    S    
C44   H40   S    
Cu1   N1    S    
C22   C24   A    
Cu2   N2    S    
C15   H11   S    
C3    C4    A    
C37   H27   S    
C12   O3    A    
C42   H33   S    
C23   O6    A    
C9    C10   A    
C39   C40   S    
C24   N1    A    
C4    C5    A    
C42   H35   S    
C40   H30   S    
C2    C28   A    
C41   H36   S    
Cu1   O3    S    
Cu2   O4    S    
C13   C17   A    
C35   C36   S    
C2    C3    A    
C25   C26   A    
C37   C38   S    
C25   H5    S    
C11   C13   A    
C18   C35   S    
C33   C34   S    
C37   H26   S    
C8    C11   A    
C7    C23   S    
C28   H8    S    
C43   C44   S    
C42   H34   S    
C19   H6    S    
C40   H28   S    
C39   H32   S    
C20   C21   A    
C8    C10   A    
C36   H18   S    
Cu1   O1    S    
C14   C15   A    
C10   H2    S    
C17   H1    S    
C21   C22   A    
C1    O1    A    
