data_mof_unit_30644.cif
_audit_creation_date              2012-10-26T20:44:04-0400
_audit_creation_method            fapswitch 2.2
_symmetry_space_group_name_H-M    P1
_symmetry_Int_Tables_number       1
_space_group_crystal_system       triclinic
_cell_length_a                    10.926918
_cell_length_b                    9.525476
_cell_length_c                    19.428868
_cell_angle_alpha                 89.999376
_cell_angle_beta                  90.093137
_cell_angle_gamma                 90.106207
_cell_volume                      2022.22999972

loop_
_atom_site_label
_atom_site_type_symbol
_atom_type_description
_atom_site_fract_x
_atom_site_fract_y
_atom_site_fract_z
_atom_type_partial_charge
C1    C     C_R   0.873004 0.500654 0.499584 -0.081358
C2    C     C_R   0.738320 0.500185 0.499911 0.601807
C3    C     C_R   0.499872 0.499973 0.367658 0.567651
C4    C     C_R   0.500533 0.500004 0.632351 0.567722
C5    C     C_R   0.062980 0.379084 0.480420 0.193865
C6    C     C_R   0.939946 0.628777 0.500954 0.181687
C7    C     C_R   0.939582 0.372741 0.497991 0.186965
C8    C     C_R   0.063679 0.622430 0.518476 0.188047
C9    C     C_R   0.525902 0.375775 0.744108 -0.114707
C10   C     C_R   0.474905 0.623690 0.255745 -0.111237
C11   C     C_R   0.523717 0.375498 0.255957 -0.122299
C12   C     C_R   0.128912 0.500449 0.499618 -0.074478
C13   C     C_R   0.478361 0.624270 0.744274 -0.115156
C14   C     C_R   0.527131 0.374993 0.815911 -0.015292
C15   C     C_R   0.474048 0.624107 0.183940 -0.013697
C16   C     C_R   0.524609 0.374653 0.184161 -0.015703
C17   C     C_R   0.477468 0.624669 0.816066 -0.014587
C18   C     C_R   0.502165 0.499674 0.852471 -0.006876
C19   C     C_R   0.499497 0.499316 0.147573 -0.006754
C20   C     C_R   0.462010 0.074109 0.443495 0.078846
C21   C     C_R   0.538062 0.925821 0.556485 0.075354
C22   C     C_R   0.537594 0.074244 0.556565 0.076375
C23   C     C_R   0.591421 0.574056 0.964563 -0.081499
C24   C     C_R   0.461190 0.925644 0.443660 0.058669
C25   C     C_R   0.501556 0.500009 0.707923 0.011469
C26   C     C_R   0.499498 0.499756 0.292104 0.012815
C27   C     C_1   0.557314 0.245892 0.851049 0.211218
C28   C     C_1   0.443794 0.752957 0.148597 0.212520
C29   C     C_1   0.554850 0.245575 0.149071 0.212749
C30   C     C_1   0.447631 0.753663 0.851337 0.210714
C31   C     C_R   0.410505 0.424464 0.035493 -0.081512
C32   C     C_R   0.590691 0.574047 0.036228 -0.080827
C33   C     C_R   0.411225 0.424488 0.963825 -0.080635
C34   C     C_R   0.500213 0.499286 0.071854 0.026642
C35   C     C_R   0.501665 0.499316 0.928197 0.026983
C36   C     C_R   0.262363 0.500011 0.499879 0.628988
Cu1   Cu    Cu3+1 0.500000 0.640660 0.500000 1.074343
Cu2   Cu    Cu3+1 0.500000 0.359340 0.500000 1.090653
H1    H     H_    0.430711 0.129099 0.398178 0.122724
H2    H     H_    0.340073 0.366751 0.062691 0.133574
H3    H     H_    0.660570 0.631759 0.064001 0.134641
H4    H     H_    0.341308 0.366836 0.936054 0.134283
H5    H     H_    0.247529 0.245315 0.337967 0.351382
H6    H     H_    0.745124 0.858223 0.397223 0.367881
H7    H     H_    0.791857 0.148864 0.624393 0.359642
H8    H     H_    0.256676 0.759017 0.657226 0.355488
H9    H     H_    0.569703 0.870780 0.601749 0.121470
H10   H     H_    0.567675 0.129277 0.602112 0.119576
H11   H     H_    0.428829 0.870444 0.398579 0.115824
H12   H     H_    0.545477 0.279499 0.716491 0.133163
H13   H     H_    0.454914 0.720012 0.283225 0.129510
H14   H     H_    0.543624 0.279290 0.283613 0.134021
H15   H     H_    0.459399 0.720901 0.716805 0.125793
H16   H     H_    0.661835 0.631809 0.937370 0.133538
N1    N     N_R   0.500000 0.852070 0.500000 -0.221431
N2    N     N_R   0.500000 0.147930 0.500000 -0.215646
N3    N     N_1   0.581714 0.142667 0.879268 -0.237143
N4    N     N_1   0.419362 0.855988 0.120216 -0.236961
N5    N     N_1   0.579271 0.142358 0.120896 -0.234591
N6    N     N_1   0.423504 0.856801 0.879660 -0.235752
O1    O     O_R   0.319640 0.618740 0.500000 -0.445464
O2    O     O_2   0.022490 0.178186 0.385408 -0.203817
O3    O     O_3   0.221317 0.322739 0.368579 -0.548356
O4    O     O_2   0.810437 0.860062 0.529120 -0.233187
O5    O     O_2   0.983405 0.887615 0.449968 -0.128382
O6    O     O_3   0.788411 0.767764 0.403298 -0.516847
O7    O     O_2   0.805395 0.140514 0.475444 -0.209108
O8    O     O_2   0.985501 0.115648 0.549970 -0.141508
O9    O     O_3   0.796161 0.240439 0.600354 -0.547055
O10   O     O_2   0.195293 0.860829 0.531596 -0.194765
O11   O     O_2   0.026253 0.826466 0.612626 -0.202518
O12   O     O_R   0.680360 0.381260 0.500000 -0.433954
O13   O     O_3   0.222641 0.679611 0.630381 -0.538882
O14   O     O_R   0.680360 0.618740 0.500000 -0.443645
O15   O     O_R   0.319640 0.381260 0.500000 -0.441240
O16   O     O_R   0.500020 0.618830 0.400190 -0.521898
O17   O     O_R   0.499980 0.381170 0.599810 -0.516722
O18   O     O_R   0.499980 0.618830 0.599810 -0.516235
O19   O     O_R   0.500020 0.381170 0.400190 -0.515898
O20   O     O_2   0.191019 0.139688 0.466469 -0.199550
S1    S     S_3+6 0.124118 0.248121 0.424883 0.087784
S2    S     S_3+6 0.880796 0.792369 0.471678 0.125013
S3    S     S_3+6 0.881761 0.210624 0.529947 0.117550
S4    S     S_3+6 0.126537 0.754188 0.573486 0.098233

loop_
_geom_bond_atom_site_label_1
_geom_bond_atom_site_label_2
_ccdc_geom_bond_type
C7    S3    S    
Cu1   O14   S    
O7    S3    D    
C6    S2    S    
C14   C18   A    
H6    O6    S    
C20   N2    A    
C3    O19   A    
C4    C25   S    
C15   C28   S    
C9    C25   A    
C24   N1    A    
C15   C19   A    
O3    S1    S    
C6    C8    A    
C33   H4    S    
C10   C15   A    
Cu2   O19   S    
C31   H2    S    
C1    C2    S    
C11   H14   S    
C29   N5    T    
C30   N6    T    
C32   H3    S    
C31   C33   A    
C14   C27   S    
C12   C36   S    
O10   S4    D    
C18   C35   S    
O13   S4    S    
C2    O14   A    
C10   C26   A    
C1    C7    A    
C21   C22   A    
C17   C30   S    
C13   C25   A    
C2    O12   A    
C10   H13   S    
C13   H15   S    
Cu2   O15   S    
Cu2   O12   S    
H7    O9    S    
C1    C6    A    
C20   C24   A    
C5    C12   A    
C27   N3    T    
C5    C7    A    
C20   H1    S    
C22   N2    A    
C11   C26   A    
C16   C29   S    
C32   C34   A    
C9    C14   A    
C4    O18   A    
Cu1   Cu2   S    
O9    S3    S    
C36   O15   A    
O6    S2    S    
C5    S1    S    
C11   C16   A    
C8    C12   A    
C17   C18   A    
C31   C34   A    
C3    O16   A    
O4    S2    D    
O2    S1    D    
C22   H10   S    
C23   C35   A    
C36   O1    A    
C23   H16   S    
C21   N1    A    
O11   S4    D    
C24   H11   S    
C8    S4    S    
O8    S3    D    
Cu1   O16   S    
C3    C26   S    
C9    H12   S    
O20   S1    D    
C19   C34   S    
Cu1   O1    S    
Cu2   O17   S    
C28   N4    T    
Cu1   O18   S    
C13   C17   A    
C23   C32   A    
C4    O17   A    
O5    S2    D    
C16   C19   A    
C33   C35   A    
Cu1   N1    S    
Cu2   N2    S    
H5    O3    S    
H8    O13   S    
C21   H9    S    
