data_mof_unit_60047.cif
_audit_creation_date              2013-03-05T16:58:10-0500
_audit_creation_method            fapswitch 2.2
_symmetry_space_group_name_H-M    P1
_symmetry_Int_Tables_number       1
_space_group_crystal_system       triclinic
_cell_length_a                    17.532995
_cell_length_b                    16.808058
_cell_length_c                    23.48892
_cell_angle_alpha                 89.999398
_cell_angle_beta                  90.948956
_cell_angle_gamma                 90.014527
_cell_volume                      6921.13168889

loop_
_atom_site_label
_atom_site_type_symbol
_atom_site_description
_atom_site_fract_x
_atom_site_fract_y
_atom_site_fract_z
_atom_type_partial_charge
O1    O     O_R   0.389110 0.566570 0.500000 -0.597964
O2    O     O_R   0.610890 0.433430 0.500000 -0.609828
O3    O     O_R   0.610890 0.566570 0.500000 -0.598557
O4    O     O_R   0.389110 0.433430 0.500000 -0.609902
C1    C     C_R   0.353738 0.500103 0.500042 0.992736
C2    C     C_R   0.646254 0.500118 0.499958 0.992154
O5    O     O_R   0.499970 0.566560 0.416150 -0.582591
O6    O     O_R   0.500030 0.433440 0.583850 -0.594058
O7    O     O_R   0.500030 0.566560 0.583850 -0.581902
O8    O     O_R   0.499970 0.433440 0.416150 -0.594422
C3    C     C_R   0.501230 0.499754 0.389151 0.973635
C4    C     C_R   0.498810 0.499738 0.610872 0.971398
Zn1   Zn    Zn3+2 0.500000 0.588860 0.500000 1.042288
Zn2   Zn    Zn3+2 0.500000 0.411140 0.500000 1.000388
C5    C     C_R   0.561106 0.472027 0.878763 0.590137
C6    C     C_R   0.440622 0.469986 0.121381 0.590046
N1    N     N_R   0.491795 0.482266 0.852584 -0.338306
N2    N     N_R   0.509647 0.482065 0.147578 -0.338311
C7    C     C_R   0.425802 0.485566 0.882296 0.595775
C8    C     C_R   0.575562 0.487174 0.117901 0.595616
C9    C     C_R   0.427197 0.475206 0.941662 -0.146067
C10   C     C_R   0.574434 0.477064 0.058506 -0.146128
C11   C     C_R   0.499025 0.472692 0.970094 -0.083581
C12   C     C_R   0.502692 0.472624 0.030064 -0.083484
C13   C     C_R   0.567148 0.471297 0.938515 -0.040118
C14   C     C_R   0.434622 0.469176 0.061631 -0.040067
C15   C     C_R   0.359416 0.469126 0.973218 0.282191
C16   C     C_R   0.642341 0.473139 0.026925 0.282013
C17   C     C_R   0.363129 0.465336 0.032888 0.010030
C18   C     C_R   0.638719 0.469476 0.967249 0.010041
O9    O     O_2   0.623572 0.463514 0.846509 -0.508242
O10   O     O_2   0.378367 0.459797 0.153622 -0.508629
O11   O     O_2   0.359670 0.500512 0.854110 -0.464016
O12   O     O_2   0.641310 0.503682 0.146146 -0.463853
C19   C     C_R   0.546564 0.429449 0.241041 0.077432
C20   C     C_R   0.455689 0.428586 0.759257 0.076959
C21   C     C_R   0.545640 0.434507 0.300640 -0.008726
C22   C     C_R   0.456121 0.433598 0.699644 -0.007460
C23   C     C_R   0.506538 0.497926 0.326899 -0.205703
C24   C     C_R   0.493815 0.497839 0.673180 -0.206358
C25   C     C_R   0.472850 0.558597 0.293438 0.234494
C26   C     C_R   0.526575 0.559197 0.706519 0.235094
C27   C     C_R   0.478051 0.555412 0.233989 0.015691
C28   C     C_R   0.521688 0.556049 0.765980 0.015991
C29   C     C_R   0.512602 0.489700 0.208212 0.251587
C30   C     C_R   0.488555 0.489662 0.791935 0.251377
C31   C     C_R   0.844122 0.545324 0.454132 0.278311
C32   C     C_R   0.150556 0.478694 0.452770 0.266655
C33   C     C_R   0.155910 0.545704 0.545767 0.278432
C34   C     C_R   0.849356 0.479174 0.547453 0.266849
C35   C     C_R   0.764576 0.537853 0.453180 -0.072640
C36   C     C_R   0.230148 0.471304 0.454056 -0.039665
C37   C     C_R   0.235454 0.538244 0.546710 -0.072657
C38   C     C_R   0.769761 0.471771 0.546151 -0.040390
C39   C     C_R   0.728367 0.501417 0.499194 -0.097890
C40   C     C_R   0.271612 0.501380 0.500847 -0.098028
C41   C     C_R   0.885552 0.516087 0.501426 -0.164717
C42   C     C_R   0.114423 0.516031 0.498639 -0.164574
C43   C     C_1   0.966163 0.517788 0.500517 0.200300
C44   C     C_1   0.033814 0.517771 0.499569 0.200388
C45   C     C_R   0.439026 0.833040 0.475367 -0.027066
C46   C     C_R   0.547462 0.167839 0.538031 -0.035628
C47   C     C_R   0.560975 0.833093 0.524570 -0.026914
C48   C     C_R   0.452563 0.167818 0.461946 -0.035535
C49   C     C_R   0.440404 0.748523 0.475446 0.221289
C50   C     C_R   0.546555 0.252274 0.537193 0.214363
C51   C     C_R   0.559609 0.748577 0.524515 0.222439
C52   C     C_R   0.453465 0.252251 0.462793 0.214084
N3    N     N_R   0.500000 0.707230 0.500000 -0.116568
N4    N     N_R   0.500000 0.292770 0.500000 -0.115829
C53   C     C_R   0.499993 0.876259 0.499972 0.037783
C54   C     C_R   0.500009 0.124607 0.499988 0.033017
C55   C     C_1   0.499990 0.964044 0.499974 -0.034656
C56   C     C_1   0.500001 0.036840 0.499983 -0.033858
N5    N     N_R   0.286432 0.461815 0.945215 0.236745
O13   O     O_R   0.268596 0.396495 0.918414 -0.317686
O14   O     O_R   0.236872 0.519199 0.948055 -0.321860
N6    N     N_R   0.715511 0.468012 0.054899 0.236795
O15   O     O_R   0.735323 0.403068 0.081400 -0.316745
O16   O     O_R   0.763322 0.527041 0.052288 -0.321966
N7    N     N_3   0.378542 0.705806 0.449540 -0.334788
H1    H     H_    0.371040 0.726662 0.407949 0.264265
H2    H     H_    0.329009 0.719276 0.471778 0.193426
N8    N     N_3   0.594883 0.296314 0.575345 -0.374051
H3    H     H_    0.581179 0.280669 0.617025 0.193118
H4    H     H_    0.651239 0.279172 0.568291 0.194564
N9    N     N_3   0.621515 0.705923 0.550384 -0.334968
H5    H     H_    0.629149 0.726929 0.591926 0.264385
H6    H     H_    0.670987 0.719340 0.528048 0.193018
N10   N     N_3   0.405159 0.296265 0.424627 -0.373930
H7    H     H_    0.418942 0.280681 0.382953 0.193662
H8    H     H_    0.348812 0.279018 0.431628 0.194534
N11   N     N_3   0.293800 0.457677 0.064160 -0.340928
H9    H     H_    0.259732 0.507601 0.056266 0.245601
H10   H     H_    0.264690 0.406884 0.050049 0.233507
N12   N     N_3   0.708224 0.464089 0.935958 -0.340775
H11   H     H_    0.740913 0.514987 0.943969 0.245277
H12   H     H_    0.738716 0.414133 0.949957 0.233919
N13   N     N_3   0.580378 0.362650 0.212990 -0.413854
H13   H     H_    0.552823 0.310773 0.226021 0.191060
H14   H     H_    0.637933 0.359219 0.225009 0.231754
N14   N     N_3   0.423482 0.361029 0.787476 -0.413936
H15   H     H_    0.452039 0.309798 0.774380 0.190975
H16   H     H_    0.365938 0.356227 0.775681 0.231895
N15   N     N_3   0.584873 0.375996 0.334739 -0.420512
H17   H     H_    0.642620 0.376361 0.324398 0.201499
H18   H     H_    0.562074 0.319871 0.325656 0.192499
N16   N     N_3   0.417876 0.374130 0.665763 -0.419701
H19   H     H_    0.360222 0.373131 0.676349 0.201780
H20   H     H_    0.441925 0.318567 0.674789 0.191748
N17   N     N_R   0.427568 0.619289 0.319112 0.209101
O17   O     O_R   0.445392 0.693924 0.313160 -0.407749
O18   O     O_R   0.364446 0.600044 0.344007 -0.401641
N18   N     N_R   0.570884 0.620562 0.680721 0.209076
O19   O     O_R   0.635024 0.602488 0.656852 -0.401370
O20   O     O_R   0.551285 0.694821 0.685852 -0.407214
N19   N     N_3   0.445265 0.616594 0.198730 -0.411164
H21   H     H_    0.473006 0.670215 0.207905 0.240468
H22   H     H_    0.387551 0.622456 0.208422 0.254687
N20   N     N_3   0.553363 0.618077 0.801046 -0.410970
H23   H     H_    0.524670 0.671077 0.791676 0.239893
H24   H     H_    0.610953 0.625056 0.791312 0.254883
N21   N     N_R   0.882550 0.583523 0.407884 0.224771
O21   O     O_R   0.871072 0.559798 0.355731 -0.322364
O22   O     O_R   0.930989 0.640682 0.417968 -0.325522
N22   N     N_R   0.106761 0.450091 0.404648 0.209142
O23   O     O_R   0.113366 0.376737 0.387794 -0.365496
O24   O     O_R   0.058182 0.496647 0.378671 -0.295230
N23   N     N_R   0.117543 0.584337 0.591853 0.224680
O25   O     O_R   0.129029 0.561069 0.644109 -0.322298
O26   O     O_R   0.069141 0.641421 0.581521 -0.325664
N24   N     N_R   0.893090 0.451010 0.595733 0.209270
O27   O     O_R   0.886354 0.377845 0.612981 -0.365314
O28   O     O_R   0.941724 0.497772 0.621481 -0.295257
N25   N     N_3   0.719409 0.568553 0.406571 -0.435554
H25   H     H_    0.733549 0.628319 0.400323 0.234894
H26   H     H_    0.731910 0.536408 0.369829 0.241571
N26   N     N_3   0.270046 0.438321 0.406676 -0.415395
H27   H     H_    0.253808 0.469236 0.369802 0.257190
H28   H     H_    0.254293 0.378756 0.401968 0.232793
N27   N     N_3   0.280668 0.569383 0.593149 -0.435134
H29   H     H_    0.266566 0.629209 0.599107 0.234845
H30   H     H_    0.268172 0.537596 0.630055 0.241930
N28   N     N_3   0.729781 0.439206 0.593647 -0.416256
H31   H     H_    0.746002 0.470414 0.630400 0.256853
H32   H     H_    0.745442 0.379660 0.598608 0.233075
N29   N     N_3   0.375176 0.873634 0.449767 -0.449725
H33   H     H_    0.350476 0.909806 0.480629 0.208129
H34   H     H_    0.395265 0.910180 0.417256 0.212533
N30   N     N_3   0.596981 0.127396 0.577686 -0.457511
H35   H     H_    0.633782 0.090980 0.554737 0.207389
H36   H     H_    0.563630 0.091057 0.603465 0.206183
N31   N     N_3   0.624837 0.873744 0.550138 -0.449890
H37   H     H_    0.649513 0.909917 0.519258 0.207973
H38   H     H_    0.604764 0.910290 0.582648 0.212666
N32   N     N_3   0.403058 0.127356 0.422278 -0.457342
H39   H     H_    0.366250 0.090914 0.445217 0.207419
H40   H     H_    0.436418 0.091042 0.396501 0.206219

loop_
_geom_bond_atom_site_label_1
_geom_bond_atom_site_label_2
_geom_bond_distance
_ccdc_geom_bond_type
C38   N28   1.435716 S    
N9    H5    1.044204 S    
C33   C37   1.400106 A    
N22   O23   1.300721 A    
C15   C17   1.403457 A    
Zn2   N4    1.989570 S    
C55   C56   1.223564 T    
C1    C40   1.440510 S    
N29   H33   1.045574 S    
C2    C39   1.440264 S    
O3    C2    1.277625 A    
N18   O19   1.300895 A    
N21   O21   1.300759 A    
C23   C25   1.411175 A    
O5    C3    1.289970 A    
N15   H18   1.045083 S    
N11   H9    1.044931 S    
O1    C1    1.277649 A    
C48   C52   1.419377 A    
N32   H39   1.045606 S    
N29   H34   1.045637 S    
C12   C14   1.416607 A    
N19   H22   1.045551 S    
N6    O16   1.300825 A    
N21   O22   1.301264 A    
C28   N20   1.434695 S    
C42   C44   1.414166 S    
C13   C18   1.415297 A    
N16   H19   1.045105 S    
C20   N14   1.435155 S    
O7    Zn1   2.004882 S    
C18   N12   1.436377 S    
C49   N7    1.428273 S    
N32   H40   1.045549 S    
C26   N18   1.431701 S    
N17   O17   1.300818 A    
C28   C30   1.402017 A    
N24   O27   1.300723 A    
N12   H12   1.045651 S    
C35   N25   1.436464 S    
C36   N26   1.435680 S    
C11   C12   1.409043 A    
C20   C30   1.400028 A    
C14   C17   1.415325 A    
N31   H38   1.045637 S    
C37   N27   1.436457 S    
C16   N6    1.434256 S    
C35   C39   1.403145 A    
O3    Zn1   1.980095 S    
C8    O12   1.349273 S    
C45   C53   1.408363 A    
C32   N22   1.438571 S    
C24   C26   1.411245 A    
C9    C15   1.414663 A    
C43   C44   1.186697 T    
N11   H10   1.045655 S    
C22   C24   1.415029 A    
C10   C16   1.414733 A    
O4    Zn2   1.980095 S    
C25   C27   1.401900 A    
O2    C2    1.280836 A    
C26   C28   1.401706 A    
C19   N13   1.435098 S    
N7    H2    1.045682 S    
N20   H24   1.045553 S    
N7    H1    1.044195 S    
C9    C11   1.416315 A    
C6    C14   1.405735 A    
C47   C51   1.420751 A    
C46   C50   1.419412 A    
N25   H25   1.045550 S    
N8    H3    1.045507 S    
C47   N31   1.434759 S    
C54   C56   1.475189 S    
C7    O11   1.349294 S    
C53   C55   1.475492 S    
N6    O15   1.301040 A    
N28   H31   1.045532 S    
C31   C35   1.400099 A    
O6    Zn2   2.004889 S    
C33   N23   1.438862 S    
C5    O9    1.349637 S    
C33   C42   1.405849 A    
C51   N3    1.373518 A    
C4    C24   1.467941 S    
C3    C23   1.467039 S    
N5    O13   1.301072 A    
C21   N15   1.436649 S    
N30   H36   1.045551 S    
C31   C41   1.405915 A    
N5    O14   1.300829 A    
N10   H8    1.045145 S    
N13   H13   1.045025 S    
C32   C36   1.400866 A    
O6    C4    1.282791 A    
N12   H11   1.044951 S    
C46   C54   1.412018 A    
N17   O18   1.301006 A    
C34   C38   1.400873 A    
N1    C30   1.430198 S    
N14   H16   1.044930 S    
C27   C29   1.402129 A    
C34   N24   1.438578 S    
C27   N19   1.434694 S    
N24   O28   1.301232 A    
N28   H32   1.043907 S    
N13   H14   1.044950 S    
C47   C53   1.408313 A    
O8    C3    1.282759 A    
N9    H6    1.045682 S    
O8    Zn2   2.004882 S    
N25   H26   1.044574 S    
C10   C12   1.416401 A    
O1    Zn1   1.979909 S    
C19   C29   1.399936 A    
N2    C29   1.430095 S    
N20   H23   1.044818 S    
C19   C21   1.402855 A    
N23   O25   1.300759 A    
C37   C40   1.403271 A    
C52   N10   1.429484 S    
C5    N1    1.363771 A    
C38   C39   1.401855 A    
N22   O24   1.301219 A    
C46   N30   1.434216 S    
C7    C9    1.405085 A    
C34   C41   1.406766 A    
C8    C10   1.405238 A    
O4    C1    1.280951 A    
C15   N5    1.434315 S    
N18   O20   1.300796 A    
C32   C42   1.406711 A    
C31   N21   1.438863 S    
N26   H28   1.043889 S    
C6    O10   1.349644 S    
N15   H17   1.045134 S    
C48   N32   1.434228 S    
C51   N9    1.428232 S    
N27   H30   1.044567 S    
C45   N29   1.434742 S    
C16   C18   1.403481 A    
C21   C23   1.414615 A    
N19   H21   1.044803 S    
C17   N11   1.436367 S    
N10   H7    1.045513 S    
C50   N4    1.367276 A    
Zn1   N3    1.989570 S    
C49   N3    1.373524 A    
C20   C22   1.402916 A    
N1    C7    1.362238 A    
N16   H20   1.045052 S    
N2    C8    1.362192 A    
C48   C54   1.411966 A    
C22   N16   1.436688 S    
N14   H15   1.045039 S    
O2    Zn2   1.979909 S    
O7    C4    1.290441 A    
C41   C43   1.414156 S    
N26   H27   1.045524 S    
C50   N8    1.429536 S    
C45   C49   1.420775 A    
O5    Zn1   2.004889 S    
C11   C13   1.416575 A    
C5    C13   1.405809 A    
C6    N2    1.363694 A    
C25   N17   1.432102 S    
C52   N4    1.367263 A    
N30   H35   1.045605 S    
N8    H4    1.045164 S    
N31   H37   1.045573 S    
N27   H29   1.045547 S    
C36   C40   1.401928 A    
N23   O26   1.301250 A    
