data_mof_unit_43822.cif
_audit_creation_date              2012-12-11T16:48:36-0500
_audit_creation_method            fapswitch 2.2
_symmetry_space_group_name_H-M    P1
_symmetry_Int_Tables_number       1
_space_group_crystal_system       triclinic
_cell_length_a                    17.39171
_cell_length_b                    24.416673
_cell_length_c                    15.129658
_cell_angle_alpha                 91.131846
_cell_angle_beta                  126.138159
_cell_angle_gamma                 88.575413
_cell_volume                      5186.92357418

loop_
_atom_site_label
_atom_site_type_symbol
_atom_type_description
_atom_site_fract_x
_atom_site_fract_y
_atom_site_fract_z
_atom_type_partial_charge
C1    C     C_R   0.355525 0.347907 0.907921 -0.028975
C2    C     C_R   0.688226 0.372179 0.090961 -0.117802
C3    C     C_R   0.849309 0.849577 0.909207 -0.044944
C4    C     C_R   0.187598 0.871631 0.089810 -0.117715
C5    C     C_R   0.391336 0.687037 0.998967 -0.119051
C6    C     C_R   0.637041 0.675954 0.006449 -0.157792
C7    C     C_R   0.891378 0.186922 0.000330 -0.123013
C8    C     C_R   0.151178 0.169003 0.005401 -0.172451
C9    C     C_R   0.456067 0.502143 0.279715 0.000690
C10   C     C_R   0.444252 0.499600 0.640317 0.002105
C11   C     C_R   0.030110 0.997483 0.345631 0.006032
C12   C     C_R   0.930240 0.996908 0.633793 0.015856
C13   C     C_R   0.175952 0.501586 0.730972 -0.056267
C14   C     C_R   0.811216 0.499553 0.357913 -0.072473
C15   C     C_R   0.675840 0.001727 0.730258 -0.055259
C16   C     C_R   0.312391 0.999546 0.356395 -0.074636
C17   C     C_2   0.921515 0.464796 0.544802 -0.079108
C18   C     C_2   0.019060 0.461613 0.645186 -0.084494
C19   C     C_2   0.421710 0.965078 0.543210 -0.078661
C20   C     C_2   0.518905 0.961836 0.643982 -0.080154
C21   C     C_2   0.898321 0.501756 0.467857 -0.146231
C22   C     C_2   0.074592 0.505599 0.682345 -0.172398
C23   C     C_2   0.399679 0.001535 0.465961 -0.138126
C24   C     C_2   0.574435 0.005807 0.681157 -0.175121
C25   C     C_R   0.403585 0.774014 0.095210 -0.000581
C26   C     C_R   0.656970 0.756841 0.933858 -0.009521
C27   C     C_R   0.904128 0.273455 0.098406 0.005878
C28   C     C_R   0.171141 0.249142 0.931434 -0.011385
C29   C     C_R   0.373273 0.746715 0.997172 0.018723
C30   C     C_R   0.697164 0.715638 0.011201 0.040269
C31   C     C_R   0.874261 0.246685 0.999961 0.017140
C32   C     C_R   0.211830 0.207882 0.008566 0.044413
C33   C     C_R   0.298268 0.770461 0.897893 -0.100798
C34   C     C_R   0.795362 0.703663 0.073194 -0.099188
C35   C     C_R   0.801004 0.271406 0.900955 -0.103161
C36   C     C_R   0.310055 0.196364 0.070179 -0.095368
C37   C     C_R   0.742910 0.311632 0.900222 -0.231378
C38   C     C_R   0.368139 0.230226 0.061417 -0.216798
C39   C     C_R   0.239238 0.809925 0.897220 -0.228616
C40   C     C_R   0.853952 0.736782 0.064706 -0.219026
C41   C     C_R   0.759645 0.329339 0.998807 0.102237
C42   C     C_R   0.326777 0.274537 0.989922 0.082558
C43   C     C_R   0.257228 0.828306 0.996028 0.104223
C44   C     C_R   0.813395 0.781003 0.993445 0.077764
C45   C     C_R   0.447991 0.653357 0.089715 -0.130931
C46   C     C_R   0.567398 0.648284 0.912833 -0.099994
C47   C     C_R   0.947511 0.152925 0.090551 -0.119210
C48   C     C_R   0.075503 0.144170 0.911969 -0.079470
C49   C     C_R   0.845868 0.314870 0.097355 -0.022200
C50   C     C_R   0.228053 0.282685 0.923166 0.022904
C51   C     C_R   0.344644 0.814918 0.094165 -0.025711
C52   C     C_R   0.714990 0.790079 0.926591 0.027074
C53   C     C_3   0.926856 0.353096 0.166459 -0.331497
C54   C     C_3   0.167622 0.332544 0.904719 -0.310034
C55   C     C_3   0.424522 0.854074 0.160944 -0.335834
C56   C     C_3   0.656744 0.840532 0.910480 -0.319682
C57   C     C_3   0.487196 0.811905 0.157482 0.631075
C58   C     C_3   0.593415 0.803424 0.920375 0.597307
C59   C     C_3   0.988893 0.310439 0.163100 0.617821
C60   C     C_3   0.105996 0.295046 0.916667 0.590785
C61   C     C_R   0.375138 0.471150 0.450891 0.085631
C62   C     C_R   0.376454 0.473457 0.360504 0.066824
C63   C     C_R   0.959131 0.945544 0.516626 0.099819
C64   C     C_R   0.983273 0.944653 0.445336 0.065773
C65   C     C_R   0.441377 0.500936 0.544651 0.045508
C66   C     C_R   0.443819 0.505560 0.364619 0.061769
C67   C     C_R   0.923731 0.992892 0.534798 0.055134
C68   C     C_R   0.987085 0.994482 0.403473 0.050635
C69   C     C_R   0.513074 0.529772 0.551296 -0.178519
C70   C     C_R   0.514403 0.532026 0.461520 -0.178408
C71   C     C_R   0.904623 0.039178 0.471337 -0.185157
C72   C     C_R   0.937574 0.040311 0.406871 -0.164101
C73   C     C_3   0.269847 0.476736 0.282678 -0.228283
C74   C     C_3   0.268752 0.475659 0.382572 -0.268320
C75   C     C_3   0.056382 0.899834 0.509096 -0.243277
C76   C     C_3   0.035497 0.904636 0.592734 -0.251114
C77   C     C_R   0.486569 0.455177 0.255370 0.063504
C78   C     C_R   0.453464 0.454034 0.697825 0.042516
C79   C     C_R   0.037123 0.952588 0.293761 0.028840
C80   C     C_R   0.942253 0.952948 0.695520 0.025176
C81   C     C_R   0.232567 0.546359 0.755659 -0.229037
C82   C     C_R   0.760467 0.545098 0.297274 -0.214876
C83   C     C_R   0.732617 0.046450 0.755506 -0.226763
C84   C     C_R   0.260733 0.045096 0.296942 -0.204470
C85   C     C_R   0.480368 0.546745 0.247464 -0.151859
C86   C     C_R   0.458104 0.544944 0.701969 -0.140938
C87   C     C_R   0.026764 0.044175 0.291330 -0.136440
C88   C     C_R   0.949910 0.043320 0.696479 -0.120633
C89   C     C_R   0.231949 0.455147 0.752287 0.717006
C90   C     C_R   0.758850 0.454074 0.299227 0.697454
C91   C     C_R   0.731683 0.955248 0.751293 0.719854
C92   C     C_R   0.260217 0.954076 0.297861 0.693328
C93   C     C_R   0.357276 0.652917 0.908853 0.667663
C94   C     C_R   0.659419 0.646671 0.094738 0.697017
C95   C     C_R   0.857621 0.153117 0.909596 0.672437
C96   C     C_R   0.168214 0.142763 0.094551 0.706172
C97   C     C_R   0.444799 0.347115 0.088806 -0.102009
C98   C     C_R   0.596277 0.372563 0.908311 -0.126640
C99   C     C_R   0.936494 0.850992 0.091594 -0.104310
C100  C     C_R   0.094655 0.872298 0.906751 -0.119244
C101  C     C_R   0.383158 0.317211 0.996215 -0.001172
C102  C     C_R   0.685329 0.357852 0.999675 0.047468
C103  C     C_R   0.871267 0.822036 0.999037 0.013552
C104  C     C_R   0.183667 0.857152 0.997705 0.048758
H1    H     H_    0.316462 0.333599 0.824197 0.176659
H2    H     H_    0.747411 0.365966 0.175266 0.175089
H3    H     H_    0.809367 0.833998 0.826343 0.182256
H4    H     H_    0.247004 0.864864 0.173690 0.181304
H5    H     H_    0.946256 0.534129 0.482601 0.144288
H6    H     H_    0.042810 0.546445 0.659632 0.142243
H7    H     H_    0.448334 0.033400 0.480476 0.146202
H8    H     H_    0.542627 0.046645 0.658036 0.143524
H9    H     H_    0.275952 0.754426 0.819490 0.218775
H10   H     H_    0.826461 0.668809 0.127608 0.149894
H11   H     H_    0.779368 0.255768 0.822541 0.220698
H12   H     H_    0.341434 0.161682 0.125016 0.151136
H13   H     H_    0.681132 0.325149 0.821739 0.139916
H14   H     H_    0.444575 0.223507 0.113077 0.143647
H15   H     H_    0.176017 0.822334 0.818872 0.134346
H16   H     H_    0.930245 0.729407 0.116068 0.144567
H17   H     H_    0.943134 0.359792 0.248777 0.201334
H18   H     H_    0.131293 0.349723 0.821374 0.218567
H19   H     H_    0.441775 0.861233 0.243613 0.205033
H20   H     H_    0.621487 0.858757 0.828173 0.207997
H21   H     H_    0.514986 0.823343 0.110342 0.021326
H22   H     H_    0.593121 0.810325 0.993158 0.022817
H23   H     H_    0.018316 0.321801 0.117643 0.021824
H24   H     H_    0.106062 0.302313 0.989617 0.023802
H25   H     H_    0.567962 0.550578 0.625998 0.139787
H26   H     H_    0.571202 0.553783 0.468148 0.141985
H27   H     H_    0.874064 0.076143 0.480320 0.139603
H28   H     H_    0.928660 0.078063 0.365414 0.134347
H29   H     H_    0.239327 0.440148 0.228251 0.150968
H30   H     H_    0.242840 0.513939 0.398963 0.153363
H31   H     H_    0.130211 0.910527 0.540138 0.156767
H32   H     H_    0.008390 0.866785 0.604554 0.143912
H33   H     H_    0.211353 0.588903 0.748734 0.189333
H34   H     H_    0.774746 0.586952 0.326360 0.216743
H35   H     H_    0.711563 0.089025 0.748700 0.188674
H36   H     H_    0.274616 0.086753 0.327072 0.218314
H37   H     H_    0.471784 0.589176 0.261382 0.120936
H38   H     H_    0.445395 0.586605 0.674449 0.121425
H39   H     H_    0.025921 0.086203 0.313645 0.109671
H40   H     H_    0.934061 0.084507 0.666535 0.113589
H41   H     H_    0.488584 0.331325 0.170807 0.127981
H42   H     H_    0.570114 0.367251 0.824527 0.110224
H43   H     H_    0.971344 0.839268 0.175792 0.119030
H44   H     H_    0.066455 0.867426 0.821820 0.100373
H45   H     H_    0.873543 0.432086 0.528222 0.203755
H46   H     H_    0.048166 0.420956 0.675182 0.204154
H47   H     H_    0.372930 0.932864 0.526715 0.197717
H48   H     H_    0.547886 0.921181 0.674058 0.202850
N1    N     N_R   0.395410 0.396350 0.944340 -0.059761
N2    N     N_R   0.604590 0.396350 0.055660 -0.045845
N3    N     N_R   0.895410 0.896350 0.944340 -0.061174
N4    N     N_R   0.104590 0.896350 0.055660 -0.045781
N5    N     N_R   0.449930 0.602500 0.055880 -0.096785
N6    N     N_R   0.550070 0.602500 0.944120 -0.095185
N7    N     N_R   0.949930 0.102500 0.055880 -0.098323
N8    N     N_R   0.050070 0.102500 0.944120 -0.095353
N9    N     N_R   0.525080 0.471030 0.205650 -0.063772
N10   N     N_R   0.474920 0.471030 0.794350 -0.067645
N11   N     N_R   0.025080 0.971030 0.205650 -0.062906
N12   N     N_R   0.974920 0.971030 0.794350 -0.066714
N13   N     N_R   0.320260 0.527820 0.794570 -0.067553
N14   N     N_R   0.679740 0.527820 0.205430 -0.079956
N15   N     N_R   0.820260 0.027820 0.794570 -0.068594
N16   N     N_R   0.179740 0.027820 0.205430 -0.081682
N17   N     N_R   0.524590 0.527840 0.205200 -0.052504
N18   N     N_R   0.475410 0.527840 0.794800 -0.047073
N19   N     N_R   0.024590 0.027840 0.205200 -0.051523
N20   N     N_R   0.975410 0.027840 0.794800 -0.048869
N21   N     N_R   0.320750 0.471000 0.795020 -0.116457
N22   N     N_R   0.679250 0.471000 0.204980 -0.115563
N23   N     N_R   0.820750 0.971000 0.795020 -0.116449
N24   N     N_R   0.179250 0.971000 0.204980 -0.116616
N25   N     N_R   0.393620 0.602490 0.942710 -0.106064
N26   N     N_R   0.606380 0.602490 0.057290 -0.118211
N27   N     N_R   0.893620 0.102490 0.942710 -0.107883
N28   N     N_R   0.106380 0.102490 0.057290 -0.119352
N29   N     N_R   0.451720 0.396350 0.057510 -0.054129
N30   N     N_R   0.548280 0.396350 0.942490 -0.051105
N31   N     N_R   0.951720 0.896350 0.057510 -0.052446
N32   N     N_R   0.048280 0.896350 0.942490 -0.050760
Ni1   Ni    Ni4+2 0.435420 0.434270 0.870230 0.233802
Ni2   Ni    Ni4+2 0.564580 0.434270 0.129770 0.255016
Ni3   Ni    Ni4+2 0.935420 0.934270 0.870230 0.234414
Ni4   Ni    Ni4+2 0.064580 0.934270 0.129770 0.248320
Ni5   Ni    Ni4+2 0.563430 0.564580 0.128740 0.227893
Ni6   Ni    Ni4+2 0.436570 0.564580 0.871260 0.250206
Ni7   Ni    Ni4+2 0.063430 0.064580 0.128740 0.225482
Ni8   Ni    Ni4+2 0.936570 0.064580 0.871260 0.254132
C105  C     C_1   0.919402 0.404504 0.112094 0.074822
N33   N     N_1   0.913547 0.444848 0.069477 -0.072373
C106  C     C_1   0.215572 0.374154 0.992365 0.083852
N34   N     N_1   0.253179 0.406962 0.060937 -0.088896
C107  C     C_1   0.414159 0.905180 0.104150 0.092385
N35   N     N_1   0.405901 0.945266 0.059526 -0.065171
C108  C     C_1   0.706820 0.880788 0.000608 0.086083
N36   N     N_1   0.746143 0.912416 0.071331 -0.069945
F1    F     F_    0.557732 0.793078 0.261175 -0.669830
F2    F     F_    0.503270 0.799482 0.823084 -0.675543
F3    F     F_    0.057740 0.290794 0.266623 -0.676735
F4    F     F_    0.015759 0.290058 0.819926 -0.672012
C109  C     C_1   0.233596 0.528853 0.222666 0.133944
N37   N     N_1   0.205214 0.569772 0.175511 -0.081354
C110  C     C_1   0.225341 0.426060 0.387666 0.153402
N38   N     N_1   0.190779 0.387125 0.391389 -0.003210
C111  C     C_1   0.023976 0.846662 0.451027 0.143679
N39   N     N_1   0.998395 0.805012 0.405512 -0.064547
C112  C     C_1   0.115950 0.928954 0.696190 0.105576
N40   N     N_1   0.178976 0.947996 0.777279 -0.072270
C113  C     C_1   0.520331 0.671034 0.199743 0.228357
N41   N     N_1   0.579246 0.683824 0.289013 0.007344
C114  C     C_1   0.507477 0.670668 0.804307 0.260188
N42   N     N_1   0.459440 0.689297 0.717518 -0.019751
C115  C     C_1   0.019641 0.170087 0.200889 0.213582
N43   N     N_1   0.078676 0.182625 0.290288 0.001438
C116  C     C_1   0.022298 0.164917 0.802146 0.255388
N44   N     N_1   0.980150 0.182535 0.714538 -0.030050
C117  C     C_1   0.504869 0.403100 0.308039 0.056813
N45   N     N_1   0.519776 0.361754 0.352059 -0.063863
C118  C     C_1   0.418310 0.400436 0.651795 0.028387
N46   N     N_1   0.390368 0.357252 0.615261 -0.053752
C119  C     C_1   0.100071 0.906236 0.346925 0.058201
N47   N     N_1   0.151854 0.869117 0.388129 -0.024082
C120  C     C_1   0.890428 0.902592 0.652173 0.040098
N48   N     N_1   0.848714 0.862225 0.617570 -0.038610
F5    F     F_    0.202049 0.402892 0.727302 -0.754209
F6    F     F_    0.772596 0.402677 0.338836 -0.729727
F7    F     F_    0.700867 0.903281 0.722739 -0.748861
F8    F     F_    0.277203 0.902266 0.336328 -0.732750
F9    F     F_    0.321329 0.669469 0.806179 -0.733734
F10   F     F_    0.714017 0.663552 0.200530 -0.719961
F11   F     F_    0.822142 0.170158 0.807333 -0.727744
F12   F     F_    0.226140 0.159789 0.200019 -0.720603

loop_
_geom_bond_atom_site_label_1
_geom_bond_atom_site_label_2
_ccdc_geom_bond_type
C99   C103  A    
C88   H40   S    
C88   N20   A    
C13   C81   A    
C3    C103  A    
C53   C105  S    
C73   C74   S    
C118  N46   T    
C8    C96   A    
C89   N21   A    
C114  N42   T    
N12   Ni3   S    
C25   C51   A    
N4    N32   A    
C59   F3    S    
C47   N7    A    
C109  N37   T    
N20   Ni8   S    
C81   H33   S    
N15   Ni8   S    
N2    Ni2   S    
C97   N29   A    
N21   Ni1   S    
C50   C54   S    
N16   Ni7   S    
C95   F11   S    
C34   C40   A    
C56   H20   S    
C14   C21   S    
C35   C37   A    
C38   C42   A    
N6    Ni6   S    
C57   H21   S    
N3    N31   A    
N23   Ni3   S    
C63   C76   S    
C2    C102  A    
C59   H23   S    
C46   N6    A    
C29   C33   A    
C65   C69   A    
C70   H26   S    
C41   C102  S    
C25   C29   A    
C17   C18   S    
C94   N26   A    
C9    C66   S    
C14   C90   A    
C99   H43   S    
C9    C85   A    
C43   C104  S    
C33   C39   A    
C28   C50   A    
C60   F4    S    
C100  C104  A    
N8    N28   A    
N27   Ni8   S    
C20   C24   D    
C11   C87   A    
C6    C94   A    
C24   H8    S    
C19   H47   S    
C62   C73   S    
C35   H11   S    
N25   Ni6   S    
N17   Ni5   S    
N5    Ni5   S    
N11   N19   A    
C40   C44   A    
C67   C71   A    
C61   C62   A    
C105  N33   T    
C78   C118  S    
C56   C108  S    
N9    N17   A    
C5    C93   A    
C44   C52   A    
C28   C60   S    
C54   H18   S    
C108  N36   T    
C2    N2    A    
C86   N18   A    
C77   N9    A    
C69   C70   A    
C25   C57   S    
C10   C78   A    
C41   C49   A    
C44   C103  S    
C111  N39   T    
C5    C29   S    
C74   C110  S    
N4    Ni4   S    
C53   C59   S    
N2    N30   A    
C12   C67   S    
C63   C67   A    
N14   N22   A    
C7    C31   S    
C30   C34   A    
C63   C64   A    
C27   C31   A    
C110  N38   T    
C8    C32   S    
C113  N41   T    
N7    Ni7   S    
C28   C32   A    
C45   N5    A    
N8    Ni8   S    
C85   H37   S    
C116  N44   T    
N3    Ni3   S    
N26   Ni5   S    
C62   C66   A    
C94   F10   S    
N5    N25   A    
C12   C80   A    
C98   H42   S    
C22   H6    S    
C115  N43   T    
C98   C102  A    
C83   N15   A    
C2    H2    S    
C16   C84   A    
C85   N17   A    
C20   H48   S    
C91   F7    S    
N11   Ni4   S    
N30   Ni1   S    
C7    C47   A    
C98   N30   A    
C19   C23   D    
C75   C76   S    
C8    C48   A    
C112  N40   T    
C87   H39   S    
N9    Ni2   S    
C84   N16   A    
C26   C52   A    
C117  N45   T    
C47   C115  S    
C45   C113  S    
C120  N48   T    
N10   N18   A    
C60   H24   S    
C68   C72   A    
C12   C88   A    
C87   N19   A    
C64   C68   A    
C3    N3    A    
C119  N47   T    
C96   F12   S    
C91   N23   A    
C5    C45   A    
C9    C77   A    
C96   N28   A    
C1    N1    A    
C26   C58   S    
C58   F2    S    
C11   C79   A    
C42   C50   A    
C76   C112  S    
C95   N27   A    
C15   C24   S    
C6    C30   S    
N1    N29   A    
C26   C30   A    
C16   C23   S    
C55   C57   S    
C83   H35   S    
C40   H16   S    
C31   C35   A    
N12   N20   A    
C16   C92   A    
C34   H10   S    
C14   C82   A    
C36   H12   S    
C42   C101  S    
C1    C101  A    
C23   H7    S    
C11   C68   S    
C86   H38   S    
C78   N10   A    
N15   N23   A    
C82   N14   A    
C10   C65   S    
C77   C117  S    
N16   N24   A    
C39   H15   S    
C73   C109  S    
C75   C111  S    
N24   Ni4   S    
C93   N25   A    
C54   C106  S    
C6    C46   A    
C4    N4    A    
C18   C22   D    
C97   H41   S    
C92   N24   A    
C17   H45   S    
N7    N27   A    
C80   N12   A    
C55   H19   S    
N28   Ni7   S    
C74   H30   S    
N10   Ni1   S    
C15   C83   A    
N29   Ni2   S    
C32   C36   A    
C10   C86   A    
C58   H22   S    
C61   C74   S    
C13   C89   A    
C7    C95   A    
N18   Ni6   S    
C33   H9    S    
N32   Ni3   S    
C54   C60   S    
N14   Ni5   S    
C93   F9    S    
C48   N8    A    
C19   C20   S    
C36   C38   A    
N6    N26   A    
C71   C72   A    
C82   H34   S    
C53   H17   S    
N31   Ni4   S    
N22   Ni2   S    
C72   H28   S    
C43   C51   A    
C55   C107  S    
C75   H31   S    
N1    Ni1   S    
C100  H44   S    
C69   H25   S    
C49   C53   S    
C52   C56   S    
C4    C104  A    
C64   C75   S    
C56   C58   S    
C13   C22   S    
C51   C55   S    
C80   C120  S    
C37   C41   A    
C107  N35   T    
C100  N32   A    
C17   C21   D    
N13   Ni6   S    
C90   N22   A    
C15   C91   A    
C106  N34   T    
C76   H32   S    
C61   C65   A    
C79   N11   A    
C37   H13   S    
C66   C70   A    
C84   H36   S    
C71   H27   S    
N19   Ni7   S    
C46   C114  S    
C73   H29   S    
C39   C43   A    
C57   F1    S    
C81   N13   A    
C90   F6    S    
C38   H14   S    
C27   C59   S    
C99   N31   A    
C4    H4    S    
C89   F5    S    
C18   H46   S    
C92   F8    S    
N13   N21   A    
C79   C119  S    
C97   C101  A    
C27   C49   A    
C1    H1    S    
C21   H5    S    
C48   C116  S    
C3    H3    S    
