data_mof_unit_22345.cif
_audit_creation_date              2012-10-26T21:12:28-0400
_audit_creation_method            fapswitch 2.2
_symmetry_space_group_name_H-M    P1
_symmetry_Int_Tables_number       1
_space_group_crystal_system       triclinic
_cell_length_a                    23.519438
_cell_length_b                    10.831612
_cell_length_c                    9.566362
_cell_angle_alpha                 89.950706
_cell_angle_beta                  90.307083
_cell_angle_gamma                 92.268435
_cell_volume                      2435.11821607

loop_
_atom_site_label
_atom_site_type_symbol
_atom_type_description
_atom_site_fract_x
_atom_site_fract_y
_atom_site_fract_z
_atom_type_partial_charge
C1    C     C_R   0.503899 0.262477 0.500859 0.552700
C2    C     C_R   0.121350 0.606910 0.544448 0.401142
C3    C     C_R   0.235794 0.547160 0.397164 -0.047238
C4    C     C_R   0.390871 0.501668 0.499383 0.553317
C5    C     C_R   0.295346 0.550586 0.386680 -0.029518
C6    C     C_R   0.327937 0.503147 0.499563 0.019896
C7    C     C_R   0.299439 0.455483 0.618237 -0.138443
C8    C     C_R   0.240347 0.453162 0.625984 -0.059411
C9    C     C_R   0.208479 0.499057 0.515642 0.229441
C10   C     C_R   0.760731 0.513329 0.631969 -0.056282
C11   C     C_R   0.701488 0.512976 0.629672 -0.147269
C12   C     C_R   0.965682 0.277930 0.476645 -0.121992
C13   C     C_R   0.671653 0.501874 0.502205 0.002144
C14   C     C_R   0.702220 0.491653 0.377128 -0.145225
C15   C     C_R   0.761534 0.491390 0.379865 -0.056356
C16   C     C_R   0.494979 0.737004 0.500674 0.533595
C17   C     C_R   0.790889 0.502133 0.507273 0.243721
C18   C     C_R   0.527182 0.113253 0.760245 -0.099715
C19   C     C_R   0.516301 0.052785 0.886394 -0.145209
C20   C     C_R   0.483542 0.943247 0.887439 -0.123976
C21   C     C_R   0.467042 0.886623 0.761455 0.021884
C22   C     C_R   0.487028 0.937287 0.632294 0.014756
C23   C     C_R   0.024986 0.277091 0.480329 -0.122653
C24   C     C_R   0.507515 0.061209 0.632257 0.016277
C25   C     C_R   0.506963 0.127633 0.504120 -0.002829
C26   C     C_R   0.501214 0.063183 0.377741 -0.156554
C27   C     C_R   0.495524 0.935794 0.377746 -0.168665
C28   C     C_R   0.609044 0.500723 0.500422 0.538811
C29   C     C_R   0.489083 0.871073 0.503860 -0.013192
C30   C     C_R   0.574472 0.666426 0.145004 -0.098637
C31   C     C_R   0.610268 0.748732 0.072924 -0.175855
C32   C     C_R   0.610377 0.748416 0.928984 -0.167062
C33   C     C_R   0.574649 0.665878 0.856332 -0.089694
C34   C     C_R   0.057428 0.387103 0.502548 0.029234
C35   C     C_R   0.536595 0.581801 0.925449 0.152239
C36   C     C_R   0.536543 0.581902 0.075234 0.148677
C37   C     C_R   0.465126 0.422350 0.073611 -0.017137
C38   C     C_R   0.465150 0.422362 0.925500 -0.003064
C39   C     C_R   0.882305 0.609639 0.533916 0.400656
C40   C     C_R   0.878023 0.392045 0.491271 0.401596
C41   C     C_R   0.937588 0.388757 0.495388 0.028781
C42   C     C_R   0.969689 0.499433 0.518938 -0.028139
C43   C     C_R   0.941954 0.611009 0.538504 0.029144
C44   C     C_1   0.421718 0.792735 0.767706 0.215069
C45   C     C_R   0.029674 0.498642 0.522275 -0.028147
C46   C     C_3   0.321310 0.608557 0.256099 -0.244870
C47   C     C_3   0.349377 0.735912 0.287204 -0.270694
C48   C     C_3   0.378899 0.789583 0.157903 -0.436832
C49   C     C_R   0.061773 0.609546 0.544389 0.028606
C50   C     C_R   0.033677 0.720179 0.564436 -0.122389
C51   C     C_R   0.974378 0.720888 0.561630 -0.122645
C52   C     C_R   0.117121 0.389025 0.503751 0.401613
Cu1   Cu    Cu3+1 0.500000 0.499990 0.640660 0.934946
Cu2   Cu    Cu3+1 0.500000 0.500010 0.359340 0.909437
H1    H     H_    0.941972 0.191576 0.458737 0.170815
H2    H     H_    0.436589 0.358759 0.128784 0.116140
H3    H     H_    0.045290 0.190145 0.464965 0.168386
H4    H     H_    0.578850 0.673269 0.255069 0.189222
H5    H     H_    0.638507 0.812576 0.129527 0.134168
H6    H     H_    0.638665 0.812052 0.872854 0.136423
H7    H     H_    0.579081 0.672242 0.746351 0.185695
H8    H     H_    0.436663 0.358696 0.869641 0.120487
H9    H     H_    0.057390 0.806621 0.581783 0.170502
H10   H     H_    0.954076 0.807826 0.577072 0.168565
H11   H     H_    0.210023 0.583081 0.313350 0.124421
H12   H     H_    0.679141 0.521486 0.727673 0.130576
H13   H     H_    0.322961 0.418592 0.705450 0.131185
H14   H     H_    0.219259 0.415972 0.718075 0.133066
H15   H     H_    0.783286 0.521670 0.730703 0.129067
H16   H     H_    0.414415 0.730950 0.126699 0.171145
H17   H     H_    0.348229 0.795512 0.069690 0.173514
H18   H     H_    0.396308 0.884060 0.181394 0.135599
H19   H     H_    0.316290 0.799736 0.321397 0.176680
H20   H     H_    0.381150 0.730020 0.372772 0.185710
H21   H     H_    0.351358 0.545709 0.206709 0.175701
H22   H     H_    0.287825 0.621383 0.175356 0.134765
H23   H     H_    0.680372 0.483231 0.277437 0.134150
H24   H     H_    0.784749 0.483013 0.283112 0.129392
H25   H     H_    0.502164 0.110941 0.278172 0.133261
H26   H     H_    0.552421 0.198721 0.764360 0.151153
H27   H     H_    0.530671 0.094358 0.983897 0.114209
H28   H     H_    0.470481 0.903472 0.986606 0.103916
H29   H     H_    0.496258 0.888074 0.278346 0.134397
N1    N     N_R   0.851777 0.501329 0.510356 -0.400409
N2    N     N_R   0.147641 0.497955 0.523403 -0.400200
N3    N     N_R   0.500540 0.501210 0.147910 -0.246512
N4    N     N_R   0.500560 0.501290 0.852040 -0.242114
N5    N     N_1   0.385073 0.718464 0.773774 -0.295407
O1    O     O_R   0.500000 0.319640 0.618810 -0.511736
O2    O     O_R   0.582120 0.500020 0.618760 -0.526541
O3    O     O_R   0.582120 0.500050 0.381190 -0.517409
O4    O     O_2   0.854973 0.715628 0.552021 -0.490421
O5    O     O_2   0.846524 0.286949 0.469253 -0.487951
O6    O     O_2   0.144495 0.283398 0.483526 -0.490711
O7    O     O_2   0.152838 0.712272 0.564956 -0.488501
O8    O     O_R   0.500000 0.319660 0.381240 -0.499732
O9    O     O_R   0.417880 0.499950 0.618810 -0.479044
O10   O     O_R   0.417880 0.499980 0.381240 -0.509440
O11   O     O_R   0.500000 0.680340 0.618760 -0.512423
O12   O     O_R   0.500000 0.680360 0.381190 -0.531750

loop_
_geom_bond_atom_site_label_1
_geom_bond_atom_site_label_2
_ccdc_geom_bond_type
C22   C29   A    
C4    O10   A    
C27   C29   A    
C41   C42   A    
C40   N1    A    
C19   C20   A    
C40   O5    S    
C46   H22   S    
C7    C8    A    
Cu1   Cu2   S    
Cu1   O11   S    
C12   C23   A    
C26   C27   A    
C37   C38   A    
C18   C24   A    
C52   N2    A    
C39   N1    A    
C20   H28   S    
C30   C31   A    
C15   H24   S    
C10   C17   A    
C2    N2    A    
C23   H3    S    
C18   C19   A    
C14   H23   S    
C31   H5    S    
C9    N2    S    
C37   H2    S    
C35   N4    A    
C31   C32   A    
C8    C9    A    
C13   C28   S    
C52   O6    S    
C13   C14   A    
Cu2   O8    S    
C11   H12   S    
C21   C22   A    
C1    C25   S    
C50   H9    S    
Cu2   O12   S    
C3    H11   S    
C48   H18   S    
C46   H21   S    
C37   N3    A    
C24   C25   A    
C47   H19   S    
C4    C6    S    
C19   H27   S    
Cu2   N3    S    
C16   O12   A    
C39   C43   A    
Cu1   O9    S    
C25   C26   A    
C42   C45   A    
C12   C41   A    
C3    C9    A    
C2    C49   A    
C21   C44   S    
C47   C48   S    
C45   C49   A    
C23   C34   A    
C50   C51   A    
Cu1   N4    S    
C34   C45   A    
C33   H7    S    
C40   C41   A    
C8    H14   S    
Cu1   O1    S    
C22   C24   A    
C42   C43   A    
C32   H6    S    
C48   H17   S    
C39   O4    S    
C15   C17   A    
C46   C47   S    
C2    O7    S    
C1    O1    A    
C51   H10   S    
C47   H20   S    
C48   H16   S    
C3    C5    A    
C16   O11   A    
C6    C7    A    
C5    C46   S    
C34   C52   A    
C26   H25   S    
C30   C36   A    
C38   N4    A    
C17   N1    S    
C36   N3    A    
C32   C33   A    
C27   H29   S    
C16   C29   S    
Cu2   O3    S    
C44   N5    T    
C11   C13   A    
C43   C51   A    
C5    C6    A    
C1    O8    A    
C30   H4    S    
C33   C35   A    
C28   O3    A    
C12   H1    S    
C10   C11   A    
C7    H13   S    
C10   H15   S    
C20   C21   A    
C18   H26   S    
C49   C50   A    
Cu1   O2    S    
C14   C15   A    
Cu2   O10   S    
C28   O2    A    
C35   C36   A    
C4    O9    A    
C38   H8    S    
