data_mof_unit_25271.cif
_audit_creation_date              2012-12-10T18:19:52-0500
_audit_creation_method            fapswitch 2.2
_symmetry_space_group_name_H-M    P1
_symmetry_Int_Tables_number       1
_space_group_crystal_system       triclinic
_cell_length_a                    10.76831
_cell_length_b                    10.762871
_cell_length_c                    9.396701
_cell_angle_alpha                 90.340716
_cell_angle_beta                  89.711777
_cell_angle_gamma                 92.073776
_cell_volume                      1088.3130637

loop_
_atom_site_label
_atom_site_type_symbol
_atom_type_description
_atom_site_fract_x
_atom_site_fract_y
_atom_site_fract_z
_atom_type_partial_charge
C1    C     C_R   0.500974 0.259534 0.499191 0.811959
C2    C     C_R   0.497610 0.740688 0.500233 0.807821
C3    C     C_3   0.461447 0.961132 0.626413 0.143546
C4    C     C_3   0.533224 0.040895 0.367990 0.175310
C5    C     C_3   0.472328 0.607846 0.051284 -0.039164
C6    C     C_3   0.527673 0.392176 0.948745 -0.037010
C7    C     C_3   0.391994 0.526538 0.950206 -0.043166
C8    C     C_3   0.607965 0.473490 0.049804 -0.043730
C9    C     C_3   0.580457 0.581294 0.949490 -0.042606
C10   C     C_3   0.419525 0.418710 0.050540 -0.041651
C11   C     C_R   0.259465 0.495199 0.499638 0.801045
C12   C     C_R   0.740900 0.500734 0.500655 0.782729
C13   C     C_3   0.040162 0.424864 0.607594 -0.220738
C14   C     C_3   0.962283 0.569899 0.394917 -0.249882
C15   C     C_3   0.952023 0.381576 0.485047 0.176198
C16   C     C_3   0.049286 0.612137 0.518330 0.164281
C17   C     C_3   0.878192 0.499865 0.504074 -0.126127
C18   C     C_3   0.122894 0.494325 0.497675 -0.156660
C19   C     C_3   0.964630 0.542840 0.627212 0.190682
C20   C     C_3   0.036280 0.450606 0.375505 0.151643
C21   C     C_3   0.577360 0.046012 0.596823 -0.308185
C22   C     C_3   0.417352 0.954926 0.397631 -0.244779
C23   C     C_3   0.611538 0.962997 0.467805 0.182090
C24   C     C_3   0.383984 0.038951 0.525759 0.195549
C25   C     C_3   0.496988 0.877776 0.499590 -0.112128
C26   C     C_3   0.499107 0.122775 0.496199 -0.112136
Cu1   Cu    Cu3+1 0.500030 0.499990 0.643150 0.919031
Cu2   Cu    Cu3+1 0.499970 0.500010 0.356850 0.913602
H1    H     H_    0.077869 0.369065 0.695317 0.147577
H2    H     H_    0.931903 0.626894 0.304800 0.152547
H3    H     H_    0.638363 0.085181 0.681765 0.153896
H4    H     H_    0.351716 0.915736 0.316914 0.141915
H5    H     H_    0.647725 0.649920 0.901899 0.102950
H6    H     H_    0.352156 0.350209 0.098247 0.100488
N1    N     N_3   0.500090 0.499970 0.858290 -0.153512
N2    N     N_3   0.499910 0.500030 0.141710 -0.152594
O1    O     O_R   0.500060 0.316850 0.620870 -0.580942
O2    O     O_R   0.499940 0.683150 0.379130 -0.583715
O3    O     O_R   0.500000 0.316860 0.379090 -0.604290
O4    O     O_R   0.500000 0.683140 0.620910 -0.596986
O5    O     O_R   0.316880 0.499960 0.620870 -0.586573
O6    O     O_R   0.683120 0.500040 0.379130 -0.584306
O7    O     O_R   0.316830 0.499970 0.379090 -0.589880
O8    O     O_R   0.683170 0.500030 0.620910 -0.588079
C27   C     C_3   0.889515 0.251161 0.479159 -0.410694
C28   C     C_3   0.890779 0.190508 0.625925 -0.876601
H7    H     H_    0.841699 0.099587 0.623691 0.237249
H8    H     H_    0.987415 0.173703 0.659298 0.251808
H9    H     H_    0.844737 0.250028 0.705963 0.256272
H10   H     H_    0.792018 0.257254 0.442834 0.192090
H11   H     H_    0.937432 0.191821 0.401179 0.199641
C29   C     C_3   0.113689 0.740769 0.531620 -0.374354
C30   C     C_3   0.024120 0.838497 0.581583 -0.866833
H12   H     H_    0.018609 0.913561 0.501595 0.256293
H13   H     H_    0.930529 0.796488 0.597672 0.258815
H14   H     H_    0.054241 0.879056 0.685202 0.234522
H15   H     H_    0.191493 0.736109 0.608189 0.188076
H16   H     H_    0.154238 0.767372 0.426679 0.189038
C31   C     C_3   0.918900 0.584384 0.774364 -0.366099
C32   C     C_3   0.026055 0.616416 0.875140 -0.873622
H17   H     H_    0.081448 0.533154 0.893269 0.249098
H18   H     H_    0.087346 0.691952 0.831634 0.262923
H19   H     H_    0.988540 0.648021 0.978952 0.237403
H20   H     H_    0.858901 0.665345 0.764286 0.191292
H21   H     H_    0.861416 0.507262 0.821724 0.206498
C33   C     C_3   0.077260 0.405886 0.227909 -0.391616
C34   C     C_3   0.966577 0.375273 0.131719 -0.880261
H22   H     H_    0.904218 0.302512 0.179643 0.249414
H23   H     H_    0.913558 0.460021 0.113496 0.254618
H24   H     H_    0.000092 0.340579 0.027370 0.241814
H25   H     H_    0.136063 0.480354 0.177308 0.213416
H26   H     H_    0.133677 0.322734 0.237299 0.201898
C35   C     C_3   0.745130 0.930115 0.439617 -0.433363
C36   C     C_3   0.759249 0.814574 0.348156 -0.812990
H27   H     H_    0.686195 0.803734 0.266290 0.271700
H28   H     H_    0.851231 0.819762 0.294433 0.227991
H29   H     H_    0.754175 0.732345 0.417480 0.246974
H30   H     H_    0.794665 0.010252 0.388429 0.214452
H31   H     H_    0.786156 0.914314 0.544515 0.193461
C37   C     C_3   0.258915 0.094433 0.555254 -0.408054
C38   C     C_3   0.204200 0.143715 0.419185 -0.896817
H32   H     H_    0.276332 0.190626 0.351639 0.253812
H33   H     H_    0.157704 0.067274 0.357317 0.249946
H34   H     H_    0.136684 0.213350 0.449032 0.257609
H35   H     H_    0.195275 0.023448 0.602134 0.217691
H36   H     H_    0.271208 0.171847 0.633273 0.204953
C39   C     C_3   0.422103 0.912731 0.773779 -0.372793
C40   C     C_3   0.374033 0.014917 0.870718 -0.889171
H37   H     H_    0.436998 0.098771 0.867705 0.258827
H38   H     H_    0.279460 0.040436 0.838882 0.241024
H39   H     H_    0.367442 0.980439 0.981653 0.248255
H40   H     H_    0.348034 0.839052 0.761710 0.198388
H41   H     H_    0.503571 0.870986 0.824535 0.208914
C41   C     C_3   0.568919 0.097671 0.222784 -0.366875
C42   C     C_3   0.614564 0.003833 0.114381 -0.889425
H42   H     H_    0.711835 0.980873 0.137179 0.262088
H43   H     H_    0.553524 0.918501 0.113316 0.255147
H44   H     H_    0.615037 0.045921 0.006908 0.244693
H45   H     H_    0.485963 0.142063 0.178732 0.207236
H46   H     H_    0.643235 0.170794 0.237948 0.199131
H47   H     H_    0.301722 0.550141 0.903316 0.116482
H48   H     H_    0.698032 0.449712 0.096817 0.118996
H49   H     H_    0.448346 0.698551 0.098904 0.111087
H50   H     H_    0.552359 0.301703 0.901161 0.112515

loop_
_geom_bond_atom_site_label_1
_geom_bond_atom_site_label_2
_ccdc_geom_bond_type
C7    C10   S    
C21   C26   S    
C5    H49   S    
C11   C18   S    
C35   C36   S    
C42   H42   S    
C39   C40   S    
C38   H32   S    
C42   H44   S    
C30   H12   S    
C21   H3    S    
C28   H9    S    
C31   H20   S    
C36   H28   S    
C13   C18   S    
C32   H19   S    
C41   H45   S    
C20   C33   S    
C23   C35   S    
C27   H11   S    
C5    N2    S    
C6    N1    S    
C32   H18   S    
C8    N2    S    
C2    O2    A    
C37   H36   S    
Cu1   O8    S    
C24   C37   S    
C33   H26   S    
C8    C9    S    
C22   C25   S    
C12   C17   S    
C12   O6    A    
C35   H30   S    
C11   O7    A    
C6    H50   S    
C22   H4    S    
C18   C20   S    
C1    O1    A    
C33   C34   S    
C31   C32   S    
C39   H40   S    
C9    H5    S    
C14   C17   S    
C3    C24   S    
C14   H2    S    
C38   H33   S    
C30   H13   S    
C15   C20   S    
C28   H8    S    
C36   H27   S    
C13   C19   S    
C3    C39   S    
C34   H22   S    
C14   C20   S    
C3    C25   S    
C5    C7    S    
C4    C23   S    
C6    C8    S    
Cu2   O3    S    
Cu1   N1    S    
C27   C28   S    
C36   H29   S    
C32   H17   S    
C34   H23   S    
C5    C9    S    
C37   H35   S    
C4    C22   S    
Cu1   O5    S    
C33   H25   S    
C40   H39   S    
C41   H46   S    
Cu1   O4    S    
C35   H31   S    
C10   H6    S    
C29   H16   S    
C4    C41   S    
C40   H38   S    
C21   C23   S    
C1    C26   S    
C14   C16   S    
C3    C21   S    
C15   C27   S    
C38   H34   S    
C29   C30   S    
C30   H14   S    
C13   H1    S    
C15   C17   S    
C28   H7    S    
C7    N1    S    
C16   C29   S    
C24   C26   S    
C37   C38   S    
C6    C10   S    
C4    C26   S    
C42   H43   S    
Cu2   O7    S    
C34   H24   S    
C19   C31   S    
C13   C15   S    
C12   O8    A    
C31   H21   S    
C27   H10   S    
Cu1   O1    S    
C16   C19   S    
C39   H41   S    
Cu2   O6    S    
C17   C19   S    
C11   O5    A    
C2    C25   S    
C22   C24   S    
C23   C25   S    
C41   C42   S    
C29   H15   S    
C1    O3    A    
C2    O4    A    
C40   H37   S    
Cu2   N2    S    
C16   C18   S    
C7    H47   S    
Cu1   Cu2   S    
C9    N1    S    
C10   N2    S    
Cu2   O2    S    
C8    H48   S    
