data_mof_unit_66641.cif
_audit_creation_date              2012-12-10T19:24:58-0500
_audit_creation_method            fapswitch 2.2
_symmetry_space_group_name_H-M    P1
_symmetry_Int_Tables_number       1
_space_group_crystal_system       triclinic
_cell_length_a                    15.727117
_cell_length_b                    11.017435
_cell_length_c                    10.150458
_cell_angle_alpha                 89.035106
_cell_angle_beta                  90.240313
_cell_angle_gamma                 90.376945
_cell_volume                      1758.49300645

loop_
_atom_site_label
_atom_site_type_symbol
_atom_type_description
_atom_site_fract_x
_atom_site_fract_y
_atom_site_fract_z
_atom_type_partial_charge
C1    C     C_R   0.503533 0.258049 0.501899 1.021321
C2    C     C_3   0.468429 0.597718 0.950805 0.267634
C3    C     C_3   0.575781 0.488907 0.952472 0.242172
C4    C     C_3   0.424023 0.510082 0.046520 0.237709
C5    C     C_3   0.454725 0.411989 0.952015 0.294022
C6    C     C_3   0.544580 0.587087 0.045666 0.281301
C7    C     C_R   0.339197 0.502943 0.499684 0.908056
C8    C     C_R   0.660825 0.499550 0.500259 0.916611
C9    C     C_3   0.976660 0.436674 0.599840 0.318519
C10   C     C_3   0.023404 0.609903 0.424296 0.265082
C11   C     C_3   0.032683 0.416590 0.478288 0.326603
C12   C     C_R   0.498764 0.742354 0.499157 1.007581
C13   C     C_3   0.967462 0.629612 0.547050 0.303448
C14   C     C_1   0.250646 0.515973 0.499464 -0.047379
C15   C     C_1   0.749762 0.503769 0.501502 -0.035618
C16   C     C_3   0.028555 0.551407 0.632454 0.332702
C17   C     C_3   0.972976 0.494487 0.391318 0.259270
C18   C     C_3   0.084749 0.531667 0.509845 -0.253364
C19   C     C_3   0.915854 0.514613 0.513121 -0.260690
C20   C     C_1   0.175705 0.526572 0.502321 0.092106
C21   C     C_1   0.824972 0.509016 0.505757 0.067176
C22   C     C_3   0.521899 0.034470 0.628654 0.245212
C23   C     C_3   0.578978 0.953963 0.543282 0.213250
C24   C     C_3   0.487233 0.968456 0.379143 0.246199
C25   C     C_3   0.012312 0.216851 0.419775 0.079127
C26   C     C_3   0.054141 0.112964 0.348697 -0.725505
C27   C     C_3   0.990924 0.819294 0.633172 0.129410
C28   C     C_3   0.958032 0.947909 0.635621 -0.878137
C29   C     C_3   0.879758 0.304980 0.700325 0.142869
C30   C     C_3   0.870099 0.206121 0.805985 -0.718431
C31   C     C_3   0.979378 0.766513 0.286484 0.154581
C32   C     C_3   0.999706 0.827935 0.155122 -0.871401
C33   C     C_3   0.005978 0.457427 0.174278 0.115728
C34   C     C_3   0.429370 0.046138 0.465529 0.168073
C35   C     C_3   0.974514 0.393044 0.052252 -0.726654
C36   C     C_3   0.130684 0.628007 0.775464 0.070655
C37   C     C_3   0.138346 0.696042 0.904507 -0.700471
C38   C     C_3   0.338479 0.993255 0.741892 0.279525
C39   C     C_3   0.242627 0.970769 0.742139 -0.828607
C40   C     C_3   0.691734 0.034961 0.299281 0.234648
C41   C     C_3   0.777804 0.099874 0.300744 -0.868390
C42   C     C_3   0.365585 0.242510 0.978913 0.288529
C43   C     C_3   0.270818 0.220999 0.956375 -0.788211
C44   C     C_3   0.673275 0.655892 0.126973 0.221990
C45   C     C_3   0.500071 0.879587 0.498540 -0.410269
C46   C     C_3   0.708081 0.742823 0.226174 -0.810431
C47   C     C_3   0.507426 0.121281 0.507949 -0.369585
C48   C     C_3   0.443278 0.960227 0.584640 0.284090
C49   C     C_3   0.566513 0.041907 0.424195 0.304709
C50   C     C_3   0.530650 0.400072 0.048694 0.180118
H1    H     H_    0.958228 0.249046 0.357809 0.168348
H2    H     H_    0.009413 0.009416 0.670138 0.221609
H3    H     H_    0.861865 0.266663 0.603195 0.125572
H4    H     H_    0.836316 0.379852 0.725457 0.200856
H5    H     H_    0.859646 0.247270 0.903405 0.249847
H6    H     H_    0.927890 0.149089 0.811482 0.239247
H7    H     H_    0.814665 0.147460 0.783548 0.283874
H8    H     H_    0.964605 0.838205 0.357805 0.173825
H9    H     H_    0.921488 0.709271 0.272094 0.169570
H10   H     H_    0.000499 0.759242 0.076761 0.256207
H11   H     H_    0.949796 0.895457 0.130083 0.208488
H12   H     H_    0.987595 0.182053 0.515211 0.174972
H13   H     H_    0.062320 0.874952 0.159802 0.289716
H14   H     H_    0.062260 0.407092 0.212433 0.170631
H15   H     H_    0.025999 0.550386 0.144715 0.192739
H16   H     H_    0.919939 0.442794 0.008055 0.294964
H17   H     H_    0.026342 0.389075 0.978472 0.258402
H18   H     H_    0.954515 0.299069 0.079304 0.232585
H19   H     H_    0.145731 0.693534 0.694170 0.109108
H20   H     H_    0.177347 0.553075 0.774674 0.212969
H21   H     H_    0.098117 0.778124 0.902263 0.199919
H22   H     H_    0.204836 0.726199 0.920534 0.277261
H23   H     H_    0.101212 0.067966 0.414645 0.301818
H24   H     H_    0.118973 0.636363 0.988196 0.283588
H25   H     H_    0.793511 0.947891 0.537111 0.369266
H26   H     H_    0.275619 0.927833 0.434571 0.370861
H27   H     H_    0.639500 0.989112 0.925399 0.393599
H28   H     H_    0.336878 0.983407 0.136947 0.395426
H29   H     H_    0.352612 0.089690 0.716908 0.150783
H30   H     H_    0.363271 0.977801 0.842780 0.214065
H31   H     H_    0.229488 0.872103 0.748777 0.270365
H32   H     H_    0.212098 0.013881 0.827236 0.205119
H33   H     H_    0.213269 0.006508 0.650057 0.280397
H34   H     H_    0.004983 0.045815 0.320091 0.177467
H35   H     H_    0.673239 0.017521 0.195780 0.191682
H36   H     H_    0.700097 0.948525 0.352545 0.145807
H37   H     H_    0.795227 0.125613 0.402597 0.265263
H38   H     H_    0.827542 0.039111 0.261925 0.186116
H39   H     H_    0.776468 0.183862 0.239465 0.285185
H40   H     H_    0.777733 0.581756 0.798709 0.372236
H41   H     H_    0.226374 0.413890 0.218300 0.373723
H42   H     H_    0.706038 0.202482 0.044845 0.361721
H43   H     H_    0.316500 0.626465 0.796077 0.360391
H44   H     H_    0.377388 0.262730 0.083554 0.231642
H45   H     H_    0.086472 0.147332 0.258259 0.270537
H46   H     H_    0.398092 0.156985 0.957209 0.209281
H47   H     H_    0.256900 0.216726 0.849323 0.262576
H48   H     H_    0.251109 0.134850 0.005867 0.208456
H49   H     H_    0.232001 0.293968 0.997907 0.301656
H50   H     H_    0.714562 0.664917 0.039487 0.216376
H51   H     H_    0.677503 0.563094 0.170616 0.200192
H52   H     H_    0.655998 0.765891 0.293939 0.299847
H53   H     H_    0.761522 0.700995 0.282051 0.231159
H54   H     H_    0.732107 0.825269 0.174079 0.210772
H55   H     H_    0.050626 0.820374 0.574305 0.147720
H56   H     H_    0.004009 0.793031 0.736619 0.198524
H57   H     H_    0.903971 0.952811 0.705023 0.298712
H58   H     H_    0.937846 0.977382 0.535494 0.239618
N1    N     N_3   0.499940 0.500030 0.863290 -0.204287
N2    N     N_3   0.500060 0.499970 0.136710 -0.237154
O1    O     O_R   0.500000 0.313960 0.616610 -0.558913
O2    O     O_3   0.928749 0.740259 0.581131 -0.570578
O3    O     O_3   0.964320 0.346953 0.699351 -0.592538
O4    O     O_3   0.050369 0.699082 0.331617 -0.588383
O5    O     O_3   0.939565 0.462293 0.267231 -0.602038
O6    O     O_3   0.048378 0.578114 0.764883 -0.591251
O7    O     O_2   0.658907 0.830586 0.741962 -0.156833
O8    O     O_2   0.695085 0.773045 0.520653 -0.395806
O9    O     O_3   0.754804 0.977021 0.605981 -0.544738
O10   O     O_2   0.291390 0.183468 0.526950 -0.323173
O11   O     O_2   0.341335 0.192166 0.302090 -0.206508
O12   O     O_R   0.500000 0.686040 0.383390 -0.578162
O13   O     O_3   0.260210 0.998214 0.377661 -0.537762
O14   O     O_2   0.655386 0.136622 0.739196 -0.235524
O15   O     O_2   0.518663 0.192637 0.826731 -0.240315
O16   O     O_3   0.579066 0.986272 0.897732 -0.386855
O17   O     O_2   0.534030 0.902380 0.138347 -0.182221
O18   O     O_2   0.407203 0.804748 0.232791 -0.221858
O19   O     O_3   0.393754 0.022047 0.142838 -0.500062
O20   O     O_3   0.375730 0.909021 0.656979 -0.537793
O21   O     O_3   0.630343 0.108792 0.356959 -0.512445
O22   O     O_2   0.742570 0.437646 0.001220 -0.381437
O23   O     O_R   0.500040 0.313950 0.383350 -0.519464
O24   O     O_2   0.681654 0.363088 0.797753 -0.220865
O25   O     O_3   0.715940 0.593501 0.811423 -0.507379
O26   O     O_2   0.297938 0.635297 0.169166 -0.208804
O27   O     O_2   0.259560 0.511645 0.980872 -0.395530
O28   O     O_3   0.287789 0.402950 0.201177 -0.520310
O29   O     O_2   0.640730 0.317021 0.226301 -0.277864
O30   O     O_2   0.523024 0.181529 0.164483 -0.205717
O31   O     O_3   0.649062 0.208773 0.004071 -0.441080
O32   O     O_2   0.366776 0.791252 0.985614 -0.249467
O33   O     O_2   0.486725 0.810971 0.835249 -0.156089
O34   O     O_R   0.499960 0.686050 0.616650 -0.507604
O35   O     O_3   0.353606 0.691033 0.759904 -0.526867
O36   O     O_3   0.395836 0.332845 0.891089 -0.558423
O37   O     O_3   0.589329 0.688274 0.093292 -0.513504
O38   O     O_R   0.376760 0.499990 0.616610 -0.605210
O39   O     O_R   0.623240 0.500010 0.383390 -0.623816
O40   O     O_R   0.376790 0.499980 0.383350 -0.527910
O41   O     O_R   0.623210 0.500020 0.616650 -0.523852
O42   O     O_3   0.073363 0.308411 0.441954 -0.557263
S1    S     S_3+6 0.673115 0.878648 0.604754 0.072084
S2    S     S_3+6 0.328487 0.109639 0.418618 0.060242
S3    S     S_3+6 0.568813 0.089903 0.776095 0.146420
S4    S     S_3+6 0.456313 0.920952 0.219550 0.161158
S5    S     S_3+6 0.681927 0.467098 0.890612 0.038992
S6    S     S_3+6 0.315060 0.518712 0.100377 0.052967
S7    S     S_3+6 0.586074 0.273369 0.115214 0.134236
S8    S     S_3+6 0.418314 0.727970 0.884519 0.150779
Zn1   Zn    Zn3+2 0.499980 0.500010 0.655740 1.176239
Zn2   Zn    Zn3+2 0.500020 0.499990 0.344260 1.141001

loop_
_geom_bond_atom_site_label_1
_geom_bond_atom_site_label_2
_ccdc_geom_bond_type
C22   C48   S    
C37   H24   S    
C2    N1    S    
C23   C45   S    
C11   C18   S    
O34   Zn1   S    
C44   H50   S    
C41   H39   S    
O1    Zn1   S    
C43   H48   S    
C3    C6    S    
O23   Zn2   S    
C26   H23   S    
N2    Zn2   S    
C33   H15   S    
O33   S8    D    
C47   C49   S    
C46   H52   S    
C29   H3    S    
O27   S6    D    
C25   O42   S    
O25   S5    S    
O38   Zn1   S    
C38   O20   S    
C31   H8    S    
C36   C37   S    
C19   C21   S    
H28   O19   S    
C43   H49   S    
C32   H11   S    
C13   O2    S    
O30   S7    D    
C38   C39   S    
C23   C49   S    
O31   S7    S    
C38   H29   S    
C27   H55   S    
C10   C17   S    
C40   H36   S    
H41   O28   S    
C30   H7    S    
C50   N2    S    
C44   O37   S    
O8    S1    D    
C31   H9    S    
C4    N2    S    
C17   C19   S    
C9    C19   S    
C7    C14   S    
C4    S6    S    
C36   H20   S    
O41   Zn1   S    
H43   O35   S    
C31   O4    S    
C10   O4    S    
O26   S6    D    
O16   S3    S    
C22   C47   S    
O29   S7    D    
O9    S1    S    
C6    N2    S    
C48   O20   S    
C2    C6    S    
C1    O23   A    
C16   O6    S    
C3    C50   S    
C44   C46   S    
C22   S3    S    
C34   S2    S    
C10   C18   S    
O40   Zn2   S    
C6    O37   S    
C33   O5    S    
O11   S2    D    
C13   C19   S    
C14   C20   T    
C8    O41   A    
H25   O9    S    
C39   H31   S    
O35   S8    S    
C46   H54   S    
C1    C47   S    
C35   H16   S    
C25   C26   S    
C30   H6    S    
C24   C34   S    
C12   O34   A    
C40   H35   S    
C2    C4    S    
C25   H1    S    
C29   C30   S    
C7    O40   A    
C49   O21   S    
O28   S6    S    
C31   C32   S    
C35   H17   S    
O10   S2    D    
H42   O31   S    
C9    C11   S    
C16   C18   S    
C40   C41   S    
C40   O21   S    
C27   O2    S    
C8    C15   S    
C37   H21   S    
O7    S1    D    
C42   H46   S    
C5    C50   S    
O14   S3    D    
C34   C48   S    
C42   C43   S    
C32   H10   S    
C42   O36   S    
C24   C45   S    
C36   H19   S    
C17   O5    S    
C7    O38   A    
C30   H5    S    
C45   C48   S    
C26   H45   S    
C41   H38   S    
C29   O3    S    
C11   C17   S    
C26   H34   S    
C5    O36   S    
C42   H44   S    
H26   O13   S    
C9    C16   S    
C43   H47   S    
C39   H32   S    
O32   S8    D    
C12   C45   S    
C10   C13   S    
O17   S4    D    
O19   S4    S    
C44   H51   S    
O39   Zn2   S    
C50   S7    S    
C32   H13   S    
C46   H53   S    
O22   S5    D    
O12   Zn2   S    
C9    O3    S    
C23   S1    S    
C8    O39   A    
C13   C16   S    
C39   H33   S    
N1    Zn1   S    
C41   H37   S    
H40   O25   S    
C28   H2    S    
C15   C21   T    
C5    N1    S    
C35   H18   S    
C3    N1    S    
C33   H14   S    
C24   C49   S    
C33   C35   S    
C27   H56   S    
C18   C20   S    
C25   H12   S    
C28   H58   S    
O18   S4    D    
C24   S4    S    
C11   O42   S    
C4    C5    S    
O24   S5    D    
C12   O12   A    
C38   H30   S    
C2    S8    S    
C29   H4    S    
C37   H22   S    
C27   C28   S    
C3    S5    S    
C22   C23   S    
C34   C47   S    
C28   H57   S    
C1    O1    A    
H27   O16   S    
O15   S3    D    
O13   S2    S    
C36   O6    S    
