data_mof_unit_11923.cif
_audit_creation_date              2012-12-11T15:07:38-0500
_audit_creation_method            fapswitch 2.2
_symmetry_space_group_name_H-M    P1
_symmetry_Int_Tables_number       1
_space_group_crystal_system       triclinic
_cell_length_a                    21.630785
_cell_length_b                    7.207675
_cell_length_c                    18.616238
_cell_angle_alpha                 89.999449
_cell_angle_beta                  95.990379
_cell_angle_gamma                 89.999085
_cell_volume                      2886.56543221

loop_
_atom_site_label
_atom_site_type_symbol
_atom_type_description
_atom_site_fract_x
_atom_site_fract_y
_atom_site_fract_z
_atom_type_partial_charge
O1    O     O_R   0.449650 0.506500 0.414480 -0.531368
O2    O     O_R   0.550350 0.006500 0.585520 -0.531372
O3    O     O_R   0.432010 0.173150 0.560250 -0.540197
O4    O     O_R   0.567990 0.673150 0.439750 -0.540196
C1    C     C_R   0.415983 0.344706 0.580908 0.684389
C2    C     C_R   0.584017 0.844705 0.419092 0.684387
O5    O     O_R   0.442320 0.176650 0.413480 -0.535284
O6    O     O_R   0.557680 0.676650 0.586520 -0.535282
O7    O     O_R   0.560730 0.008380 0.437700 -0.536828
O8    O     O_R   0.439270 0.508380 0.562300 -0.536826
C3    C     C_R   0.428581 0.345141 0.387551 0.674478
C4    C     C_R   0.571419 0.845137 0.612449 0.674477
O9    O     O_3   0.538840 0.339860 0.508120 -0.371570
O10   O     O_3   0.461160 0.839860 0.491880 -0.371568
V1    V     V_3+5 0.492800 0.064220 0.498490 1.419530
V2    V     V_3+5 0.507200 0.564220 0.501510 1.419541
C5    C     C_R   0.872356 0.961024 0.689206 -0.166154
C6    C     C_R   0.127631 0.460794 0.310801 -0.166160
H1    H     H_    0.960453 0.988793 0.752637 0.101588
H2    H     H_    0.039534 0.488560 0.247369 0.101582
H3    H     H_    0.790813 0.946654 0.572725 0.132509
H4    H     H_    0.209170 0.446306 0.427285 0.132496
H5    H     H_    0.892807 0.979930 0.639002 0.116391
H6    H     H_    0.107175 0.479591 0.361007 0.116388
C7    C     C_R   0.886518 0.940938 0.819632 -0.032871
C8    C     C_R   0.113479 0.440915 0.180369 -0.032865
C9    C     C_R   0.585161 0.827354 0.745103 -0.160899
C10   C     C_R   0.414846 0.327511 0.254895 -0.160902
C11   C     C_R   0.621045 0.829921 0.811543 -0.120173
C12   C     C_R   0.378965 0.330141 0.188453 -0.120172
C13   C     C_R   0.685141 0.856588 0.815622 -0.158141
C14   C     C_R   0.314866 0.356749 0.184375 -0.158139
C15   C     C_R   0.715441 0.881624 0.752550 0.076633
C16   C     C_R   0.284559 0.381656 0.247451 0.076631
C17   C     C_R   0.678076 0.879585 0.684220 0.070735
C18   C     C_R   0.321921 0.379541 0.315783 0.070728
C19   C     C_R   0.781443 0.908373 0.755016 0.073823
C20   C     C_R   0.218555 0.408351 0.244985 0.073827
C21   C     C_R   0.808097 0.932835 0.689018 0.142434
C22   C     C_R   0.191894 0.432673 0.310986 0.142425
C23   C     C_R   0.770611 0.929298 0.623089 -0.210367
C24   C     C_R   0.229377 0.429060 0.376918 -0.210368
C25   C     C_R   0.706787 0.903281 0.620591 -0.191966
C26   C     C_R   0.293203 0.403105 0.379415 -0.191947
C27   C     C_R   0.822211 0.912029 0.820351 -0.214403
C28   C     C_R   0.177791 0.412080 0.179648 -0.214398
C29   C     C_R   0.911063 0.965882 0.753876 -0.166265
C30   C     C_R   0.088927 0.465715 0.246128 -0.166262
C31   C     C_R   0.612636 0.852381 0.681107 -0.077538
C32   C     C_R   0.387365 0.352405 0.318893 -0.077531
H7    H     H_    0.805641 0.894190 0.872526 0.093397
H8    H     H_    0.194366 0.394344 0.127471 0.093390
H9    H     H_    0.535452 0.805667 0.743555 0.100275
H10   H     H_    0.464558 0.305883 0.256441 0.100272
H11   H     H_    0.709612 0.856642 0.869045 0.108109
H12   H     H_    0.290398 0.356861 0.130951 0.108109
H13   H     H_    0.598935 0.810663 0.860574 0.118034
H14   H     H_    0.401079 0.310985 0.139420 0.118034
H15   H     H_    0.680023 0.901758 0.568079 0.109427
H16   H     H_    0.319965 0.401520 0.431928 0.109410
C33   C     C_R   0.637946 0.017633 0.326580 -0.191856
C34   C     C_R   0.362053 0.517633 0.673420 -0.191875
C35   C     C_R   0.633478 0.857506 0.369213 -0.103908
C36   C     C_R   0.366522 0.357508 0.630786 -0.103899
C37   C     C_R   0.676493 0.712725 0.364028 -0.202344
C38   C     C_R   0.323508 0.212730 0.635971 -0.202375
C39   C     C_R   0.723911 0.727557 0.317657 0.007236
C40   C     C_R   0.276089 0.227565 0.682340 0.007223
C41   C     C_R   0.727562 0.889348 0.275155 -0.024844
C42   C     C_R   0.272436 0.389353 0.724841 -0.024806
C43   C     C_R   0.684173 0.033924 0.279457 0.122890
C44   C     C_R   0.315825 0.533925 0.720541 0.122898
C45   C     C_R   0.767785 0.584222 0.312901 0.393762
C46   C     C_R   0.232215 0.084232 0.687095 0.393757
C47   C     C_R   0.812723 0.600231 0.263653 -0.291985
C48   C     C_R   0.187273 0.100245 0.736337 -0.291954
C49   C     C_R   0.816836 0.760821 0.221972 0.034939
C50   C     C_R   0.183159 0.260830 0.778020 0.034917
C51   C     C_R   0.774328 0.906428 0.227779 0.045498
C52   C     C_R   0.225668 0.406432 0.772216 0.045485
C53   C     C_R   0.778019 0.068208 0.185490 0.105852
C54   C     C_R   0.221978 0.568206 0.814508 0.105843
C55   C     C_R   0.734259 0.210139 0.190099 -0.172878
C56   C     C_R   0.265738 0.710133 0.809901 -0.172871
C57   C     C_R   0.687571 0.192692 0.236316 -0.111968
C58   C     C_R   0.312427 0.692687 0.763685 -0.111955
C59   C     C_R   0.862477 0.776907 0.173978 -0.185072
C60   C     C_R   0.137518 0.276915 0.826015 -0.185073
C61   C     C_R   0.867155 0.938349 0.132051 -0.081542
C62   C     C_R   0.132842 0.438349 0.867946 -0.081539
C63   C     C_R   0.824839 0.084238 0.138680 -0.228551
C64   C     C_R   0.175159 0.584233 0.861318 -0.228549
H17   H     H_    0.604864 0.129755 0.329340 0.125917
H18   H     H_    0.395135 0.629752 0.670660 0.125918
H19   H     H_    0.673505 0.589829 0.396994 0.166236
H20   H     H_    0.326496 0.089835 0.603005 0.166226
H21   H     H_    0.844052 0.485295 0.257443 0.139277
H22   H     H_    0.155940 0.985314 0.742539 0.139299
H23   H     H_    0.894917 0.663633 0.169951 0.125749
H24   H     H_    0.105077 0.163645 0.830040 0.125746
H25   H     H_    0.827516 0.208664 0.106439 0.128240
H26   H     H_    0.172483 0.708654 0.893562 0.128241
H27   H     H_    0.736079 0.334849 0.157882 0.123508
H28   H     H_    0.263918 0.834839 0.842120 0.123507
H29   H     H_    0.654477 0.304753 0.238941 0.118963
H30   H     H_    0.345522 0.804744 0.761061 0.118964
O11   O     O_R   0.060820 0.290050 0.937800 -0.539741
O12   O     O_R   0.939180 0.790050 0.062200 -0.539743
O13   O     O_R   0.057690 0.616620 0.086540 -0.536400
O14   O     O_R   0.942310 0.116620 0.913460 -0.536401
C65   C     C_R   0.071554 0.448650 0.112511 0.683789
C66   C     C_R   0.928445 0.948654 0.887489 0.683789
O15   O     O_R   0.068010 0.619890 0.939770 -0.540353
O16   O     O_R   0.931990 0.119890 0.060230 -0.540354
O17   O     O_R   0.949640 0.787940 0.914460 -0.532087
O18   O     O_R   0.050360 0.287940 0.085540 -0.532085
C67   C     C_R   0.084033 0.451051 0.918619 0.694133
C68   C     C_R   0.915966 0.951051 0.081380 0.694134
O19   O     O_3   0.961210 0.453080 0.991940 -0.373452
O20   O     O_3   0.038790 0.953080 0.008060 -0.373450
V3    V     V_3+5 0.007200 0.728820 0.001500 1.408985
V4    V     V_3+5 0.992800 0.228820 0.998500 1.408988
O21   O     O_3   0.761968 0.419458 0.349833 -0.572616
C69   C     C_3   0.812975 0.396287 0.402945 0.074003
H31   H     H_    0.806135 0.484588 0.450527 0.121076
H32   H     H_    0.858238 0.433338 0.383052 0.110890
C70   C     C_3   0.816194 0.192709 0.425999 -0.262724
H33   H     H_    0.772525 0.153412 0.448806 0.196919
H34   H     H_    0.820868 0.104367 0.377904 0.202688
C71   C     C_3   0.871487 0.156782 0.482126 -0.882752
H35   H     H_    0.915555 0.197486 0.460658 0.235962
H36   H     H_    0.873982 0.006647 0.495410 0.223982
H37   H     H_    0.866289 0.236508 0.532212 0.236843
O22   O     O_3   0.238036 0.919461 0.650172 -0.572614
C72   C     C_3   0.187053 0.896340 0.597025 0.073961
H38   H     H_    0.193954 0.984524 0.549430 0.121117
H39   H     H_    0.141782 0.933575 0.616863 0.110853
C73   C     C_3   0.183787 0.692725 0.574027 -0.262712
H40   H     H_    0.227477 0.653215 0.551311 0.196975
H41   H     H_    0.179018 0.604505 0.622132 0.202637
C74   C     C_3   0.128545 0.656882 0.517821 -0.882714
H42   H     H_    0.084457 0.697854 0.539184 0.235955
H43   H     H_    0.125999 0.506717 0.504596 0.223971
H44   H     H_    0.133851 0.736430 0.467721 0.236863

loop_
_geom_bond_atom_site_label_1
_geom_bond_atom_site_label_2
_ccdc_geom_bond_type
C72   C73   S    
C38   C40   A    
C35   C37   A    
O17   V3    S    
C9    C11   A    
C23   C25   A    
O1    C3    A    
O12   V3    S    
O2    C4    A    
C2    O7    A    
C4    C31   S    
O3    V1    S    
O21   C69   S    
C21   C23   A    
O5    C3    A    
C5    H5    S    
C55   H27   S    
C6    H6    S    
C38   H20   S    
C48   C50   A    
C74   H43   S    
H1    C29   S    
C27   H7    S    
C40   C46   A    
C28   H8    S    
C47   H21   S    
C54   C64   A    
C33   C35   A    
C5    C21   A    
C41   C43   A    
C6    C22   A    
C34   C36   A    
C7    C66   S    
C43   C57   A    
C10   C32   A    
C37   C39   A    
C17   C31   A    
C13   C15   A    
C65   O18   A    
C39   C45   A    
C61   C63   A    
C17   C25   A    
C7    C29   A    
C16   C18   A    
C25   H15   S    
C33   C43   A    
C22   C24   A    
O6    V2    S    
C45   C47   A    
C58   H30   S    
C24   C26   A    
C63   H25   S    
C57   H29   S    
C53   C55   A    
C59   H23   S    
C49   C51   A    
C19   C21   A    
C42   C52   A    
C12   C14   A    
C62   C67   S    
O12   C68   A    
C72   H38   S    
C8    C30   A    
C52   C54   A    
C74   H44   S    
C51   C53   A    
C10   H10   S    
O5    V1    S    
C45   O21   S    
C15   C19   A    
C1    C36   S    
C39   C41   A    
C36   C38   A    
C2    C35   S    
O4    V2    S    
C71   H36   S    
C70   H34   S    
C62   C64   A    
O6    C4    A    
C34   C44   A    
O1    V2    S    
O16   C68   A    
C53   C63   A    
O2    V1    S    
C47   C49   A    
C60   H24   S    
C46   C48   A    
C69   C70   S    
H3    C23   S    
O4    C2    A    
C55   C57   A    
C60   C62   A    
C54   C56   A    
C34   H18   S    
C56   H28   S    
O15   C67   A    
C41   C51   A    
C71   H37   S    
C19   C27   A    
C70   H33   S    
C7    C27   A    
C18   C32   A    
O20   V3    S    
C69   H32   S    
O18   V4    S    
O19   V4    S    
C50   C60   A    
C72   H39   S    
H2    C30   S    
C16   C20   A    
C5    C29   A    
C11   H13   S    
O3    C1    A    
C73   C74   S    
C6    C30   A    
C46   O22   S    
C44   C58   A    
C9    H9    S    
O22   C72   S    
C73   H41   S    
C64   H26   S    
O13   C65   A    
C71   H35   S    
O7    V1    S    
C70   C71   S    
C1    O8    A    
C11   C13   A    
C3    C32   S    
O8    V2    S    
C74   H42   S    
O14   V4    S    
C20   C22   A    
O13   V3    S    
H4    C24   S    
C26   H16   S    
C12   H14   S    
C10   C12   A    
C15   C17   A    
C14   H12   S    
C50   C52   A    
O14   C66   A    
C20   C28   A    
C18   C26   A    
C73   H40   S    
C8    C28   A    
O16   V4    S    
C37   H19   S    
O15   V3    S    
C61   C68   S    
C49   C59   A    
C40   C42   A    
O9    V2    S    
C59   C61   A    
O10   V1    S    
C56   C58   A    
C42   C44   A    
O11   V4    S    
C13   H11   S    
C33   H17   S    
C48   H22   S    
C8    C65   S    
O11   C67   A    
C66   O17   A    
C9    C31   A    
C14   C16   A    
C69   H31   S    
