data_mof_unit_20375.cif
_audit_creation_date              2012-12-11T16:31:27-0500
_audit_creation_method            fapswitch 2.2
_symmetry_space_group_name_H-M    P1
_symmetry_Int_Tables_number       1
_space_group_crystal_system       triclinic
_cell_length_a                    6.937841
_cell_length_b                    18.454349
_cell_length_c                    20.067118
_cell_angle_alpha                 68.408474
_cell_angle_beta                  90.903963
_cell_angle_gamma                 91.321494
_cell_volume                      2388.26866696

loop_
_atom_site_label
_atom_site_type_symbol
_atom_type_description
_atom_site_fract_x
_atom_site_fract_y
_atom_site_fract_z
_atom_type_partial_charge
O1    O     O_R   0.488990 0.443920 0.942160 -0.535740
O2    O     O_R   0.823840 0.406530 0.087600 -0.541876
O3    O     O_R   0.999650 0.556080 0.057840 -0.541934
C1    C     C_R   0.654509 0.383233 0.114780 0.681896
O4    O     O_R   0.818390 0.434590 0.944530 -0.535100
O5    O     O_R   0.994160 0.584350 0.913750 -0.531490
C2    C     C_R   0.647855 0.419032 0.925169 0.727175
O6    O     O_R   0.494480 0.415650 0.086250 -0.539497
O7    O     O_3   0.662600 0.549100 0.990070 -0.367825
V1    V     V_3+5 0.935320 0.490890 0.001840 1.446417
O8    O     O_R   0.324240 0.593470 0.912400 -0.538036
C3    C     C_R   0.155258 0.617230 0.885264 0.697015
O9    O     O_R   0.329690 0.565410 0.055470 -0.536542
C4    C     C_R   0.162686 0.579432 0.076102 0.712258
V2    V     V_3+5 0.435990 0.509110 0.998160 1.448207
O10   O     O_3   0.158840 0.450900 0.009930 -0.369016
C5    C     C_3   0.997238 0.668930 0.270203 -0.333325
C6    C     C_3   0.341202 0.713737 0.241496 -0.330429
C7    C     C_3   0.330727 0.761522 0.291072 -0.378457
H1    H     H_    0.043261 0.608327 0.301261 0.208381
H2    H     H_    0.447699 0.741889 0.198274 0.169691
H3    H     H_    0.393770 0.654247 0.273029 0.184631
H4    H     H_    0.381264 0.725327 0.345875 0.224497
H5    H     H_    0.431391 0.812620 0.271050 0.192907
C8    C     C_1   0.109076 0.874130 0.378901 -0.131571
C9    C     C_3   0.140756 0.708089 0.208105 0.153350
C10   C     C_3   0.984208 0.716763 0.319936 0.287641
C11   C     C_3   0.122193 0.789749 0.293378 0.098800
C12   C     C_3   0.064887 0.840681 0.214680 0.197716
C13   C     C_3   0.071605 0.792023 0.165510 -0.354897
C14   C     C_1   0.114856 0.836048 0.340736 0.062128
C15   C     C_1   0.150859 0.662405 0.160429 -0.048084
C16   C     C_1   0.157373 0.624907 0.121749 -0.188372
H6    H     H_    0.927071 0.789148 0.141663 0.188184
H7    H     H_    0.171053 0.821408 0.120119 0.139857
H8    H     H_    0.851582 0.664397 0.247814 0.127326
H9    H     H_    0.833276 0.736237 0.318797 0.142403
H10   H     H_    0.169799 0.890305 0.194055 0.126274
C17   C     C_R   0.028731 0.768226 0.880420 -0.136744
C18   C     C_R   0.964962 0.839522 0.879877 -0.114714
C19   C     C_R   0.951017 0.903019 0.815650 -0.121993
C20   C     C_R   0.001063 0.895803 0.751420 -0.153009
C21   C     C_R   0.065394 0.824133 0.750161 0.064543
C22   C     C_R   0.079246 0.758874 0.816075 0.072385
C23   C     C_R   0.117728 0.817039 0.684804 -0.156043
C24   C     C_R   0.180507 0.744562 0.685230 0.071929
C25   C     C_R   0.194018 0.679381 0.750969 -0.004735
C26   C     C_R   0.144853 0.686346 0.816681 -0.151860
C27   C     C_R   0.226600 0.735199 0.620474 -0.191473
C28   C     C_R   0.283765 0.663679 0.620281 -0.178608
C29   C     C_R   0.295440 0.599875 0.684337 0.482939
C30   C     C_R   0.252532 0.607520 0.749077 -0.198640
H11   H     H_    0.038715 0.720793 0.931804 0.096642
H12   H     H_    0.926743 0.845579 0.929646 0.116226
H13   H     H_    0.901806 0.958301 0.815587 0.106015
H14   H     H_    0.989094 0.947011 0.702933 0.099324
H15   H     H_    0.216729 0.782604 0.569094 0.134166
H16   H     H_    0.317613 0.658181 0.569887 0.192564
H17   H     H_    0.263498 0.556323 0.797622 0.149856
H18   H     H_    0.041385 0.438802 0.296047 0.154668
C31   C     C_R   0.442229 0.241307 0.127224 -0.141019
C32   C     C_R   0.338567 0.174280 0.131407 -0.113951
C33   C     C_R   0.328456 0.111099 0.195837 -0.094941
C34   C     C_R   0.421851 0.114501 0.256572 -0.133391
C35   C     C_R   0.525272 0.182449 0.254598 0.068354
C36   C     C_R   0.535788 0.247237 0.188354 0.066765
C37   C     C_R   0.623408 0.185352 0.316364 -0.155558
C38   C     C_R   0.736697 0.252617 0.310980 0.003761
C39   C     C_R   0.743573 0.317871 0.244993 0.077285
C40   C     C_R   0.643533 0.315225 0.183718 -0.161197
C41   C     C_R   0.843346 0.257033 0.370342 -0.174541
C42   C     C_R   0.956901 0.322734 0.363986 0.470907
C43   C     C_R   0.957175 0.387100 0.300439 -0.167104
C44   C     C_R   0.849589 0.385514 0.242070 -0.215514
H19   H     H_    0.450063 0.287626 0.075158 0.108517
H20   H     H_    0.267851 0.170993 0.084094 0.116767
H21   H     H_    0.250016 0.058662 0.198603 0.132927
H22   H     H_    0.414280 0.062501 0.304412 0.116298
H23   H     H_    0.841699 0.209996 0.422009 0.161427
H24   H     H_    0.851889 0.438195 0.194786 0.138039
O11   O     O_R   0.770890 0.084490 0.414040 -0.541446
O12   O     O_R   0.445980 0.065450 0.555510 -0.536406
O13   O     O_R   0.270670 0.915620 0.586180 -0.541523
C45   C     C_R   0.615965 0.076801 0.578369 0.732465
O14   O     O_R   0.441480 0.093500 0.412450 -0.534992
O15   O     O_R   0.266140 0.943870 0.442100 -0.544005
C46   C     C_R   0.611207 0.117272 0.385512 0.701676
O16   O     O_R   0.775410 0.056240 0.558120 -0.537854
O17   O     O_3   0.602660 0.950990 0.510100 -0.369713
V3    V     V_3+5 0.329740 0.009100 0.498130 1.464506
O18   O     O_R   0.936120 0.934420 0.444240 -0.529555
C47   C     C_R   0.103363 0.920226 0.423949 0.708291
O19   O     O_R   0.940610 0.906370 0.587310 -0.539259
C48   C     C_R   0.108894 0.885230 0.616070 0.683968
V4    V     V_3+5 0.829110 0.990690 0.501470 1.469535
O20   O     O_3   0.106080 0.049010 0.489880 -0.362478
C49   C     C_3   0.836515 0.241545 0.714107 0.296578
C50   C     C_3   0.467975 0.249946 0.700746 -0.286062
C51   C     C_3   0.468844 0.300297 0.747556 -0.217456
H25   H     H_    0.837936 0.357041 0.724553 0.242082
H26   H     H_    0.331386 0.214909 0.710073 0.135117
H27   H     H_    0.466803 0.287838 0.643136 0.253344
H28   H     H_    0.486078 0.361573 0.711161 0.277059
H29   H     H_    0.328534 0.293316 0.775547 0.168991
C52   C     C_1   0.636473 0.369294 0.883121 -0.115190
C53   C     C_3   0.641907 0.194712 0.719225 0.124431
C54   C     C_3   0.827363 0.294254 0.759451 -0.317267
C55   C     C_3   0.637208 0.279088 0.802434 0.116016
C56   C     C_3   0.620054 0.190428 0.848067 -0.351058
C57   C     C_3   0.619193 0.140925 0.799301 -0.414007
C58   C     C_1   0.634005 0.327916 0.847695 0.026122
C59   C     C_1   0.637030 0.149583 0.671002 -0.009943
C60   C     C_1   0.628413 0.116259 0.628861 -0.114816
H30   H     H_    0.738387 0.098452 0.815934 0.144660
H31   H     H_    0.482103 0.106401 0.806894 0.164067
H32   H     H_    0.742733 0.172868 0.886714 0.155280
H33   H     H_    0.951485 0.198292 0.738157 0.016505
H34   H     H_    0.952976 0.282208 0.796900 0.123483
H35   H     H_    0.485042 0.178170 0.879840 0.156304
Cl1   Cl    Cl    0.032294 0.655717 0.411429 -0.596815
S1    S     S_3+6 0.363523 0.509330 0.684585 0.002579
O21   O     O_2   0.568122 0.495684 0.711251 -0.331889
O22   O     O_2   0.234266 0.447184 0.734597 -0.366940
O23   O     O_3   0.349034 0.506335 0.601885 -0.435472
H36   H     H_    0.209649 0.509994 0.589884 0.396887
Cl2   Cl    Cl    0.102363 0.324871 0.435391 -0.479863
S2    S     S_3+6 0.916963 0.295994 0.624232 0.073762
O24   O     O_2   0.761893 0.348066 0.580161 -0.248510
O25   O     O_2   0.090171 0.345503 0.626435 -0.293863
O26   O     O_3   0.978916 0.233038 0.585766 -0.458541
H37   H     H_    0.089647 0.204443 0.614437 0.321838
Cl3   Cl    Cl    0.832255 0.883410 0.209002 -0.732453

loop_
_geom_bond_atom_site_label_1
_geom_bond_atom_site_label_2
_ccdc_geom_bond_type
C8    C14   T    
C51   H28   S    
C9    C15   S    
O19   C48   A    
C6    H2    S    
C19   C20   A    
O2    C1    A    
V4    O20   S    
C6    C9    S    
C1    O6    A    
C4    C16   S    
C1    C40   S    
V1    O10   S    
C53   C59   S    
C23   C24   A    
C31   H19   S    
C51   C55   S    
C17   H11   S    
C24   C27   A    
C45   C60   S    
C13   H7    S    
C5    C9    S    
C11   C12   S    
C53   C57   S    
O11   V4    S    
C12   Cl3   S    
V2    O10   S    
H18   C43   S    
C5    H1    S    
C27   H15   S    
C55   C56   S    
C6    C7    S    
C43   C44   A    
C19   H13   S    
S1    O23   S    
C56   H32   S    
C20   H14   S    
O8    V2    S    
C31   C36   A    
O15   C47   A    
C38   C39   A    
C35   C37   A    
C12   H10   S    
C54   C55   S    
C2    C52   S    
O1    V2    S    
C5    H8    S    
C8    C47   S    
O7    V1    S    
C57   H30   S    
C54   H34   S    
C3    C26   S    
C51   H29   S    
C52   C58   T    
O16   V4    S    
O19   V4    S    
C6    H3    S    
O9    C4    A    
C32   H20   S    
C31   C32   A    
C23   C48   S    
C41   H23   S    
C59   C60   T    
O14   C46   A    
C13   H6    S    
C37   C38   A    
C28   H16   S    
O15   V3    S    
O18   C47   A    
O4    C2    A    
C10   Cl1   S    
O13   C48   A    
C29   C30   A    
C18   H12   S    
C42   Cl2   S    
C5    C10   S    
O17   V4    S    
C7    H4    S    
C21   C22   A    
S2    O25   D    
C12   C13   S    
C30   H17   S    
C25   C26   A    
O14   V3    S    
C32   C33   A    
C28   C29   A    
C39   C44   A    
V3    O20   S    
C7    C11   S    
C21   C23   A    
S1    O21   D    
O11   C46   A    
O3    C4    A    
C49   C53   S    
C18   C19   A    
C27   C28   A    
O6    V2    S    
O12   C45   A    
O9    V2    S    
C29   S1    S    
C20   C21   A    
C17   C22   A    
S2    O24   D    
O2    V1    S    
C17   C18   A    
C56   H35   S    
C33   H21   S    
C49   S2    S    
O13   V3    S    
C24   C25   A    
H25   C54   S    
O1    C2    A    
C34   H22   S    
C11   C14   S    
C45   O16   A    
C42   C43   A    
O12   V3    S    
O5    V1    S    
O8    C3    A    
C9    C13   S    
C25   C30   A    
C50   H26   S    
C37   C46   S    
C50   C53   S    
C55   C58   S    
C15   C16   T    
O26   H37   S    
O7    V2    S    
S2    O26   S    
C41   C42   A    
O3    V1    S    
C50   H27   S    
C56   C57   S    
C34   C35   A    
O5    C3    A    
C36   C40   A    
C10   H9    S    
C38   C41   A    
C7    H5    S    
C35   C36   A    
C49   H33   S    
C39   C40   A    
S1    O22   D    
O18   V4    S    
C33   C34   A    
C49   C54   S    
O4    V1    S    
C50   C51   S    
C10   C11   S    
C44   H24   S    
O17   V3    S    
C57   H31   S    
C22   C26   A    
O23   H36   S    
