data_mof_unit_11244.cif
_audit_creation_date              2012-12-11T14:48:11-0500
_audit_creation_method            fapswitch 2.2
_symmetry_space_group_name_H-M    P1
_symmetry_Int_Tables_number       1
_space_group_crystal_system       triclinic
_cell_length_a                    11.548151
_cell_length_b                    11.527591
_cell_length_c                    19.585819
_cell_angle_alpha                 90.290785
_cell_angle_beta                  89.889894
_cell_angle_gamma                 59.800843
_cell_volume                      2253.3928217

loop_
_atom_site_label
_atom_site_type_symbol
_atom_type_description
_atom_site_fract_x
_atom_site_fract_y
_atom_site_fract_z
_atom_type_partial_charge
C1    C     C_R   0.640276 0.117312 0.599377 0.546506
C2    C     C_1   0.652681 0.149616 0.668731 0.005918
C3    C     C_R   0.597471 0.616257 0.307744 -0.137603
C4    C     C_R   0.612344 0.746136 0.598703 0.542158
C5    C     C_R   0.600386 0.602201 0.238359 -0.143994
C6    C     C_R   0.669378 0.647930 0.197139 0.010550
C7    C     C_R   0.741690 0.703593 0.226740 0.031799
C8    C     C_R   0.739701 0.714984 0.297338 -0.120055
C9    C     C_R   0.661737 0.678053 0.337045 0.002642
C10   C     C_R   0.233770 0.248234 0.289358 -0.126557
C11   C     C_R   0.213056 0.261311 0.219550 0.048963
C12   C     C_1   0.640950 0.704065 0.668059 0.006565
C13   C     C_R   0.162275 0.186471 0.187340 0.010600
C14   C     C_R   0.157620 0.083296 0.223277 -0.148811
C15   C     C_R   0.188494 0.064898 0.292325 -0.132072
C16   C     C_R   0.241021 0.145277 0.598260 0.550037
C17   C     C_R   0.217833 0.153116 0.326548 0.000352
C18   C     C_R   0.794630 0.076537 0.304411 0.080986
C19   C     C_R   0.801660 0.094781 0.235726 -0.087815
C20   C     C_R   0.691176 0.194690 0.199973 0.014930
C21   C     C_R   0.574272 0.283050 0.235036 -0.149318
C22   C     C_R   0.564409 0.263890 0.304256 -0.161914
C23   C     C_1   0.126585 0.199147 0.859214 0.007562
C24   C     C_R   0.672073 0.156704 0.338597 0.024192
C25   C     C_R   0.081656 0.231397 0.928497 0.551329
C26   C     C_R   0.683902 0.604552 0.929401 0.553855
C27   C     C_R   0.708428 0.206990 0.929986 0.559206
C28   C     C_R   0.646637 0.114246 0.403719 0.557107
C29   C     C_R   0.087929 0.233288 0.123547 0.565765
C30   C     C_R   0.683486 0.609421 0.126313 0.578068
C31   C     C_R   0.712021 0.213797 0.128837 0.570403
C32   C     C_R   0.619434 0.736381 0.403667 0.545418
C33   C     C_R   0.254193 0.136504 0.398438 0.558351
C34   C     C_1   0.171590 0.170257 0.727753 -0.028594
C35   C     C_1   0.670517 0.646515 0.860021 0.008514
C36   C     C_1   0.654562 0.683810 0.728434 -0.028955
C37   C     C_1   0.663458 0.666727 0.799629 -0.028851
C38   C     C_2   0.813493 0.756716 0.186229 0.590103
C39   C     C_2   0.246977 0.352192 0.182172 0.586546
C40   C     C_1   0.150109 0.182522 0.798923 -0.028328
C41   C     C_1   0.195411 0.160747 0.667466 0.005836
C42   C     C_1   0.678725 0.191668 0.860653 0.008199
C43   C     C_1   0.658382 0.167251 0.729043 -0.028303
C44   C     C_1   0.665741 0.181160 0.800292 -0.027938
Cr1   Cr    Cr6+3 0.404720 0.198220 0.499960 1.040406
Cr2   Cr    Cr6+3 0.698290 0.897110 0.500380 1.066619
Cr3   Cr    Cr6+3 0.396970 0.904720 0.499610 1.056520
Cr4   Cr    Cr6+3 0.926180 0.152240 0.028110 1.046511
Cr5   Cr    Cr6+3 0.921340 0.452070 0.027460 1.097213
Cr6   Cr    Cr6+3 0.626260 0.447120 0.028700 1.040238
H1    H     H_    0.538408 0.586202 0.338051 0.146654
H2    H     H_    0.970907 0.786601 0.179720 0.347490
H3    H     H_    0.326477 0.384500 0.097570 0.336101
H4    H     H_    0.896629 0.030206 0.210640 0.155591
H5    H     H_    0.491108 0.365019 0.208969 0.166393
H6    H     H_    0.470380 0.329156 0.330021 0.148961
H7    H     H_    0.548846 0.553640 0.217217 0.154230
H8    H     H_    0.788485 0.764704 0.320537 0.192568
H9    H     H_    0.268103 0.309626 0.314151 0.163379
H10   H     H_    0.124006 0.020901 0.198972 0.148433
H11   H     H_    0.187221 0.984049 0.319186 0.174539
I1    I     I_    0.976146 0.921529 0.348303 -0.353935
O1    O     O_R   0.267740 0.231990 0.575440 -0.500685
O2    O     O_R   0.596140 0.579600 0.952720 -0.503306
O3    O     O_R   0.639070 0.321380 0.958660 -0.492582
O4    O     O_R   0.527280 0.186680 0.570530 -0.495895
O5    O     O_R   0.821240 0.124490 0.104360 -0.513423
O6    O     O_R   0.036900 0.167320 0.097830 -0.520270
O7    O     O_R   0.056190 0.349890 0.102870 -0.468695
O8    O     O_R   0.797670 0.565150 0.097930 -0.467479
O9    O     O_R   0.595880 0.584540 0.104260 -0.528244
O10   O     O_R   0.638830 0.325960 0.099140 -0.508200
O11   O     O_3   0.824590 0.350480 0.028090 -0.278234
O12   O     O_R   0.685970 0.784630 0.430010 -0.503331
O13   O     O_R   0.728090 0.003480 0.576380 -0.497445
O14   O     O_R   0.682970 0.789220 0.570490 -0.493820
O15   O     O_R   0.499290 0.771920 0.575530 -0.503925
O16   O     O_R   0.285330 0.030900 0.569730 -0.489604
O17   O     O_R   0.270980 0.227040 0.423900 -0.520793
O18   O     O_R   0.530280 0.182090 0.430050 -0.518245
O19   O     O_R   0.731330 0.998530 0.424830 -0.475159
O20   O     O_2   0.769391 0.810519 0.131218 -0.503201
O21   O     O_R   0.930526 0.747774 0.211940 -0.654971
O22   O     O_2   0.225599 0.457698 0.208482 -0.512476
O23   O     O_R   0.502530 0.766960 0.423990 -0.510561
O24   O     O_R   0.306564 0.315330 0.117480 -0.677936
O25   O     O_R   0.288330 0.026310 0.429250 -0.488928
O26   O     O_3   0.499990 0.000020 0.499980 -0.267934
O27   O     O_R   0.821500 0.119550 0.952820 -0.494798
O28   O     O_R   0.037130 0.162750 0.957360 -0.496329
O29   O     O_R   0.056440 0.344950 0.951330 -0.496932
O30   O     O_R   0.797900 0.560570 0.957460 -0.487863

loop_
_geom_bond_atom_site_label_1
_geom_bond_atom_site_label_2
_ccdc_geom_bond_type
C38   O21   S    
Cr6   O2    S    
C19   C20   A    
C43   C44   S    
Cr2   O14   S    
C30   O9    A    
C7    C8    A    
C31   O5    A    
C25   O28   A    
C42   C44   T    
C18   C24   A    
Cr3   O23   S    
C13   C29   S    
C36   C37   S    
C35   C37   T    
C39   O22   D    
C18   C19   A    
C32   O12   A    
C5    C6    A    
C10   C17   A    
C26   O30   A    
C23   C40   T    
C29   O6    A    
C1    C2    S    
C26   O2    A    
Cr6   O10   S    
C9    C32   S    
C8    H8    S    
C8    C9    A    
H3    O24   S    
C16   O1    A    
C12   C36   T    
C29   O7    A    
Cr5   O7    S    
C13   C14   A    
C38   O20   D    
C34   C41   T    
C17   C33   S    
Cr5   O29   S    
Cr2   O13   S    
C30   O8    A    
Cr2   O26   S    
C27   O3    A    
C25   O29   A    
C1    O13   A    
Cr1   O26   S    
Cr6   O11   S    
C21   H5    S    
C3    H1    S    
C18   I1    S    
C22   H6    S    
Cr1   O1    S    
Cr3   O25   S    
H2    O21   S    
Cr6   O9    S    
C3    C9    A    
Cr2   O19   S    
C2    C43   T    
C1    O4    A    
C15   H11   S    
Cr1   O17   S    
Cr4   O6    S    
C11   C39   S    
C19   H4    S    
C31   O10   A    
C6    C30   S    
Cr5   O8    S    
Cr5   O11   S    
C4    C12   S    
Cr3   O15   S    
Cr5   O30   S    
Cr2   O12   S    
C16   O16   A    
C15   C17   A    
C28   O19   A    
Cr4   O11   S    
C33   O17   A    
C24   C28   S    
C3    C5    A    
C6    C7    A    
C14   H10   S    
Cr3   O16   S    
C5    H7    S    
Cr4   O27   S    
Cr3   O26   S    
C10   H9    S    
C33   O25   A    
C4    O15   A    
C11   C13   A    
C27   C42   S    
C32   O23   A    
C7    C38   S    
C27   O27   A    
Cr1   O18   S    
C22   C24   A    
C23   C25   S    
Cr4   O5    S    
C28   O18   A    
Cr6   O3    S    
C4    O14   A    
C10   C11   A    
C26   C35   S    
C20   C21   A    
Cr1   O4    S    
C14   C15   A    
C34   C40   S    
Cr4   O28   S    
C39   O24   S    
C21   C22   A    
C16   C41   S    
C20   C31   S    
