data_mof_unit_11454.cif
_audit_creation_date              2013-03-05T15:45:58-0500
_audit_creation_method            fapswitch 2.2
_symmetry_space_group_name_H-M    P1
_symmetry_Int_Tables_number       1
_space_group_crystal_system       triclinic
_cell_length_a                    18.973138
_cell_length_b                    10.899207
_cell_length_c                    18.842022
_cell_angle_alpha                 89.877537
_cell_angle_beta                  90.270088
_cell_angle_gamma                 90.232662
_cell_volume                      3896.29824331

loop_
_atom_site_label
_atom_site_type_symbol
_atom_site_description
_atom_site_fract_x
_atom_site_fract_y
_atom_site_fract_z
_atom_type_partial_charge
O1    O     O_R   0.787510 0.042610 0.670410 -0.529948
O2    O     O_R   0.212490 0.042610 0.329590 -0.531130
O3    O     O_R   0.287510 0.542610 0.670410 -0.528679
O4    O     O_R   0.712490 0.542610 0.329590 -0.531196
O5    O     O_R   0.765670 0.292090 0.675090 -0.511384
O6    O     O_R   0.234330 0.292090 0.324910 -0.503641
O7    O     O_R   0.265670 0.792090 0.675090 -0.511394
O8    O     O_R   0.734330 0.792090 0.324910 -0.496986
C1    C     C_R   0.728100 0.372896 0.643996 0.567235
C2    C     C_R   0.269991 0.375818 0.354402 0.550902
C3    C     C_R   0.228098 0.872890 0.643994 0.567191
C4    C     C_R   0.769994 0.875810 0.354404 0.563167
O9    O     O_R   0.670220 0.409020 0.668560 -0.488089
O10   O     O_R   0.329780 0.409020 0.331440 -0.504644
O11   O     O_R   0.170220 0.909020 0.668560 -0.487603
O12   O     O_R   0.829780 0.909020 0.331440 -0.499183
O13   O     O_R   0.556580 0.251590 0.674980 -0.504405
O14   O     O_R   0.443420 0.251590 0.325020 -0.508744
O15   O     O_R   0.056580 0.751590 0.674980 -0.503321
O16   O     O_R   0.943420 0.751590 0.325020 -0.505544
C5    C     C_R   0.564874 0.151018 0.639222 0.537750
C6    C     C_R   0.469014 0.155270 0.353362 0.540532
C7    C     C_R   0.064873 0.651018 0.639221 0.538072
C8    C     C_R   0.969017 0.655270 0.353359 0.542563
O17   O     O_R   0.545890 0.049670 0.670030 -0.479038
O18   O     O_R   0.454110 0.049670 0.329970 -0.476440
O19   O     O_R   0.045890 0.549670 0.670030 -0.478363
O20   O     O_R   0.954110 0.549670 0.329970 -0.475116
O21   O     O_R   0.681340 0.957860 0.676500 -0.472664
O22   O     O_R   0.318660 0.957860 0.323500 -0.437217
O23   O     O_R   0.181340 0.457860 0.676500 -0.471938
O24   O     O_R   0.818660 0.457860 0.323500 -0.436071
C9    C     C_R   0.741080 0.970500 0.646707 0.571168
C10   C     C_R   0.258525 0.966519 0.351919 0.556412
C11   C     C_R   0.241079 0.470503 0.646705 0.572904
C12   C     C_R   0.758528 0.466527 0.351923 0.557258
O25   O     O_R   0.787380 0.044010 0.830940 -0.522930
O26   O     O_R   0.212620 0.044010 0.169060 -0.522669
O27   O     O_R   0.287380 0.544010 0.830940 -0.520006
O28   O     O_R   0.712620 0.544010 0.169060 -0.529800
O29   O     O_R   0.765540 0.293390 0.823910 -0.499540
O30   O     O_R   0.234460 0.293390 0.176090 -0.510346
O31   O     O_R   0.265540 0.793390 0.823910 -0.503543
O32   O     O_R   0.734460 0.793390 0.176090 -0.476506
C13   C     C_R   0.729799 0.378499 0.852555 0.598925
C14   C     C_R   0.270014 0.380046 0.147896 0.581194
C15   C     C_R   0.230057 0.879421 0.852163 0.594610
C16   C     C_R   0.789066 0.832085 0.140009 0.546580
O33   O     O_R   0.670090 0.410410 0.829090 -0.438991
O34   O     O_R   0.329910 0.410410 0.170910 -0.437961
O35   O     O_R   0.170090 0.910410 0.829090 -0.440980
O36   O     O_R   0.829910 0.910410 0.170910 -0.480632
O37   O     O_R   0.556450 0.252890 0.823790 -0.509620
O38   O     O_R   0.443550 0.252890 0.176210 -0.511806
O39   O     O_R   0.056450 0.752890 0.823790 -0.511895
O40   O     O_R   0.943550 0.752890 0.176210 -0.552740
C17   C     C_R   0.530873 0.156686 0.853041 0.572677
C18   C     C_R   0.468434 0.156777 0.146382 0.558075
C19   C     C_R   0.032484 0.656762 0.854092 0.573418
C20   C     C_R   0.970271 0.656163 0.147511 0.538784
O41   O     O_R   0.545750 0.051070 0.830560 -0.442061
O42   O     O_R   0.454250 0.051070 0.169440 -0.445041
O43   O     O_R   0.045750 0.551070 0.830560 -0.440589
O44   O     O_R   0.954250 0.551070 0.169440 -0.440064
O45   O     O_R   0.681210 0.959150 0.825320 -0.480261
O46   O     O_R   0.318790 0.959150 0.174680 -0.482597
O47   O     O_R   0.181210 0.459150 0.825320 -0.481575
O48   O     O_R   0.818790 0.459150 0.174680 -0.484195
C21   C     C_R   0.742091 0.968359 0.853303 0.552424
C22   C     C_R   0.259185 0.974305 0.144467 0.549838
C23   C     C_R   0.240781 0.473658 0.855470 0.563416
C24   C     C_R   0.758571 0.472230 0.145186 0.539456
Cr1   Cr    Cr6+3 0.771950 0.169480 0.750100 1.062383
Cr2   Cr    Cr6+3 0.228050 0.169480 0.249900 1.057190
Cr3   Cr    Cr6+3 0.271950 0.669480 0.750100 1.058577
Cr4   Cr    Cr6+3 0.728050 0.669480 0.249900 1.061071
Cr5   Cr    Cr6+3 0.614930 0.323340 0.749170 1.084196
Cr6   Cr    Cr6+3 0.385070 0.323340 0.250830 1.077847
Cr7   Cr    Cr6+3 0.114930 0.823340 0.749170 1.083462
Cr8   Cr    Cr6+3 0.885070 0.823340 0.250830 1.053066
Cr9   Cr    Cr6+3 0.616590 0.010620 0.750610 1.136485
Cr10  Cr    Cr6+3 0.383410 0.010620 0.249390 1.154199
Cr11  Cr    Cr6+3 0.116590 0.510620 0.750610 1.136915
Cr12  Cr    Cr6+3 0.883410 0.510620 0.249390 1.146233
O49   O     O_3   0.667820 0.167810 0.749960 -0.315638
O50   O     O_3   0.332180 0.167810 0.250040 -0.289055
O51   O     O_3   0.167820 0.667810 0.749960 -0.317215
O52   O     O_3   0.832180 0.667810 0.250040 -0.303153
C25   C     C_R   0.511177 0.164707 0.418484 0.015415
C26   C     C_R   0.551920 0.159044 0.562673 0.006315
C27   C     C_R   0.011183 0.664711 0.418479 0.014261
C28   C     C_R   0.051920 0.659045 0.562672 0.006182
C29   C     C_R   0.510357 0.271342 0.459647 0.001050
C30   C     C_R   0.530667 0.268673 0.530324 0.000963
C31   C     C_R   0.010358 0.771344 0.459644 0.001153
C32   C     C_R   0.030666 0.768673 0.530322 0.001032
C33   C     C_R   0.563984 0.057060 0.518942 -0.130631
C34   C     C_R   0.544289 0.060004 0.447147 -0.104463
C35   C     C_R   0.063988 0.557064 0.518939 -0.130465
C36   C     C_R   0.044298 0.560011 0.447142 -0.105509
C37   C     C_3   0.451735 0.358805 0.473899 -0.249828
C38   C     C_3   0.474163 0.356361 0.551288 -0.250493
C39   C     C_3   0.951734 0.858803 0.473895 -0.249782
C40   C     C_3   0.974160 0.856358 0.551286 -0.250454
H1    H     H_    0.583905 0.972589 0.541311 0.175008
H2    H     H_    0.548986 0.976805 0.416227 0.182709
H3    H     H_    0.083909 0.472593 0.541307 0.174937
H4    H     H_    0.049000 0.476815 0.416220 0.181953
H5    H     H_    0.898922 0.817068 0.464682 0.158430
H6    H     H_    0.996034 0.945441 0.569955 0.171183
H7    H     H_    0.398921 0.317073 0.464687 0.158654
H8    H     H_    0.496039 0.445443 0.569956 0.171198
H9    H     H_    0.460394 0.449374 0.448069 0.174382
H10   H     H_    0.434083 0.314101 0.586743 0.166969
H11   H     H_    0.960393 0.949373 0.448066 0.174374
H12   H     H_    0.934080 0.814096 0.586739 0.166926
C41   C     C_R   0.708355 0.841375 0.541038 0.174257
C42   C     C_R   0.306617 0.864438 0.462008 0.186202
C43   C     C_R   0.208341 0.341396 0.541030 0.173786
C44   C     C_R   0.806630 0.364481 0.462018 0.186421
C45   C     C_R   0.709307 0.830507 0.467189 -0.128937
C46   C     C_R   0.301315 0.859461 0.535876 -0.131386
C47   C     C_R   0.209290 0.330539 0.467180 -0.127992
C48   C     C_R   0.801324 0.359500 0.535886 -0.131347
H13   H     H_    0.681461 0.754560 0.442641 0.175547
H14   H     H_    0.344460 0.822569 0.567048 0.169649
H15   H     H_    0.181435 0.254603 0.442629 0.175960
H16   H     H_    0.844472 0.322620 0.567060 0.169668
C49   C     C_R   0.751220 0.909896 0.426027 -0.029249
C50   C     C_R   0.239778 0.897952 0.569363 -0.003165
C51   C     C_R   0.251213 0.409915 0.426021 -0.027131
C52   C     C_R   0.739782 0.397969 0.569369 -0.003102
C53   C     C_R   0.788772 0.004444 0.457974 -0.157919
C54   C     C_R   0.182062 0.937265 0.528804 -0.104614
C55   C     C_R   0.288774 0.504448 0.457971 -0.157705
C56   C     C_R   0.682065 0.437269 0.528808 -0.104635
H17   H     H_    0.822097 0.064737 0.427337 0.206397
H18   H     H_    0.132576 0.962824 0.552847 0.194021
H19   H     H_    0.322109 0.564728 0.427337 0.206364
H20   H     H_    0.632574 0.462813 0.552848 0.194025
C57   C     C_R   0.788315 0.016333 0.530308 -0.179475
C58   C     C_R   0.185943 0.941290 0.456265 -0.171295
C59   C     C_R   0.288318 0.516331 0.530306 -0.179784
C60   C     C_R   0.685949 0.441297 0.456269 -0.171199
H21   H     H_    0.818639 0.091356 0.552645 0.165476
H22   H     H_    0.140505 0.975220 0.427300 0.162519
H23   H     H_    0.318652 0.591340 0.552645 0.165452
H24   H     H_    0.640509 0.475214 0.427302 0.162586
C61   C     C_R   0.748613 0.935636 0.572792 0.005856
C62   C     C_R   0.249043 0.912932 0.422184 0.005471
C63   C     C_R   0.248609 0.435642 0.572788 0.005336
C64   C     C_R   0.749052 0.412953 0.422191 0.005717
C65   C     C_R   0.492402 0.050423 0.962181 0.191273
C66   C     C_R   0.501227 0.049668 0.035562 0.194616
C67   C     C_R   0.992748 0.551673 0.963340 0.187784
C68   C     C_R   0.000623 0.546015 0.036769 0.196318
C69   C     C_R   0.495333 0.161506 0.073407 -0.020795
C70   C     C_R   0.501605 0.162137 0.924942 -0.021047
C71   C     C_R   0.002378 0.656870 0.076321 -0.028281
C72   C     C_R   0.008341 0.662835 0.927841 -0.029759
C73   C     C_R   0.495872 0.273048 0.036081 -0.180882
C74   C     C_R   0.502683 0.273307 0.962479 -0.182120
C75   C     C_R   0.017813 0.766840 0.041462 -0.183677
C76   C     C_R   0.022003 0.769524 0.967666 -0.164539
H25   H     H_    0.491178 0.359644 0.063730 0.172176
H26   H     H_    0.509427 0.359991 0.935065 0.170323
H27   H     H_    0.026164 0.850505 0.071226 0.167196
H28   H     H_    0.037198 0.854514 0.941939 0.184213
C77   C     C_R   0.823082 0.929118 0.951107 -0.057457
C78   C     C_R   0.204701 0.014251 0.029612 -0.132503
C79   C     C_R   0.300496 0.503863 0.968519 -0.133521
C80   C     C_R   0.702560 0.507989 0.030835 -0.134465
H29   H     H_    0.865309 0.971844 0.921203 0.180202
H30   H     H_    0.169804 0.079460 0.054453 0.138668
H31   H     H_    0.339479 0.560650 0.942332 0.137544
H32   H     H_    0.667107 0.572259 0.055578 0.136756
C81   C     C_R   0.834674 0.906589 0.021943 0.221443
C82   C     C_R   0.204195 0.006853 0.956389 0.222771
C83   C     C_R   0.300893 0.500444 0.041761 0.223517
C84   C     C_R   0.703166 0.502575 0.957631 0.225670
C85   C     C_R   0.779939 0.853471 0.063597 0.009653
C86   C     C_R   0.247916 0.920035 0.923392 0.077840
C87   C     C_R   0.252963 0.421645 0.076589 0.068858
C88   C     C_R   0.746660 0.415605 0.924633 0.076202
C89   C     C_R   0.715269 0.824218 0.030975 -0.146294
C90   C     C_R   0.295927 0.850971 0.963929 -0.136324
C91   C     C_R   0.200326 0.360204 0.037751 -0.152499
C92   C     C_R   0.792631 0.342624 0.965524 -0.122922
H33   H     H_    0.672248 0.785176 0.061032 0.185945
H34   H     H_    0.329588 0.783354 0.939522 0.177256
H35   H     H_    0.163474 0.298890 0.063492 0.183709
H36   H     H_    0.825082 0.272915 0.941244 0.193492
C93   C     C_R   0.703546 0.853540 0.960124 -0.116379
C94   C     C_R   0.298159 0.863861 0.037096 -0.126803
C95   C     C_R   0.197086 0.372763 0.964579 -0.129333
C96   C     C_R   0.794398 0.354582 0.038849 -0.118298
H37   H     H_    0.651757 0.839340 0.937457 0.203342
H38   H     H_    0.335665 0.811679 0.067941 0.207613
H39   H     H_    0.154764 0.329251 0.935330 0.199682
H40   H     H_    0.830049 0.298728 0.069971 0.203635
C97   C     C_R   0.757064 0.908824 0.920592 -0.018390
C98   C     C_R   0.251433 0.943433 0.070204 -0.012222
C99   C     C_R   0.248530 0.441565 0.929608 -0.005516
C100  C     C_R   0.749277 0.437438 0.071603 -0.016557
O53   O     O_3   0.897997 0.948452 0.048257 -0.680581
H41   H     H_    0.912349 0.894564 0.087176 0.355558
O54   O     O_3   0.159651 0.080276 0.916554 -0.661198
H42   H     H_    0.126096 0.122323 0.948425 0.331997
O55   O     O_3   0.349376 0.569497 0.079839 -0.668070
H43   H     H_    0.382706 0.610278 0.046833 0.333840
O56   O     O_3   0.660025 0.578414 0.917695 -0.657793
H44   H     H_    0.626886 0.621926 0.949388 0.331422
N1    N     N_R   0.668327 0.755089 0.582420 0.074540
O57   O     O_R   0.609777 0.709621 0.557395 -0.358195
O58   O     O_R   0.693834 0.711588 0.641519 -0.311610
N2    N     N_R   0.370374 0.821443 0.429343 0.078486
O59   O     O_R   0.430274 0.831045 0.462851 -0.341787
O60   O     O_R   0.367437 0.754955 0.372110 -0.340361
N3    N     N_R   0.168305 0.255113 0.582407 0.074464
O61   O     O_R   0.109756 0.209653 0.557377 -0.358237
O62   O     O_R   0.193811 0.211593 0.641502 -0.310994
N4    N     N_R   0.870395 0.321514 0.429360 0.078690
O63   O     O_R   0.930293 0.331159 0.462867 -0.341737
O64   O     O_R   0.867470 0.254990 0.372140 -0.341039
N5    N     N_R   0.475762 0.938198 0.925377 0.106297
O65   O     O_R   0.515588 0.842010 0.932352 -0.318907
O66   O     O_R   0.425849 0.937300 0.877767 -0.339236
N6    N     N_R   0.515836 0.935903 0.071466 0.111185
O67   O     O_R   0.471266 0.845048 0.068442 -0.314803
O68   O     O_R   0.569756 0.928575 0.114173 -0.337999
N7    N     N_R   0.971881 0.443610 0.924740 0.112332
O69   O     O_R   0.011029 0.345854 0.926237 -0.298907
O70   O     O_R   0.919920 0.449583 0.879562 -0.338242
N8    N     N_R   0.008033 0.428397 0.070974 0.112089
O71   O     O_R   0.961686 0.341892 0.060947 -0.295096
O72   O     O_R   0.057834 0.411855 0.117701 -0.348491

loop_
_geom_bond_atom_site_label_1
_geom_bond_atom_site_label_2
_geom_bond_distance
_ccdc_geom_bond_type
C18   O42   1.258968 A    
O17   Cr9   2.066005 S    
C17   C70   1.467979 S    
O4    C12   1.276174 A    
C53   H17   1.078567 S    
C29   C30   1.384862 A    
O39   C19   1.275336 A    
O20   Cr12  2.065099 S    
O5    Cr1   1.946585 S    
C37   H9    1.111607 S    
C58   H22   1.084033 S    
C38   H8    1.111527 S    
C31   C32   1.384869 A    
C20   C71   1.475810 S    
O8    Cr4   1.950064 S    
C56   H20   1.082157 S    
N6    O68   1.301196 A    
C73   C74   1.393417 A    
C10   C62   1.457516 S    
C57   C61   1.406788 A    
C9    C61   1.452239 S    
O46   C22   1.274879 A    
O53   H41   0.976950 S    
O7    C3    1.275141 A    
C80   H32   1.081043 S    
C37   C38   1.517286 S    
N8    O72   1.301286 A    
C78   C82   1.382170 A    
C72   C76   1.407796 A    
C43   C63   1.410275 A    
C65   N5    1.440523 S    
N2    O60   1.301389 A    
C16   O36   1.288725 A    
C51   C55   1.387272 A    
C85   C89   1.405542 A    
O30   C14   1.274904 A    
C16   C85   1.467551 S    
C81   C85   1.424959 A    
C52   C56   1.400450 A    
O47   C23   1.272034 A    
C54   C58   1.369719 A    
C94   C98   1.393211 A    
C33   C34   1.402062 A    
C28   C32   1.400112 A    
O23   Cr11  1.953238 S    
C48   C52   1.396165 A    
C80   C100  1.401285 A    
C42   C46   1.396857 A    
C77   C81   1.373425 A    
C65   C70   1.414614 A    
C42   C62   1.425101 A    
C41   C45   1.396968 A    
C2    C51   1.446991 S    
O44   Cr12  2.069200 S    
C92   C96   1.388245 A    
C1    O9    1.258673 A    
N5    O66   1.301383 A    
C45   H13   1.083537 S    
C74   H26   1.083215 S    
C3    O11   1.258682 A    
O11   Cr7   2.068924 S    
C4    O12   1.267112 A    
O21   C9    1.274070 A    
C68   N8    1.440692 S    
C84   C88   1.407049 A    
C26   C30   1.400112 A    
C89   C93   1.389148 A    
O27   Cr3   2.065449 S    
C27   C36   1.410190 A    
C96   C100  1.393891 A    
O3    Cr3   2.066440 S    
Cr4   O52   1.975822 S    
C26   C33   1.405213 A    
C83   C87   1.411415 A    
O2    Cr2   2.060533 S    
C60   H24   1.084030 S    
C24   C100  1.447954 S    
C48   H16   1.083466 S    
C91   C95   1.386297 A    
O2    C10   1.276172 A    
C59   C63   1.406786 A    
O42   Cr10  2.069200 S    
C60   C64   1.397233 A    
Cr5   O49   1.973403 S    
O18   Cr10  2.065099 S    
C40   H12   1.112354 S    
C43   N3    1.437299 S    
C79   C83   1.380433 A    
C50   C54   1.400451 A    
C11   C63   1.452267 S    
C15   C86   1.452241 S    
O34   Cr6   2.061692 S    
Cr7   O51   1.973403 S    
N6    O67   1.300729 A    
C31   C39   1.493471 S    
C14   O34   1.257736 A    
O6    Cr2   1.950064 S    
C67   C68   1.392165 A    
C95   H39   1.080405 S    
C5    C26   1.464467 S    
N1    O58   1.301361 A    
O31   Cr3   1.945194 S    
C21   C97   1.450453 S    
O24   Cr12  1.948539 S    
O9    Cr5   2.068924 S    
C36   H4    1.083084 S    
C44   C64   1.425111 A    
C4    C49   1.447003 S    
O22   C10   1.266587 A    
O1    C9    1.259108 A    
O54   H42   0.991528 S    
O48   Cr12  1.944476 S    
C8    O20   1.263834 A    
C76   H28   1.083232 S    
N2    O59   1.301440 A    
C66   C69   1.418592 A    
O55   H43   0.992194 S    
C5    O17   1.297250 A    
C2    O10   1.267123 A    
C29   C37   1.493470 S    
N3    O61   1.301349 A    
O16   Cr8   1.943977 S    
O15   C7    1.298392 A    
C12   C64   1.457506 S    
O7    Cr3   1.946585 S    
O26   Cr2   2.068183 S    
C42   N2    1.440321 S    
N1    O57   1.301348 A    
O29   Cr1   1.945194 S    
C22   C98   1.446521 S    
C55   C59   1.369424 A    
O13   C5    1.298392 A    
O40   C20   1.292377 A    
O43   Cr11  2.072896 S    
O48   C24   1.276537 A    
O12   Cr8   2.075687 S    
C14   C87   1.452551 S    
C46   H14   1.083466 S    
C84   O56   1.384365 S    
C23   C99   1.446292 S    
O5    C1    1.275144 A    
C39   H11   1.111608 S    
C38   H10   1.112354 S    
C87   C91   1.403953 A    
O46   Cr10  1.944476 S    
O39   Cr7   1.949531 S    
C19   C72   1.466900 S    
O45   Cr9   1.945614 S    
O56   H44   0.991977 S    
C81   O53   1.374178 S    
C13   O33   1.263988 A    
C75   H27   1.082274 S    
O8    C4    1.262116 A    
C82   O54   1.383826 S    
O13   Cr5   1.942765 S    
N5    O65   1.300864 A    
C96   H40   1.081679 S    
N7    O70   1.301210 A    
O29   C13   1.273702 A    
Cr2   O50   1.975822 S    
O15   Cr7   1.942765 S    
Cr1   O49   1.975672 S    
C82   C86   1.408486 A    
O30   Cr2   1.940375 S    
C89   H33   1.080993 S    
C49   C53   1.387277 A    
Cr3   O51   1.975672 S    
O26   C22   1.258289 A    
O21   Cr9   1.953238 S    
C59   H23   1.082648 S    
C7    O19   1.297252 A    
C32   C40   1.494223 S    
C79   C99   1.400207 A    
C73   H25   1.083226 S    
O37   Cr5   1.949531 S    
O25   C21   1.261718 A    
C71   C75   1.396193 A    
C19   O43   1.261956 A    
N8    O71   1.300131 A    
O3    C11   1.259118 A    
C3    C50   1.449792 S    
C69   C73   1.403222 A    
C47   H15   1.083538 S    
C39   C40   1.517288 S    
C93   H37   1.080253 S    
O47   Cr11  1.945614 S    
C40   H6    1.111527 S    
O14   Cr6   1.943977 S    
O38   C18   1.282640 A    
C1    C52   1.449771 S    
O25   Cr1   2.065449 S    
N4    O64   1.301385 A    
C44   N4    1.440312 S    
O22   Cr10  1.948539 S    
O28   C24   1.259066 A    
C47   C51   1.407093 A    
C67   C72   1.413625 A    
O14   C6    1.273735 A    
C91   H35   1.081074 S    
C90   C94   1.386484 A    
C68   C71   1.421127 A    
Cr12  O52   1.973287 S    
C45   C49   1.407104 A    
C18   C69   1.469637 S    
O37   C17   1.278533 A    
Cr11  O51   1.966376 S    
C54   H18   1.082162 S    
C15   O35   1.263103 A    
O24   C12   1.266572 A    
C17   O41   1.260973 A    
C78   H30   1.082008 S    
C43   C47   1.396969 A    
C37   H7    1.111790 S    
C46   C50   1.396180 A    
C35   H3    1.080640 S    
C92   H36   1.083314 S    
C83   O55   1.384853 S    
C30   C38   1.494222 S    
C53   C57   1.369418 A    
C34   H2    1.083082 S    
C35   C36   1.402070 A    
C20   O44   1.253586 A    
C25   C34   1.410193 A    
C39   H5    1.111791 S    
C55   H19   1.078559 S    
O1    Cr1   2.066440 S    
C58   C62   1.397240 A    
O19   Cr11  2.066005 S    
O40   Cr8   1.955443 S    
C33   H1    1.080646 S    
C56   C60   1.369712 A    
O32   C16   1.309699 A    
O41   Cr9   2.072896 S    
Cr10  O50   1.973287 S    
C77   H29   1.084591 S    
C80   C84   1.380800 A    
C94   H38   1.079620 S    
C93   C97   1.396132 A    
C79   H31   1.082586 S    
O45   C21   1.271182 A    
C67   N7    1.438778 S    
C57   H21   1.082648 S    
C86   C90   1.405830 A    
C6    C25   1.465175 S    
O33   Cr5   2.060740 S    
O23   C11   1.274064 A    
N3    O62   1.301356 A    
O10   Cr6   2.075687 S    
C25   C29   1.398821 A    
N4    O63   1.301438 A    
O35   Cr7   2.060740 S    
C78   C98   1.401273 A    
C75   C76   1.393351 A    
O6    C2    1.262128 A    
C70   C74   1.404313 A    
C77   C97   1.392809 A    
C8    C27   1.465177 S    
C88   C92   1.408462 A    
C41   N1    1.437298 S    
C95   C99   1.395417 A    
O4    Cr4   2.060533 S    
C28   C35   1.405218 A    
C27   C31   1.398822 A    
Cr8   O52   1.966445 S    
Cr6   O50   1.966445 S    
C6    O18   1.263829 A    
O28   Cr4   2.068183 S    
C66   N6    1.438531 S    
N7    O69   1.301457 A    
O27   C23   1.257011 A    
C7    C28   1.464488 S    
C41   C61   1.410259 A    
C90   H34   1.081920 S    
O32   Cr4   1.940375 S    
C65   C66   1.391983 A    
O36   Cr8   2.061692 S    
O31   C15   1.275329 A    
O16   C8    1.273727 A    
Cr9   O49   1.966376 S    
C44   C48   1.396842 A    
C13   C88   1.451735 S    
O38   Cr6   1.955443 S    
