data_mof_unit_24900.cif
_audit_creation_date              2013-03-05T16:06:21-0500
_audit_creation_method            fapswitch 2.2
_symmetry_space_group_name_H-M    P1
_symmetry_Int_Tables_number       1
_space_group_crystal_system       triclinic
_cell_length_a                    10.830845
_cell_length_b                    9.504557
_cell_length_c                    27.828958
_cell_angle_alpha                 90.058652
_cell_angle_beta                  90.17357
_cell_angle_gamma                 90.071205
_cell_volume                      2864.76240186

loop_
_atom_site_label
_atom_site_type_symbol
_atom_site_description
_atom_site_fract_x
_atom_site_fract_y
_atom_site_fract_z
_atom_type_partial_charge
O1    O     O_R   0.319640 0.618740 0.500000 -0.585131
O2    O     O_R   0.680360 0.381260 0.500000 -0.585152
O3    O     O_R   0.680360 0.618740 0.500000 -0.592408
O4    O     O_R   0.319640 0.381260 0.500000 -0.592410
C1    C     C_R   0.262018 0.499953 0.499966 0.800798
C2    C     C_R   0.737982 0.500047 0.500033 0.800798
O5    O     O_R   0.500020 0.618770 0.430260 -0.570764
O6    O     O_R   0.499980 0.381230 0.569740 -0.570751
O7    O     O_R   0.499980 0.618770 0.569740 -0.576935
O8    O     O_R   0.500020 0.381230 0.430260 -0.576910
C3    C     C_R   0.500086 0.499925 0.407662 0.819778
C4    C     C_R   0.499898 0.500076 0.592340 0.819721
Cu1   Cu    Cu3+1 0.500000 0.640660 0.500000 0.974342
Cu2   Cu    Cu3+1 0.500000 0.359340 0.500000 0.974341
C5    C     C_R   0.465223 0.384135 0.178222 0.616692
C6    C     C_R   0.534739 0.615457 0.821805 0.616486
O9    O     O_2   0.430535 0.268472 0.202899 -0.497268
O10   O     O_2   0.570162 0.730874 0.797152 -0.497679
N1    N     N_R   0.500813 0.502197 0.202455 -0.447641
N2    N     N_R   0.498554 0.497673 0.797549 -0.447597
C7    C     C_R   0.533707 0.622479 0.178852 0.573220
C8    C     C_R   0.464873 0.377629 0.821123 0.573350
C9    C     C_R   0.596062 0.429585 0.279189 0.399793
C10   C     C_R   0.403799 0.570759 0.720781 0.399637
C11   C     C_R   0.595313 0.428273 0.329690 -0.160826
C12   C     C_R   0.404691 0.572090 0.670281 -0.160853
C13   C     C_R   0.408083 0.571627 0.329160 -0.057670
C14   C     C_R   0.591490 0.428004 0.670883 -0.057584
C15   C     C_R   0.409233 0.570997 0.279066 -0.180722
C16   C     C_R   0.590176 0.428582 0.720977 -0.180836
C17   C     C_R   0.502238 0.500520 0.254030 0.253685
C18   C     C_R   0.497307 0.499402 0.745975 0.253893
C19   C     C_R   0.498710 0.504312 0.102234 -0.048109
C20   C     C_R   0.500227 0.495512 0.897767 -0.047972
C21   C     C_R   0.464685 0.382472 0.127925 -0.022352
C22   C     C_R   0.535150 0.617080 0.872101 -0.022227
C23   C     C_R   0.430408 0.261075 0.103128 -0.122440
C24   C     C_R   0.570463 0.738059 0.896923 -0.122981
C25   C     C_R   0.532245 0.627529 0.127912 -0.069396
C26   C     C_R   0.466047 0.372571 0.872065 -0.069482
C27   C     C_R   0.501052 0.499742 0.354865 -0.177371
C28   C     C_R   0.498810 0.500263 0.645139 -0.177437
H1    H     H_    0.337335 0.624972 0.259148 0.169424
H2    H     H_    0.661845 0.374308 0.740925 0.169336
H3    H     H_    0.403004 0.166681 0.122146 0.192542
H4    H     H_    0.598872 0.832115 0.877928 0.192397
C29   C     C_R   0.466451 0.374647 0.974762 0.037108
C30   C     C_R   0.531839 0.625289 0.025230 0.037301
C31   C     C_R   0.533903 0.622659 0.974026 0.053265
C32   C     C_R   0.465327 0.376948 0.025984 0.053287
C33   C     C_R   0.500048 0.497528 0.949040 0.074045
C34   C     C_R   0.498745 0.502261 0.050962 0.074020
C35   C     C_R   0.435831 0.252433 0.948248 -0.235999
C36   C     C_R   0.560946 0.748033 0.051709 -0.236145
C37   C     C_R   0.434812 0.250200 0.898208 -0.028175
C38   C     C_R   0.562397 0.750213 0.101746 -0.027787
O11   O     O_2   0.429669 0.264773 0.795040 -0.497806
O12   O     O_2   0.568381 0.735601 0.204909 -0.497705
C39   C     C_R   0.430777 0.257896 0.053416 -0.202116
C40   C     C_R   0.570108 0.741133 0.946636 -0.202342
H5    H     H_    0.412282 0.154621 0.965350 0.133493
H6    H     H_    0.582529 0.846378 0.034558 0.133032
H7    H     H_    0.402411 0.159251 0.038038 0.138700
H8    H     H_    0.600328 0.839008 0.962077 0.139444
C41   C     C_R   0.063692 0.372106 0.499915 -0.165568
C42   C     C_R   0.936308 0.627894 0.500080 -0.165568
C43   C     C_R   0.935979 0.372159 0.499966 -0.135353
C44   C     C_R   0.064021 0.627841 0.500029 -0.135288
H9    H     H_    0.111618 0.272136 0.499843 0.155462
H10   H     H_    0.888382 0.727864 0.500152 0.155457
H11   H     H_    0.887795 0.272211 0.499943 0.159418
H12   H     H_    0.112205 0.727789 0.500053 0.159439
C45   C     C_R   0.871796 0.500057 0.500037 -0.021901
C46   C     C_R   0.128204 0.499943 0.499960 -0.021888
C47   C     C_R   0.421079 0.074272 0.470947 -0.004927
C48   C     C_R   0.578921 0.925727 0.529053 -0.004921
C49   C     C_R   0.578934 0.074658 0.529045 -0.004115
C50   C     C_R   0.421067 0.925342 0.470954 -0.004070
H13   H     H_    0.357915 0.130348 0.447682 0.130549
H14   H     H_    0.642085 0.869652 0.552317 0.130562
H15   H     H_    0.642127 0.131026 0.552284 0.141293
H16   H     H_    0.357876 0.868972 0.447713 0.141196
N3    N     N_R   0.500000 0.852070 0.500000 -0.166435
N4    N     N_R   0.500000 0.147930 0.500000 -0.166444
C51   C     C_1   0.308275 0.642946 0.353431 0.284220
N5    N     N_1   0.228306 0.699854 0.372894 -0.282879
C52   C     C_1   0.691188 0.356358 0.646657 0.284376
N6    N     N_1   0.771074 0.299188 0.627232 -0.282964
C53   C     C_1   0.306738 0.643281 0.644459 0.372671
N7    N     N_1   0.228514 0.700034 0.623750 -0.249558
C54   C     C_1   0.693536 0.357464 0.355481 0.372502
N8    N     N_1   0.771972 0.301018 0.376165 -0.249584
Cl1   Cl    Cl    0.284373 0.655246 0.752911 -0.529166
Cl2   Cl    Cl    0.715704 0.345630 0.247019 -0.529145
C55   C     C_1   0.402056 0.118025 0.875553 0.338715
N9    N     N_1   0.375764 0.012089 0.857663 -0.185164
C56   C     C_1   0.594702 0.882549 0.124384 0.338071
N10   N     N_1   0.620719 0.988569 0.142272 -0.185940

loop_
_geom_bond_atom_site_label_1
_geom_bond_atom_site_label_2
_geom_bond_distance
_ccdc_geom_bond_type
C42   C44   1.383252 A    
C52   N6    1.157373 T    
C13   C15   1.394181 A    
C55   N9    1.157642 T    
Cu2   N4    2.009359 S    
O3    C2    1.289923 A    
N1    C17   1.435423 S    
C8    O11   1.348540 S    
C56   N10   1.157596 T    
C51   N5    1.157364 T    
C12   C53   1.448434 S    
C30   C36   1.413966 A    
C20   C33   1.426974 A    
C19   C25   1.417650 A    
C31   C40   1.416071 A    
O1    C1    1.289348 A    
C32   C39   1.416196 A    
N1    C7    1.366476 A    
C10   C12   1.405498 A    
C30   C34   1.418027 A    
C47   N4    1.366621 A    
C44   C46   1.401090 A    
C1    C46   1.449320 S    
C13   C51   1.445538 S    
C50   H16   1.081422 S    
O7    Cu1   1.952124 S    
C5    N1    1.363213 A    
C35   H5    1.075590 S    
C50   N3    1.366633 A    
C14   C16   1.394193 A    
C41   C43   1.383251 A    
C32   C34   1.424242 A    
C43   C45   1.401090 A    
C20   C22   1.410873 A    
O3    Cu1   1.964787 S    
C6    N2    1.363188 A    
C29   C35   1.414043 A    
Cu1   Cu2   2.673822 S    
C15   H1    1.084326 S    
C16   H2    1.084330 S    
O2    C2    1.289347 A    
C38   C56   1.448202 S    
C48   N3    1.366614 A    
C5    C21   1.399769 A    
O7    C4    1.292167 A    
C29   C32   1.425689 A    
C35   C37   1.392717 A    
C36   C38   1.392665 A    
C11   C54   1.448438 S    
C4    C28   1.469437 S    
C48   C49   1.415515 A    
C37   C55   1.448265 S    
O8    Cu2   1.952124 S    
C11   C27   1.414090 A    
C54   N8    1.157446 T    
C29   C33   1.418137 A    
C36   H6    1.075735 S    
C49   N4    1.366628 A    
C31   C33   1.424120 A    
C42   C45   1.400861 A    
C41   C46   1.400862 A    
C44   H12   1.083308 S    
C19   C34   1.426964 A    
C9    C17   1.405620 A    
O5    C3    1.292273 A    
C10   C18   1.405565 A    
C13   C27   1.410960 A    
C25   C38   1.413795 A    
C7    C25   1.418523 A    
C49   H15   1.081406 S    
O6    C4    1.292305 A    
C26   C37   1.413770 A    
C8    C26   1.418529 A    
C14   C52   1.445522 S    
C23   C39   1.383758 A    
C24   C40   1.383746 A    
C30   C31   1.425388 A    
N2    C8    1.366467 A    
C20   C26   1.417626 A    
O1    Cu1   1.964272 S    
C23   H3    1.083689 S    
C12   C28   1.414146 A    
C2    C45   1.449321 S    
N2    C18   1.435382 S    
C5    O9    1.350315 S    
O6    Cu2   1.951700 S    
C21   C23   1.393238 A    
C48   H14   1.081740 S    
O4    C1    1.289922 A    
Cu1   N3    2.009358 S    
C39   H7    1.074362 S    
C9    Cl2   1.767911 S    
C40   H8    1.074578 S    
C22   C24   1.393302 A    
C7    O12   1.348550 S    
C15   C17   1.397786 A    
C10   Cl1   1.767912 S    
C6    C22   1.399748 A    
C16   C18   1.397749 A    
C42   H10   1.083276 S    
C41   H9    1.083277 S    
C14   C28   1.411005 A    
C19   C21   1.410762 A    
C3    C27   1.469340 S    
C43   H11   1.083308 S    
C9    C11   1.405509 A    
O4    Cu2   1.964787 S    
O2    Cu2   1.964272 S    
C47   C50   1.415519 A    
C24   H4    1.083768 S    
O8    C3    1.292150 A    
O5    Cu1   1.951701 S    
C6    O10   1.350310 S    
C53   N7    1.157457 T    
C47   H13   1.081739 S    
