data_mof_unit_18026.cif
_audit_creation_date              2013-03-05T16:07:27-0500
_audit_creation_method            fapswitch 2.2
_symmetry_space_group_name_H-M    P1
_symmetry_Int_Tables_number       1
_space_group_crystal_system       triclinic
_cell_length_a                    19.380702
_cell_length_b                    7.094723
_cell_length_c                    17.630621
_cell_angle_alpha                 90.000118
_cell_angle_beta                  108.618446
_cell_angle_gamma                 90.000094
_cell_volume                      2297.35287086

loop_
_atom_site_label
_atom_site_type_symbol
_atom_site_description
_atom_site_fract_x
_atom_site_fract_y
_atom_site_fract_z
_atom_type_partial_charge
O1    O     O_R   0.413720 0.494330 0.415730 -0.586086
O2    O     O_R   0.586280 0.994330 0.584270 -0.586077
O3    O     O_R   0.560210 0.819300 0.430070 -0.582035
O4    O     O_R   0.439790 0.319300 0.569930 -0.582048
C1    C     C_R   0.580597 0.654902 0.413522 1.015406
C2    C     C_R   0.419404 0.154902 0.586479 1.015426
O5    O     O_R   0.412670 0.823730 0.406310 -0.606539
O6    O     O_R   0.587330 0.323730 0.593690 -0.606539
O7    O     O_R   0.437690 0.998790 0.560340 -0.571996
O8    O     O_R   0.562310 0.498790 0.439660 -0.571988
C3    C     C_R   0.385353 0.655183 0.383472 0.967479
C4    C     C_R   0.614647 0.155183 0.616528 0.967506
O9    O     O_3   0.508380 0.662350 0.550560 -0.255585
O10   O     O_3   0.491620 0.162350 0.449440 -0.255575
V1    V     V_3+5 0.498450 0.935370 0.490620 1.250579
V2    V     V_3+5 0.501550 0.435370 0.509380 1.250574
C5    C     C_R   0.734285 0.999622 0.689582 0.153552
C6    C     C_R   0.265715 0.499622 0.310418 0.153552
C7    C     C_R   0.684746 0.147547 0.682772 -0.194511
C8    C     C_R   0.315254 0.647546 0.317228 -0.194508
C9    C     C_R   0.706663 0.295613 0.738724 -0.149238
C10   C     C_R   0.293337 0.795612 0.261276 -0.149239
H1    H     H_    0.671561 0.416155 0.735010 0.144398
H2    H     H_    0.328440 0.916155 0.264990 0.144399
C11   C     C_R   0.772054 0.283827 0.803411 -0.055233
C12   C     C_R   0.227946 0.783828 0.196589 -0.055233
H3    H     H_    0.784961 0.395757 0.847413 0.124309
H4    H     H_    0.215040 0.895757 0.152588 0.124310
C13   C     C_R   0.817975 0.124653 0.813644 -0.243465
C14   C     C_R   0.182025 0.624653 0.186356 -0.243462
C15   C     C_R   0.799394 0.989510 0.752565 0.131979
C16   C     C_R   0.200605 0.489511 0.247434 0.131975
C17   C     C_3   0.795869 0.779461 0.755199 0.147120
C18   C     C_3   0.204129 0.279462 0.244800 0.147126
C19   C     C_3   0.724020 0.790910 0.686534 -0.589570
C20   C     C_3   0.275979 0.290910 0.313465 -0.589574
H5    H     H_    0.790654 0.724455 0.812185 0.067785
H6    H     H_    0.209345 0.224455 0.187814 0.067785
H7    H     H_    0.676182 0.748206 0.704310 0.203250
H8    H     H_    0.323817 0.248206 0.295689 0.203247
H9    H     H_    0.725643 0.729608 0.629091 0.223212
H10   H     H_    0.274356 0.229608 0.370908 0.223211
C21   C     C_R   0.319955 0.290491 0.630267 -0.148428
C22   C     C_R   0.680046 0.790495 0.369734 -0.148436
C23   C     C_R   0.370904 0.145765 0.636813 -0.321080
C24   C     C_R   0.629098 0.645765 0.363190 -0.321084
C25   C     C_R   0.373284 0.992478 0.689112 0.346854
C26   C     C_R   0.626723 0.492471 0.310896 0.346871
C27   C     C_R   0.323540 0.985092 0.733139 -0.091009
C28   C     C_R   0.676469 0.485083 0.266871 -0.091013
C29   C     C_R   0.272669 0.133082 0.725811 0.076320
C30   C     C_R   0.727335 0.633081 0.274194 0.076333
C31   C     C_R   0.271324 0.285615 0.674343 0.126983
C32   C     C_R   0.728677 0.785620 0.325658 0.126970
C33   C     C_R   0.324280 0.834851 0.785523 -0.295556
C34   C     C_R   0.675736 0.334827 0.214497 -0.295578
C35   C     C_R   0.275665 0.829742 0.829186 0.746425
C36   C     C_R   0.724349 0.329718 0.170833 0.746444
C37   C     C_R   0.225470 0.976495 0.822579 0.002119
C38   C     C_R   0.774538 0.476484 0.177431 0.002112
C39   C     C_R   0.223532 0.129440 0.770563 -0.060300
C40   C     C_R   0.776472 0.629438 0.229441 -0.060316
C41   C     C_R   0.172672 0.278167 0.763337 -0.166700
C42   C     C_R   0.827328 0.778172 0.236662 -0.166678
C43   C     C_R   0.169542 0.425519 0.707647 0.390488
C44   C     C_R   0.830457 0.925526 0.292352 0.390508
C45   C     C_R   0.220106 0.429663 0.665791 -0.283346
C46   C     C_R   0.779894 0.929671 0.334207 -0.283359
C47   C     C_R   0.177347 0.972333 0.867282 -0.157251
C48   C     C_R   0.822660 0.472322 0.132727 -0.157245
C49   C     C_R   0.129243 0.121972 0.864046 -0.386788
C50   C     C_R   0.870758 0.621972 0.135956 -0.386808
C51   C     C_R   0.127842 0.276161 0.813116 0.803551
C52   C     C_R   0.872155 0.776168 0.186880 0.803573
H11   H     H_    0.317192 0.406257 0.589227 0.169846
H12   H     H_    0.682808 0.906264 0.410773 0.169869
H13   H     H_    0.362590 0.719889 0.793551 0.214901
H14   H     H_    0.637432 0.219852 0.206480 0.214882
H15   H     H_    0.178691 0.854357 0.906811 0.205714
H16   H     H_    0.821321 0.354339 0.093204 0.205729
H17   H     H_    0.217697 0.543584 0.624019 0.182220
H18   H     H_    0.782301 0.043595 0.375978 0.182228
O11   O     O_R   0.937800 0.775460 0.060470 -0.547596
O12   O     O_R   0.062200 0.275460 0.939530 -0.547603
O13   O     O_R   0.087350 0.441340 0.093710 -0.606141
O14   O     O_R   0.912650 0.941340 0.906290 -0.606140
C53   C     C_R   0.114749 0.610410 0.116457 0.954722
C54   C     C_R   0.885251 0.110410 0.883543 0.954727
O15   O     O_R   0.939820 0.446010 0.069950 -0.591754
O16   O     O_R   0.060180 0.946010 0.930050 -0.591754
O17   O     O_R   0.913690 0.271230 0.915700 -0.578122
O18   O     O_R   0.086310 0.771230 0.084300 -0.578124
C55   C     C_R   0.919165 0.614564 0.085513 1.006557
C56   C     C_R   0.080835 0.114564 0.914487 1.006559
O19   O     O_3   0.991670 0.603050 0.949510 -0.238275
O20   O     O_3   0.008330 0.103050 0.050490 -0.238272
V3    V     V_3+5 0.001550 0.329940 0.009370 1.290882
V4    V     V_3+5 0.998450 0.829940 0.990630 1.290883
F1    F     F_    0.278133 0.680805 0.878412 -0.704210
F2    F     F_    0.721889 0.180768 0.121617 -0.704221
F3    F     F_    0.083883 0.424675 0.813916 -0.630676
F4    F     F_    0.916105 0.924695 0.186070 -0.630683
N1    N     N_R   0.112739 0.564677 0.688242 0.276447
O21   O     O_R   0.127782 0.738737 0.676375 -0.379265
O22   O     O_R   0.045031 0.510634 0.663460 -0.245146
N2    N     N_R   0.887262 0.064681 0.311758 0.276443
O23   O     O_R   0.872224 0.238735 0.323640 -0.379261
O24   O     O_R   0.954970 0.010633 0.336528 -0.245156
N3    N     N_R   0.854342 0.690754 0.731982 0.269829
O25   O     O_R   0.893607 0.558876 0.776540 -0.324396
O26   O     O_R   0.869316 0.746198 0.668570 -0.318096
N4    N     N_R   0.145656 0.190755 0.268017 0.269828
O27   O     O_R   0.106392 0.058876 0.223459 -0.324402
O28   O     O_R   0.130683 0.246199 0.331429 -0.318099
N5    N     N_R   0.428016 0.849553 0.699995 0.234541
O29   O     O_R   0.409518 0.677779 0.676458 -0.415297
O30   O     O_R   0.496643 0.894181 0.727711 -0.403813
N6    N     N_R   0.571996 0.349536 0.300016 0.234537
O31   O     O_R   0.503368 0.394136 0.272267 -0.403801
O32   O     O_R   0.590497 0.177794 0.323597 -0.415296

loop_
_geom_bond_atom_site_label_1
_geom_bond_atom_site_label_2
_geom_bond_distance
_ccdc_geom_bond_type
C44   C46   1.402668 A    
C41   C43   1.422185 A    
C2    C23   1.485882 S    
C18   N4    1.464266 S    
C20   H10   1.111828 S    
O1    C3    1.314688 A    
O2    C4    1.314689 A    
C2    O7    1.291888 A    
N4    O28   1.302323 A    
O19   V4    1.753060 S    
O18   V4    2.001178 S    
C25   C27   1.418645 A    
C49   C56   1.485443 S    
O5    C3    1.317658 A    
O12   V3    1.992831 S    
C7    C9    1.410500 A    
C26   C28   1.418635 A    
N3    O26   1.302324 A    
C19   H7    1.111364 S    
C33   H13   1.081408 S    
O14   C54   1.321229 A    
C35   C37   1.404150 A    
C32   C46   1.398916 A    
N2    O23   1.301041 A    
C36   C38   1.404147 A    
N5    O29   1.300356 A    
C35   F1    1.358506 S    
C34   H14   1.081406 S    
C38   C40   1.413468 A    
C23   C25   1.417007 A    
C47   C49   1.401984 A    
N6    O31   1.301165 A    
C13   C54   1.484238 S    
C40   C42   1.421635 A    
C17   C19   1.528002 S    
C21   C31   1.400368 A    
C22   C24   1.403528 A    
N5    O30   1.301170 A    
O11   V4    1.992833 S    
O20   V4    2.185377 S    
C28   C30   1.417657 A    
C15   C17   1.493206 S    
C18   C20   1.528003 S    
C52   F4    1.357909 S    
O5    V1    2.005681 S    
O6    V2    2.005687 S    
C53   O18   1.314344 A    
C11   C13   1.413296 A    
C44   N2    1.436402 S    
C31   C45   1.398918 A    
N4    O27   1.299973 A    
C30   C32   1.407152 A    
O16   C56   1.317463 A    
O13   C53   1.321228 A    
C21   H11   1.084549 S    
C24   C26   1.416998 A    
C3    C8    1.483083 S    
C37   C39   1.413472 A    
C48   H16   1.084143 S    
C20   H8    1.111363 S    
C36   F2    1.358496 S    
C50   C52   1.410005 A    
C49   C51   1.410008 A    
C26   N6    1.435344 S    
C41   C51   1.418521 A    
C43   C45   1.402663 A    
C27   C33   1.407440 A    
C28   C34   1.407432 A    
C27   C29   1.417665 A    
O15   V3    2.016457 S    
C29   C31   1.407155 A    
C42   C44   1.422184 A    
O4    V2    2.016522 S    
C25   N5    1.435355 S    
C54   O17   1.314343 A    
C38   C48   1.400445 A    
O6    C4    1.317659 A    
O20   V3    1.753063 S    
C39   C41   1.421640 A    
N1    O22   1.301443 A    
O1    V2    2.001011 S    
O12   C56   1.315393 A    
O17   V3    2.001176 S    
O2    V1    2.001009 S    
C21   C23   1.403528 A    
C19   H9    1.111828 S    
C37   C47   1.400444 A    
C50   C55   1.485446 S    
O4    C2    1.294302 A    
C8    C10   1.410501 A    
C12   C14   1.413295 A    
C33   C35   1.394553 A    
C5    C15   1.391323 A    
C10   H2    1.081688 S    
C47   H15   1.084148 S    
C6    C16   1.391324 A    
C43   N1    1.436399 S    
O3    V1    2.016520 S    
C17   H5    1.112099 S    
C9    C11   1.410986 A    
C18   H6    1.112099 S    
O3    C1    1.294303 A    
C48   C50   1.401981 A    
O19   V3    2.185381 S    
C45   H17   1.084381 S    
C11   H3    1.082171 S    
C1    C24   1.485883 S    
C12   H4    1.082170 S    
C46   H18   1.084378 S    
C9    H1    1.081689 S    
O7    V1    2.006074 S    
C1    O8    1.291888 A    
C13   C15   1.400351 A    
C30   C40   1.417701 A    
N3    O25   1.299973 A    
C14   C16   1.400351 A    
C29   C39   1.417705 A    
N2    O24   1.301446 A    
C4    C7    1.483082 S    
C51   F3    1.357917 S    
C5    C7    1.401438 A    
C34   C36   1.394553 A    
C6    C8    1.401437 A    
O15   C55   1.317464 A    
O14   V4    2.005497 S    
N6    O32   1.300341 A    
O13   V3    2.005491 S    
C22   C32   1.400370 A    
C17   N3    1.464266 S    
C10   C12   1.410986 A    
O9    V2    1.754004 S    
N1    O21   1.301039 A    
C42   C52   1.418520 A    
O10   V1    1.754007 S    
O8    V2    2.006074 S    
C5    C19   1.492742 S    
C22   H12   1.084549 S    
C14   C53   1.484239 S    
C6    C20   1.492741 S    
O16   V4    2.016457 S    
C16   C18   1.493206 S    
O11   C55   1.315394 A    
