data_mof_unit_49040.cif
_audit_creation_date              2012-12-10T19:00:46-0500
_audit_creation_method            fapswitch 2.2
_symmetry_space_group_name_H-M    P1
_symmetry_Int_Tables_number       1
_space_group_crystal_system       triclinic
_cell_length_a                    15.008282
_cell_length_b                    10.856009
_cell_length_c                    9.548245
_cell_angle_alpha                 90.026978
_cell_angle_beta                  89.697927
_cell_angle_gamma                 90.336292
_cell_volume                      1555.64741474

loop_
_atom_site_label
_atom_site_type_symbol
_atom_type_description
_atom_site_fract_x
_atom_site_fract_y
_atom_site_fract_z
_atom_type_partial_charge
C1    C     C_R   0.500659 0.262726 0.499854 0.808198
C2    C     C_R   0.907935 0.606377 0.439666 0.079558
C3    C     C_R   0.951052 0.311441 0.628719 -0.179151
C4    C     C_R   0.043913 0.311166 0.631472 -0.211570
C5    C     C_R   0.092297 0.406784 0.567789 0.114303
C6    C     C_R   0.047006 0.504077 0.501001 0.071954
C7    C     C_R   0.095419 0.599522 0.434580 0.112992
C8    C     C_R   0.050380 0.697114 0.371715 -0.220134
C9    C     C_R   0.957671 0.701245 0.375303 -0.166369
C10   C     C_R   0.185284 0.406999 0.569424 -0.250856
C11   C     C_R   0.232637 0.500648 0.500905 -0.048570
C12   C     C_R   0.328955 0.499404 0.500329 0.794852
C13   C     C_R   0.188238 0.595882 0.432677 -0.243637
C14   C     C_R   0.503011 0.062069 0.621220 0.102395
C15   C     C_R   0.502530 0.130119 0.498240 -0.110121
C16   C     C_R   0.503579 0.064565 0.370467 -0.191218
C17   C     C_R   0.503186 0.935399 0.370455 -0.184650
C18   C     C_R   0.501536 0.869927 0.498211 -0.075809
C19   C     C_R   0.501997 0.938032 0.621094 0.089958
C20   C     C_3   0.498292 0.928697 0.776634 -0.486471
C21   C     C_3   0.499421 0.070696 0.777043 -0.007033
C22   C     C_R   0.543198 0.591039 0.073021 0.239341
C23   C     C_R   0.500026 0.737286 0.499866 0.826729
C24   C     C_R   0.450285 0.417452 0.074816 -0.051902
C25   C     C_R   0.450089 0.417667 0.925932 -0.035081
C26   C     C_R   0.543672 0.590399 0.925697 0.240353
C27   C     C_3   0.640793 0.618759 0.918716 -0.474589
C28   C     C_3   0.640173 0.621444 0.077389 -0.462066
C29   C     C_R   0.671079 0.502651 0.499932 0.863521
C30   C     C_R   0.814196 0.608949 0.444984 0.066446
C31   C     C_R   0.767637 0.506996 0.500534 -0.103795
C32   C     C_R   0.812881 0.408820 0.561561 -0.262548
C33   C     C_R   0.905535 0.408371 0.564279 0.109318
C34   C     C_R   0.953391 0.506082 0.501061 0.028470
Cu1   Cu    Cu3+1 0.500000 0.499980 0.640670 0.963508
Cu2   Cu    Cu3+1 0.500000 0.500020 0.359330 0.959902
H1    H     H_    0.503691 0.887600 0.270848 0.171062
H2    H     H_    0.434300 0.888335 0.814325 0.175648
H3    H     H_    0.559164 0.886063 0.820367 0.221379
H4    H     H_    0.436182 0.111849 0.815365 0.120360
H5    H     H_    0.411477 0.349017 0.130890 0.134723
H6    H     H_    0.411031 0.349531 0.870413 0.129046
H7    H     H_    0.680650 0.541480 0.875391 0.236278
H8    H     H_    0.654831 0.710061 0.870732 0.202725
H9    H     H_    0.680999 0.547357 0.124669 0.237499
H10   H     H_    0.775495 0.332779 0.607180 0.169477
H11   H     H_    0.652063 0.715339 0.119446 0.223929
H12   H     H_    0.914769 0.236207 0.677689 0.162915
H13   H     H_    0.077891 0.235879 0.682608 0.146325
H14   H     H_    0.220975 0.333466 0.621243 0.128840
H15   H     H_    0.226190 0.668221 0.380923 0.135293
H16   H     H_    0.086937 0.770892 0.320421 0.148129
H17   H     H_    0.925952 0.778405 0.325018 0.185385
H18   H     H_    0.504057 0.112280 0.270855 0.178877
N1    N     N_R   0.500570 0.500930 0.147930 -0.184783
N2    N     N_R   0.500570 0.500890 0.852020 -0.180297
O1    O     O_R   0.500000 0.319640 0.618810 -0.571283
O2    O     O_R   0.500010 0.319680 0.381230 -0.588948
O3    O     O_R   0.370250 0.499950 0.618800 -0.586780
O4    O     O_R   0.370260 0.499990 0.381220 -0.585548
O5    O     O_R   0.499990 0.680320 0.618770 -0.580706
O6    O     O_R   0.500000 0.680360 0.381190 -0.584511
O7    O     O_R   0.629740 0.500010 0.618780 -0.572575
O8    O     O_R   0.629750 0.500050 0.381200 -0.566502
I1    I     I_    0.742512 0.771793 0.390070 -0.424394
I2    I     I_    0.619109 0.148061 0.862531 -0.387792

loop_
_geom_bond_atom_site_label_1
_geom_bond_atom_site_label_2
_ccdc_geom_bond_type
C25   H6    S    
C2    C9    A    
C11   C12   S    
C29   O7    A    
C28   H11   S    
C6    C7    A    
C1    C15   S    
C1    O1    A    
C21   I2    S    
C20   H2    S    
C8    H16   S    
Cu2   O8    S    
C19   C20   S    
C25   N2    A    
C23   O5    A    
C4    H13   S    
Cu1   O1    S    
C32   C33   A    
C2    C34   A    
C17   H1    S    
C17   C18   A    
C29   O8    A    
C5    C10   A    
C29   C31   S    
Cu2   N1    S    
C22   C28   S    
C1    O2    A    
C24   C25   A    
C24   N1    A    
C24   H5    S    
C11   C13   A    
C26   C27   S    
C22   N1    A    
C21   H4    S    
C10   H14   S    
C18   C23   S    
Cu2   O6    S    
C5    C6    A    
C14   C19   A    
C14   C21   S    
Cu1   O3    S    
C33   C34   A    
Cu2   O2    S    
C30   C31   A    
C31   C32   A    
C16   H18   S    
C28   H9    S    
C30   I1    S    
C7    C8    A    
C10   C11   A    
C3    C33   A    
C15   C16   A    
C12   O4    A    
C27   H7    S    
C3    H12   S    
C7    C13   A    
C9    H17   S    
C20   C21   S    
Cu1   O5    S    
C18   C19   A    
C22   C26   A    
C27   C28   S    
C20   H3    S    
C14   C15   A    
C16   C17   A    
C2    C30   A    
Cu1   O7    S    
C4    C5    A    
Cu1   N2    S    
C13   H15   S    
C12   O3    A    
C32   H10   S    
C27   H8    S    
C23   O6    A    
C3    C4    A    
C6    C34   A    
C8    C9    A    
Cu2   O4    S    
Cu1   Cu2   S    
C26   N2    A    
