data_mof_unit_66420.cif
_audit_creation_date              2013-03-05T16:07:30-0500
_audit_creation_method            fapswitch 2.2
_symmetry_space_group_name_H-M    P1
_symmetry_Int_Tables_number       1
_space_group_crystal_system       triclinic
_cell_length_a                    11.56878
_cell_length_b                    10.796383
_cell_length_c                    10.569533
_cell_angle_alpha                 90.702513
_cell_angle_beta                  90.068169
_cell_angle_gamma                 89.978921
_cell_volume                      1320.04477868

loop_
_atom_site_label
_atom_site_type_symbol
_atom_site_description
_atom_site_fract_x
_atom_site_fract_y
_atom_site_fract_z
_atom_type_partial_charge
O1    O     O_R   0.334450 0.602530 0.499980 -0.594242
O2    O     O_R   0.665550 0.397470 0.500020 -0.594267
O3    O     O_R   0.665550 0.602530 0.500020 -0.619333
O4    O     O_R   0.334450 0.397470 0.499980 -0.619230
N1    N     N_1   0.500000 0.180630 0.500000 -0.057932
N2    N     N_1   0.500000 0.819370 0.500000 -0.057950
C1    C     C_R   0.281225 0.500018 0.500042 0.906385
C2    C     C_R   0.718774 0.499981 0.499958 0.906486
O5    O     O_R   0.499970 0.602510 0.313950 -0.596850
O6    O     O_R   0.500030 0.397490 0.686050 -0.596642
O7    O     O_R   0.500030 0.602510 0.686050 -0.584873
O8    O     O_R   0.499970 0.397490 0.313950 -0.584787
C3    C     C_R   0.499590 0.499053 0.256926 0.992194
C4    C     C_R   0.500433 0.500947 0.743073 0.992180
Zn1   Zn    Zn3+2 0.500000 0.636920 0.500000 1.060672
Zn2   Zn    Zn3+2 0.500000 0.363080 0.500000 1.060772
C5    C     C_1   0.500000 0.069809 0.499999 0.130511
C6    C     C_1   0.500000 0.930190 0.500001 0.130515
C7    C     C_3   0.407308 0.561534 0.043302 0.339038
C8    C     C_3   0.592728 0.438476 0.956689 0.338872
C9    C     C_3   0.504208 0.618518 0.963119 0.380453
C10   C     C_3   0.495834 0.381494 0.036880 0.380257
C11   C     C_3   0.403497 0.446211 0.956299 -0.069298
C12   C     C_3   0.596544 0.553797 0.043696 -0.069159
C13   C     C_3   0.500310 0.502928 0.877003 -0.317704
C14   C     C_3   0.499732 0.497076 0.122994 -0.317679
C15   C     C_1   0.161088 0.500045 0.500053 -0.124828
C16   C     C_1   0.838912 0.499955 0.499946 -0.124778
C17   C     C_1   0.059171 0.500023 0.500027 0.044982
C18   C     C_1   0.940829 0.499977 0.499972 0.044944
C19   C     C_3   0.293985 0.386454 0.903986 -0.661817
H1    H     H_    0.238499 0.356113 0.983369 0.268655
H2    H     H_    0.245957 0.454404 0.846009 0.228122
H3    H     H_    0.316897 0.304882 0.844202 0.253723
C20   C     C_3   0.706135 0.613431 0.095968 -0.662385
H4    H     H_    0.683310 0.693681 0.157764 0.253017
H5    H     H_    0.755232 0.544639 0.151943 0.229235
H6    H     H_    0.760585 0.645742 0.016537 0.268898
Cl1   Cl    Cl    0.284312 0.641816 0.104454 -0.512814
Cl2   Cl    Cl    0.715718 0.358192 0.895522 -0.512919
Cl3   Cl    Cl    0.509870 0.776442 0.915630 -0.465177
Cl4   Cl    Cl    0.490190 0.223572 0.084381 -0.465248

loop_
_geom_bond_atom_site_label_1
_geom_bond_atom_site_label_2
_geom_bond_distance
_ccdc_geom_bond_type
O4    Zn2   1.950735 S    
C7    C11   1.539364 S    
C19   H2    1.110116 S    
C17   C18   1.369070 S    
O1    Zn1   1.951003 S    
C15   C17   1.179055 T    
O2    Zn2   1.951001 S    
C19   H1    1.109733 S    
C16   C18   1.179056 T    
C5    C6    1.507382 S    
O5    Zn1   1.996766 S    
C19   H3    1.109828 S    
O3    Zn1   1.950734 S    
O6    Zn2   1.996765 S    
C10   Cl4   1.784506 S    
C7    Cl1   1.783606 S    
O4    C1    1.266652 A    
C9    Cl3   1.784498 S    
C7    C9    1.539139 S    
C8    C10   1.539135 S    
C11   C13   1.532040 S    
C4    C13   1.415481 S    
O6    C4    1.262685 A    
C8    Cl2   1.783620 S    
N2    C6    1.196460 T    
C3    C14   1.415501 S    
C12   C20   1.522294 S    
N1    C5    1.196460 T    
C8    C13   1.532438 S    
O8    Zn2   2.005717 S    
C20   H6    1.109925 S    
C1    C15   1.389844 S    
O8    C3    1.257709 A    
C2    C16   1.389844 S    
O3    C2    1.266652 A    
C10   C14   1.536142 S    
C9    C12   1.538361 S    
O7    C4    1.257697 A    
C7    C14   1.532554 S    
C9    C13   1.536225 S    
C10   C11   1.538372 S    
N1    Zn2   1.969800 S    
O5    C3    1.262684 A    
C20   H5    1.110821 S    
N2    Zn1   1.969799 S    
O1    C1    1.266714 A    
O7    Zn1   2.005717 S    
O2    C2    1.266714 A    
C8    C12   1.539376 S    
C12   C14   1.532058 S    
C20   H4    1.110571 S    
C11   C19   1.522245 S    
