data_mof_unit_42107.cif
_audit_creation_date              2012-10-26T19:25:18-0400
_audit_creation_method            fapswitch 2.2
_symmetry_space_group_name_H-M    P1
_symmetry_Int_Tables_number       1
_space_group_crystal_system       triclinic
_cell_length_a                    12.302471
_cell_length_b                    13.30297
_cell_length_c                    19.337249
_cell_angle_alpha                 77.404014
_cell_angle_beta                  101.165862
_cell_angle_gamma                 116.440375
_cell_volume                      2748.55455324

loop_
_atom_site_label
_atom_site_type_symbol
_atom_type_description
_atom_site_fract_x
_atom_site_fract_y
_atom_site_fract_z
_atom_type_partial_charge
C1    C     C_R   0.854501 0.287342 0.504525 0.536814
C2    C     C_R   0.014897 0.509011 0.147396 0.036366
C3    C     C_R   0.261999 0.031756 0.437703 0.015199
C4    C     C_R   0.002830 0.505477 0.631961 0.546800
C5    C     C_R   0.229422 0.833858 0.471513 -0.006660
C6    C     C_R   0.813424 0.085100 0.541155 -0.116806
C7    C     C_R   0.732843 0.971391 0.556535 -0.004334
C8    C     C_R   0.608316 0.938260 0.535304 -0.104731
C9    C     C_R   0.563086 0.015004 0.492339 0.017859
C10   C     C_R   0.645021 0.130198 0.476263 0.015261
C11   C     C_R   0.436273 0.981026 0.469154 0.029821
C12   C     C_R   0.008331 0.518139 0.706955 0.010297
C13   C     C_R   0.389881 0.064282 0.443798 0.052371
C14   C     C_R   0.472698 0.175588 0.421984 -0.142134
C15   C     C_R   0.597584 0.205310 0.433120 -0.124213
C16   C     C_R   0.145574 0.713014 0.486779 0.541442
C17   C     C_R   0.354499 0.866568 0.467853 -0.015137
C18   C     C_R   0.184717 0.917262 0.457274 -0.149261
C19   C     C_R   0.770490 0.166191 0.504684 -0.018183
C20   C     C_R   0.351154 0.336641 0.619093 -0.157337
C21   C     C_R   0.756043 0.648509 0.403902 0.176424
C22   C     C_R   0.655503 0.677257 0.385194 -0.008591
C23   C     C_R   0.021557 0.514865 0.071606 0.340457
C24   C     C_R   0.553881 0.616845 0.421441 -0.135837
C25   C     C_R   0.549307 0.529889 0.477859 -0.026257
C26   C     C_R   0.652936 0.503526 0.497224 0.152920
C27   C     C_R   0.445767 0.471358 0.517089 -0.013693
C28   C     C_R   0.000350 0.499825 0.367729 0.533617
C29   C     C_R   0.449310 0.391145 0.577831 0.028476
C30   C     C_R   0.549871 0.365005 0.596220 -0.176852
C31   C     C_R   0.648630 0.418793 0.556279 -0.102831
C32   C     C_R   0.338093 0.489801 0.498762 0.024199
C33   C     C_R   0.250456 0.362470 0.599950 0.038239
C34   C     C_R   0.020525 0.524337 0.929973 0.332705
C35   C     C_R   0.057375 0.455655 0.760282 -0.154746
C36   C     C_R   0.061786 0.460986 0.831549 -0.139551
C37   C     C_R   0.016267 0.528081 0.852345 0.027414
C38   C     C_R   0.966336 0.593940 0.799334 0.037606
C39   C     C_R   0.965889 0.591412 0.725825 0.003313
C40   C     C_3   0.204808 0.115442 0.412606 -0.286298
C41   C     C_3   0.226795 0.187172 0.469844 -0.425235
C42   C     C_3   0.395027 0.789148 0.443000 -0.388463
C43   C     C_3   0.777783 0.885317 0.598399 -0.413207
C44   C     C_3   0.862585 0.720527 0.360218 -0.321756
C45   C     C_R   0.055309 0.437984 0.199587 -0.122270
C46   C     C_3   0.654445 0.773513 0.326472 -0.413015
C47   C     C_3   0.903325 0.657127 0.820513 -0.257276
C48   C     C_3   0.989883 0.781634 0.826149 -0.414790
C49   C     C_3   0.922318 0.666702 0.667359 -0.376223
C50   C     C_R   0.050930 0.435186 0.271605 -0.135404
C51   C     C_R   0.002924 0.500987 0.292044 0.015480
C52   C     C_R   0.960073 0.569933 0.239676 -0.135876
C53   C     C_R   0.967456 0.575041 0.167944 -0.118051
Cu1   Cu    Cu3+1 0.098280 0.475420 0.516260 0.912878
Cu2   Cu    Cu3+1 0.901720 0.524580 0.483740 0.892760
H1    H     H_    0.091311 0.400661 0.746823 0.124782
H2    H     H_    0.323223 0.543481 0.451315 0.115518
H3    H     H_    0.480213 0.642260 0.405090 0.094577
H4    H     H_    0.720271 0.392072 0.574638 0.189468
H5    H     H_    0.092367 0.386509 0.184761 0.126819
H6    H     H_    0.084169 0.381049 0.311265 0.120683
H7    H     H_    0.923231 0.621664 0.254190 0.111349
H8    H     H_    0.934819 0.629735 0.128421 0.129237
H9    H     H_    0.088188 0.892543 0.457744 0.123493
H10   H     H_    0.186077 0.131944 0.518648 0.151884
H11   H     H_    0.325923 0.236481 0.483520 0.169326
H12   H     H_    0.442504 0.240197 0.394469 0.115138
H13   H     H_    0.183796 0.247369 0.449908 0.153632
H14   H     H_    0.240082 0.170567 0.362573 0.136422
H15   H     H_    0.104390 0.069920 0.399393 0.136180
H16   H     H_    0.325760 0.743014 0.401383 0.132746
H17   H     H_    0.481266 0.837982 0.417793 0.123309
H18   H     H_    0.409072 0.727182 0.488145 0.146228
H19   H     H_    0.878540 0.923873 0.611806 0.119713
H20   H     H_    0.734720 0.848014 0.648836 0.132698
H21   H     H_    0.753179 0.816484 0.566624 0.138972
H22   H     H_    0.900601 0.810064 0.369315 0.087792
H23   H     H_    0.909057 0.111264 0.561360 0.125823
H24   H     H_    0.939611 0.698946 0.368777 0.190056
H25   H     H_    0.830306 0.716809 0.302764 0.084199
H26   H     H_    0.661672 0.755889 0.274451 0.134980
H27   H     H_    0.569020 0.785298 0.320471 0.126977
H28   H     H_    0.731212 0.854827 0.338547 0.131762
H29   H     H_    0.072002 0.788914 0.864183 0.189079
H30   H     H_    0.021650 0.829964 0.774061 0.135365
H31   H     H_    0.941515 0.822236 0.844916 0.139808
H32   H     H_    0.821871 0.652474 0.782299 0.130720
H33   H     H_    0.863513 0.614505 0.871486 0.165095
H34   H     H_    0.547310 0.852646 0.554841 0.123230
H35   H     H_    0.988400 0.709806 0.627020 0.153537
H36   H     H_    0.830672 0.614857 0.641779 0.154925
H37   H     H_    0.914712 0.736004 0.685498 0.109128
H38   H     H_    0.654801 0.288364 0.407725 0.162094
H39   H     H_    0.174902 0.321556 0.632009 0.120078
H40   H     H_    0.552265 0.301955 0.641985 0.114698
H41   H     H_    0.352507 0.274979 0.665878 0.094209
H42   H     H_    0.100641 0.411023 0.871073 0.137248
N1    N     N_R   0.040984 0.617751 0.957065 -0.246438
N2    N     N_R   0.040323 0.613014 0.026334 -0.237637
N3    N     N_R   0.005483 0.422042 0.045256 -0.230088
N4    N     N_R   0.004805 0.426698 0.975682 -0.232568
N5    N     N_R   0.246290 0.438200 0.540910 -0.235278
N6    N     N_R   0.754310 0.561190 0.459520 -0.236222
O1    O     O_R   0.972510 0.318130 0.520450 -0.504210
O2    O     O_R   0.806530 0.359650 0.492990 -0.525721
O3    O     O_R   0.083010 0.479220 0.613590 -0.496150
O4    O     O_R   0.917030 0.520740 0.586130 -0.522886
O5    O     O_R   0.193470 0.640350 0.507010 -0.494183
O6    O     O_R   0.027490 0.681870 0.479550 -0.525828
O7    O     O_R   0.082970 0.479260 0.413870 -0.511171
O8    O     O_R   0.916990 0.520780 0.386410 -0.518293

loop_
_geom_bond_atom_site_label_1
_geom_bond_atom_site_label_2
_ccdc_geom_bond_type
C23   N2    A    
C45   H5    S    
C27   C29   A    
C34   C37   S    
C11   C13   A    
C35   C36   A    
C49   H35   S    
C33   H39   S    
C7    C8    A    
C6    C19   A    
C29   C30   A    
C40   H15   S    
Cu2   O2    S    
C22   C24   A    
Cu1   O1    S    
C44   H22   S    
C10   C15   A    
C30   C31   A    
C28   C51   S    
C6    H23   S    
C5    C17   A    
C46   H26   S    
Cu2   N6    S    
Cu1   O7    S    
C3    C18   A    
C31   H4    S    
C17   C42   S    
C42   H16   S    
C5    C16   S    
C46   H27   S    
C8    C9    A    
C22   C46   S    
C14   H12   S    
C36   H42   S    
C7    C43   S    
C4    C12   S    
C9    C10   A    
C3    C13   A    
C43   H19   S    
C23   N3    A    
C20   H41   S    
C26   C31   A    
C2    C45   A    
C21   C22   A    
Cu2   O6    S    
C32   H2    S    
C49   H36   S    
C16   O6    A    
C41   H13   S    
C20   C29   A    
C28   O8    A    
C43   H20   S    
C4    O4    A    
C1    C19   S    
C34   N4    A    
C40   H14   S    
Cu1   O3    S    
C33   N5    A    
C44   H25   S    
C24   C25   A    
C41   H10   S    
C5    C18   A    
C28   O7    A    
C25   C26   A    
C4    O3    A    
C48   H29   S    
Cu2   O4    S    
C47   H32   S    
C15   H38   S    
C37   C38   A    
C26   N6    A    
C21   C44   S    
C47   C48   S    
C10   C19   A    
C42   H17   S    
C50   C51   A    
C12   C35   A    
C9    C11   A    
C1    O1    A    
C38   C47   S    
C41   H11   S    
C20   C33   A    
C24   H3    S    
C40   C41   S    
C39   C49   S    
C3    C40   S    
C48   H31   S    
C49   H37   S    
C52   C53   A    
C43   H21   S    
Cu1   Cu2   S    
C11   C17   A    
C42   H18   S    
Cu2   O8    S    
C27   C32   A    
C14   C15   A    
Cu1   N5    S    
C44   H24   S    
C2    C53   A    
C35   H1    S    
C6    C7    A    
C25   C27   A    
Cu1   O5    S    
C47   H33   S    
C12   C39   A    
C51   C52   A    
C52   H7    S    
C53   H8    S    
C18   H9    S    
C38   C39   A    
C45   C50   A    
N3    N4    A    
C34   N1    A    
C30   H40   S    
C32   N5    A    
C16   O5    A    
C46   H28   S    
C21   N6    A    
C36   C37   A    
N1    N2    A    
C2    C23   S    
C50   H6    S    
C48   H30   S    
C8    H34   S    
C13   C14   A    
C1    O2    A    
