data_mof_unit_51463.cif
_audit_creation_date              2012-12-11T16:43:21-0500
_audit_creation_method            fapswitch 2.2
_symmetry_space_group_name_H-M    P1
_symmetry_Int_Tables_number       1
_space_group_crystal_system       triclinic
_cell_length_a                    6.921236
_cell_length_b                    23.21788
_cell_length_c                    25.844728
_cell_angle_alpha                 104.729071
_cell_angle_beta                  90.262904
_cell_angle_gamma                 90.312135
_cell_volume                      4016.54186093

loop_
_atom_site_label
_atom_site_type_symbol
_atom_type_description
_atom_site_fract_x
_atom_site_fract_y
_atom_site_fract_z
_atom_type_partial_charge
O1    O     O_R   0.505750 0.453350 0.547660 -0.541048
O2    O     O_R   0.170990 0.432220 0.437590 -0.538739
O3    O     O_R   0.005600 0.546650 0.452340 -0.538331
C1    C     C_R   0.339995 0.415175 0.417765 0.713079
O4    O     O_R   0.175720 0.446240 0.546340 -0.542650
O5    O     O_R   0.010370 0.560770 0.561860 -0.539229
C2    C     C_R   0.344821 0.434425 0.563058 0.686476
O6    O     O_R   0.500990 0.439230 0.438140 -0.537431
O7    O     O_3   0.340820 0.537560 0.504970 -0.368374
V1    V     V_3+5 0.064050 0.493030 0.499080 1.397457
O8    O     O_R   0.680940 0.567780 0.562410 -0.542770
C3    C     C_R   0.850529 0.584495 0.582451 0.708704
O9    O     O_R   0.676210 0.553760 0.453660 -0.541406
C4    C     C_R   0.844689 0.565671 0.437024 0.700426
V2    V     V_3+5 0.564640 0.506970 0.500920 1.395083
O10   O     O_3   0.837740 0.462440 0.495030 -0.367768
C5    C     C_R   0.815577 0.853790 0.096595 -0.211546
H1    H     H_    0.716457 0.846152 0.063007 0.127079
C6    C     C_R   0.802742 0.817344 0.132028 -0.145466
H2    H     H_    0.692617 0.782876 0.125260 0.118252
C7    C     C_R   0.928226 0.825810 0.176167 0.058168
C8    C     C_R   0.067032 0.871666 0.184069 -0.171059
H3    H     H_    0.164218 0.878439 0.218102 0.107772
C9    C     C_R   0.082986 0.908658 0.148563 0.139687
C10   C     C_R   0.956054 0.899069 0.103600 -0.060652
C11   C     C_R   0.922524 0.812076 0.269849 -0.151897
H4    H     H_    0.938361 0.859736 0.285763 0.110480
C12   C     C_R   0.906969 0.775857 0.305571 -0.160329
H5    H     H_    0.912040 0.796224 0.348197 0.114978
C13   C     C_R   0.882499 0.713961 0.286535 0.072440
C14   C     C_R   0.878607 0.688871 0.230993 -0.146401
H6    H     H_    0.865944 0.641161 0.215274 0.119458
C15   C     C_R   0.891806 0.725111 0.195242 -0.157756
H7    H     H_    0.888046 0.704484 0.152663 0.110447
C16   C     C_R   0.913668 0.787202 0.214218 0.093530
C17   C     C_R   0.701751 0.639079 0.326281 0.166205
C18   C     C_R   0.696787 0.604173 0.363665 -0.178212
H8    H     H_    0.570336 0.576940 0.365261 0.124824
C19   C     C_R   0.852557 0.603653 0.398601 -0.084833
C20   C     C_R   0.013941 0.639814 0.396640 -0.171433
H9    H     H_    0.135391 0.640857 0.423451 0.126268
C21   C     C_R   0.018492 0.676181 0.360967 -0.180502
H10   H     H_    0.142905 0.704752 0.361327 0.115395
C22   C     C_R   0.865822 0.675695 0.324775 0.051587
C23   C     C_R   0.714475 0.640317 0.670126 -0.228445
C24   C     C_R   0.862170 0.633283 0.632092 -0.081843
C25   C     C_R   0.022476 0.671776 0.642262 -0.227609
C26   C     C_R   0.035377 0.717172 0.689794 0.099827
C27   C     C_R   0.888503 0.723358 0.728737 0.029023
C28   C     C_R   0.726424 0.684420 0.719087 0.061578
C29   C     C_R   0.194827 0.756006 0.699239 -0.197033
C30   C     C_R   0.210269 0.800564 0.746846 -0.175850
C31   C     C_R   0.067138 0.806988 0.786099 0.098853
C32   C     C_R   0.905777 0.768200 0.777444 0.016114
C33   C     C_R   0.763630 0.773748 0.817481 0.040927
C34   C     C_R   0.601010 0.735524 0.806532 -0.232162
C35   C     C_R   0.581593 0.690746 0.758711 0.127961
C36   C     C_R   0.081911 0.852581 0.833232 -0.251395
C37   C     C_R   0.941978 0.859521 0.873442 -0.113435
C38   C     C_R   0.788026 0.816952 0.867594 0.048545
H11   H     H_    0.593329 0.609799 0.661370 0.123733
H12   H     H_    0.136797 0.666638 0.612915 0.125063
H13   H     H_    0.308694 0.751633 0.669875 0.129864
H14   H     H_    0.335220 0.829912 0.753094 0.129949
H15   H     H_    0.201968 0.883785 0.838236 0.131932
H16   H     H_    0.486789 0.739314 0.835499 0.148404
C39   C     C_R   0.318747 0.185838 0.130121 0.036649
C40   C     C_R   0.456349 0.139527 0.127940 -0.111430
C41   C     C_R   0.579470 0.142550 0.171914 -0.266315
C42   C     C_R   0.562089 0.188165 0.219109 0.097775
C43   C     C_R   0.417675 0.231750 0.223180 0.023408
C44   C     C_R   0.297351 0.231562 0.178636 0.079353
C45   C     C_R   0.686215 0.190475 0.262763 -0.173978
C46   C     C_R   0.667027 0.235218 0.310297 -0.184124
C47   C     C_R   0.521630 0.278155 0.315449 0.094918
C48   C     C_R   0.396082 0.276404 0.271871 0.056741
C49   C     C_R   0.250248 0.319692 0.276839 0.104236
C50   C     C_R   0.134066 0.319992 0.232616 -0.184964
C51   C     C_R   0.160166 0.277763 0.184045 -0.198340
C52   C     C_R   0.501065 0.323249 0.363148 -0.213687
C53   C     C_R   0.352809 0.365699 0.368585 -0.085354
C54   C     C_R   0.226532 0.363127 0.325407 -0.219997
H17   H     H_    0.686672 0.108126 0.169798 0.126091
H18   H     H_    0.798748 0.157595 0.260119 0.125580
H19   H     H_    0.765486 0.236026 0.343193 0.126641
H20   H     H_    0.599943 0.325247 0.396235 0.122346
H21   H     H_    0.114903 0.396479 0.328921 0.118907
H22   H     H_    0.024413 0.353751 0.235242 0.126378
H23   H     H_    0.070039 0.282339 0.151202 0.135001
C55   C     C_R   0.274428 0.117830 0.879608 -0.164883
H24   H     H_    0.142187 0.098669 0.890320 0.120278
C56   C     C_R   0.263219 0.154122 0.844026 -0.144319
H25   H     H_    0.123188 0.161192 0.827928 0.100722
C57   C     C_R   0.430776 0.179718 0.828455 0.094728
C58   C     C_R   0.609944 0.168226 0.849709 -0.142806
H26   H     H_    0.741603 0.187941 0.839319 0.098562
C59   C     C_R   0.621311 0.131701 0.885193 -0.162663
H27   H     H_    0.761632 0.123805 0.900665 0.117001
C60   C     C_R   0.453685 0.105847 0.900461 -0.055239
C61   C     C_R   0.561606 0.214693 0.750745 -0.152046
H28   H     H_    0.682014 0.184488 0.747852 0.110189
C62   C     C_R   0.548782 0.249611 0.714000 -0.152935
H29   H     H_    0.659906 0.245361 0.683936 0.108527
C63   C     C_R   0.392495 0.288450 0.715264 0.081852
C64   C     C_R   0.249519 0.291480 0.754354 -0.153564
H30   H     H_    0.128912 0.321595 0.757121 0.108559
C65   C     C_R   0.262412 0.256584 0.791138 -0.153757
H31   H     H_    0.151179 0.260789 0.821164 0.106927
C66   C     C_R   0.418510 0.217635 0.789796 0.081946
C67   C     C_R   0.200220 0.336067 0.654196 -0.143684
H32   H     H_    0.068956 0.316385 0.664877 0.099791
C68   C     C_R   0.188577 0.371101 0.617450 -0.165793
H33   H     H_    0.048352 0.378007 0.601355 0.119623
C69   C     C_R   0.355913 0.396585 0.601591 -0.055317
C70   C     C_R   0.534898 0.386260 0.623590 -0.166031
H34   H     H_    0.666759 0.405514 0.612755 0.120200
C71   C     C_R   0.546393 0.351410 0.660364 -0.146988
H35   H     H_    0.686264 0.345320 0.677073 0.100337
C72   C     C_R   0.379372 0.325748 0.676131 0.095374
O11   O     O_R   0.308350 0.060850 0.061810 -0.535389
O12   O     O_R   0.633860 0.053770 0.953650 -0.540165
O13   O     O_R   0.798960 0.939210 0.938150 -0.539717
C73   C     C_R   0.464715 0.066329 0.937530 0.685335
O14   O     O_R   0.638360 0.067800 0.062400 -0.544670
O15   O     O_R   0.803500 0.953330 0.047670 -0.542003
C74   C     C_R   0.469046 0.086400 0.081115 0.709633
O16   O     O_R   0.303810 0.046730 0.952290 -0.539053
O17   O     O_3   0.468430 0.962490 0.995010 -0.367693
V3    V     V_3+5 0.745300 0.006960 0.000930 1.362925
O18   O     O_R   0.132880 0.946160 0.046390 -0.539877
C75   C     C_R   0.964811 0.935540 0.063950 0.693132
O19   O     O_R   0.128380 0.932130 0.937650 -0.538459
C76   C     C_R   0.957542 0.912674 0.919919 0.710023
V4    V     V_3+5 0.244670 0.992930 0.999140 1.381320
O20   O     O_3   0.971670 0.037510 0.005000 -0.370739
C77   C     C_3   0.657916 0.814503 0.914806 -0.349591
C78   C     C_3   0.692715 0.757866 0.934114 -0.334137
C79   C     C_3   0.523606 0.745316 0.967458 -0.777381
H36   H     H_    0.494767 0.784508 0.001309 0.225305
H37   H     H_    0.391536 0.734628 0.942143 0.225322
H38   H     H_    0.557972 0.706640 0.983721 0.219768
H39   H     H_    0.713754 0.718136 0.900254 0.206408
H40   H     H_    0.826800 0.763849 0.958849 0.188026
H41   H     H_    0.682081 0.851645 0.950484 0.187759
H42   H     H_    0.504440 0.818363 0.903424 0.176147
C80   C     C_3   0.405624 0.650021 0.752430 -0.340515
C81   C     C_3   0.453362 0.589273 0.762609 -0.314981
C82   C     C_3   0.509663 0.594370 0.820862 -0.720490
H43   H     H_    0.648268 0.619088 0.830800 0.226990
H44   H     H_    0.395248 0.617615 0.848223 0.220852
H45   H     H_    0.528498 0.549135 0.827065 0.209000
H46   H     H_    0.323532 0.560068 0.752715 0.184702
H47   H     H_    0.572224 0.567451 0.736192 0.190905
H48   H     H_    0.288911 0.671023 0.780239 0.175067
H49   H     H_    0.341869 0.643482 0.711915 0.148289
C83   C     C_3   0.206893 0.189229 0.080061 -0.378229
C84   C     C_3   0.994141 0.170586 0.082049 -0.261674
C85   C     C_3   0.883049 0.179356 0.033418 -0.703092
H50   H     H_    0.888740 0.226874 0.032415 0.202186
H51   H     H_    0.945876 0.151634 0.995896 0.224662
H52   H     H_    0.729275 0.166567 0.035642 0.206802
H53   H     H_    0.985997 0.123407 0.083489 0.225052
H54   H     H_    0.921589 0.196484 0.118652 0.180916
H55   H     H_    0.217439 0.235206 0.074895 0.163715
H56   H     H_    0.273867 0.161267 0.043332 0.165916
C86   C     C_3   0.232700 0.958423 0.161003 -0.362453
C87   C     C_3   0.139193 0.019762 0.178697 -0.746075
H57   H     H_    0.052150 0.029798 0.145976 0.213725
H58   H     H_    0.044827 0.021978 0.213782 0.219189
H59   H     H_    0.253493 0.054455 0.190308 0.219523
H60   H     H_    0.330068 0.953474 0.193916 0.172001
H61   H     H_    0.328042 0.956102 0.126193 0.195149
C88   C     C_3   0.525121 0.638348 0.291304 -0.379458
C89   C     C_3   0.502305 0.578833 0.249664 -0.752649
H62   H     H_    0.632966 0.568902 0.224322 0.220833
H63   H     H_    0.477928 0.542193 0.269428 0.223092
H64   H     H_    0.375722 0.580777 0.223620 0.220613
H65   H     H_    0.395137 0.645798 0.316953 0.181315
H66   H     H_    0.528124 0.674766 0.270677 0.192506

loop_
_geom_bond_atom_site_label_1
_geom_bond_atom_site_label_2
_ccdc_geom_bond_type
C33   C34   A    
C47   C48   A    
C86   H61   S    
C84   C85   S    
C67   C68   A    
C45   C46   A    
C64   H30   S    
O2    C1    A    
C58   H26   S    
C82   H45   S    
C1    O6    A    
O17   V3    S    
C25   H12   S    
C68   C69   A    
C69   C70   A    
C87   H58   S    
C49   C50   A    
C64   C65   A    
C11   H4    S    
C23   C28   A    
C2    C69   S    
C7    C8    A    
C12   H5    S    
C6    C7    A    
C82   H44   S    
C44   C51   A    
C61   C66   A    
C41   C42   A    
C71   C72   A    
O5    C3    A    
C43   C48   A    
C52   C53   A    
O11   C74   A    
C88   H66   S    
C54   H21   S    
C34   C35   A    
C39   C44   A    
C24   C25   A    
C89   H62   S    
C68   H33   S    
C52   H20   S    
C85   H52   S    
C62   H29   S    
C4    C19   S    
V3    O20   S    
C73   O16   A    
C26   C29   A    
C80   H49   S    
C81   C82   S    
C88   H65   S    
O19   C76   A    
C70   C71   A    
C65   H31   S    
C14   C15   A    
C42   C43   A    
O1    V2    S    
O9    C4    A    
O7    V1    S    
C38   C77   S    
O13   V3    S    
C77   H42   S    
C63   C72   S    
C20   C21   A    
C78   H40   S    
C49   C54   A    
C37   C38   A    
C27   C32   A    
C33   C38   A    
C85   H51   S    
C65   C66   A    
C13   C22   S    
C86   C87   S    
O18   V4    S    
C21   C22   A    
C61   C62   A    
C63   C64   A    
C59   C60   A    
C59   H27   S    
C87   H59   S    
C17   C88   S    
C78   H39   S    
C51   H23   S    
V2    O10   S    
C1    C53   S    
C29   C30   A    
C25   C26   A    
C29   H13   S    
C9    C10   A    
C3    C24   S    
C30   H14   S    
C87   H57   S    
O4    C2    A    
C50   C51   A    
C40   C41   A    
C36   C37   A    
C88   C89   S    
C37   C76   S    
C53   C54   A    
C67   H32   S    
C39   C83   S    
C83   C84   S    
C9    C86   S    
C39   C40   A    
O13   C76   A    
C18   H8    S    
C41   H17   S    
O17   V4    S    
O15   C75   A    
C36   H15   S    
C55   C56   A    
C14   H6    S    
C80   H48   S    
C31   C36   A    
C42   C45   A    
C56   C57   A    
C5    H1    S    
C48   C49   A    
C62   C63   A    
C56   H25   S    
C89   H64   S    
O3    C4    A    
C79   H37   S    
O19   V4    S    
C26   C27   A    
O6    V2    S    
O8    V2    S    
O9    V2    S    
C85   H50   S    
C8    C9    A    
C17   C22   A    
C21   H10   S    
O2    V1    S    
C40   C74   S    
C55   C60   A    
C19   C20   A    
C30   C31   A    
O14   C74   A    
C80   C81   S    
C47   C52   A    
C60   C73   S    
C50   H22   S    
C84   H54   S    
C32   C33   A    
C17   C18   A    
O16   V4    S    
C45   H18   S    
O1    C2    A    
C28   C35   A    
O12   V3    S    
C77   C78   S    
C79   H38   S    
C67   C72   A    
O5    V1    S    
C23   C24   A    
O8    C3    A    
C58   C59   A    
C31   C32   A    
V4    O20   S    
C7    C16   S    
C78   C79   S    
C57   C66   S    
C11   C12   A    
C5    C10   A    
C6    H2    S    
C12   C13   A    
C81   H46   S    
O7    V2    S    
O4    V1    S    
C18   C19   A    
O3    V1    S    
V1    O10   S    
C71   H35   S    
C15   C16   A    
C55   H24   S    
C13   C14   A    
C83   H56   S    
C34   H16   S    
C23   H11   S    
C61   H28   S    
C5    C6    A    
C15   H7    S    
O14   V3    S    
O18   C75   A    
O11   V4    S    
C82   H43   S    
C46   H19   S    
C57   C58   A    
C81   H47   S    
C89   H63   S    
O12   C73   A    
C79   H36   S    
O15   V3    S    
C11   C16   A    
C86   H60   S    
C43   C44   A    
C46   C47   A    
C83   H55   S    
C77   H41   S    
C27   C28   A    
C8    H3    S    
C20   H9    S    
C35   C80   S    
C84   H53   S    
C70   H34   S    
C10   C75   S    
