data_mof_unit_20676.cif
_audit_creation_date              2012-12-11T15:33:59-0500
_audit_creation_method            fapswitch 2.2
_symmetry_space_group_name_H-M    P1
_symmetry_Int_Tables_number       1
_space_group_crystal_system       triclinic
_cell_length_a                    15.039391
_cell_length_b                    15.065526
_cell_length_c                    34.898997
_cell_angle_alpha                 90.604993
_cell_angle_beta                  89.833143
_cell_angle_gamma                 60.095277
_cell_volume                      6853.78928483

loop_
_atom_site_label
_atom_site_type_symbol
_atom_type_description
_atom_site_fract_x
_atom_site_fract_y
_atom_site_fract_z
_atom_type_partial_charge
C1    C     C_R   0.302623 0.608113 0.555840 0.539126
C2    C     C_R   0.223194 0.715844 0.388294 -0.134892
C3    C     C_R   0.746414 0.121789 0.266809 -0.135266
C4    C     C_R   0.750595 0.113653 0.227064 -0.128476
C5    C     C_R   0.676603 0.193204 0.205022 0.006134
C6    C     C_R   0.721621 0.239352 0.348161 -0.135778
C7    C     C_R   0.703036 0.258867 0.387192 -0.143948
C8    C     C_R   0.566988 0.215504 0.384000 -0.002394
C9    C     C_R   0.739331 0.635504 0.641904 0.016700
C10   C     C_R   0.587174 0.195907 0.344651 -0.100708
C11   C     C_R   0.660720 0.212366 0.326656 0.015898
C12   C     C_R   0.622066 0.253174 0.405324 0.033416
C13   C     C_R   0.199346 0.720750 0.349649 -0.137984
C14   C     C_R   0.086160 0.706706 0.093307 0.021859
C15   C     C_R   0.095351 0.618529 0.110414 -0.129338
C16   C     C_R   0.131624 0.593718 0.147596 -0.126426
C17   C     C_R   0.159957 0.656151 0.168021 0.029184
C18   C     C_R   0.159761 0.738770 0.149821 -0.122051
C19   C     C_R   0.122806 0.764118 0.112648 -0.127935
C20   C     C_R   0.257941 0.646703 0.226795 -0.125903
C21   C     C_3   0.817784 0.565948 0.575223 -0.270965
C22   C     C_3   0.802633 0.644329 0.544818 -0.434052
C23   C     C_3   0.796441 0.937485 0.775324 -0.284470
C24   C     C_R   0.200622 0.637238 0.331052 0.040733
C25   C     C_3   0.717463 0.907334 0.787186 -0.413257
C26   C     C_3   0.550353 0.104639 0.662606 -0.409973
C27   C     C_3   0.528844 0.147147 0.580186 -0.383544
C28   C     C_3   0.155710 0.480215 0.655075 -0.275437
C29   C     C_3   0.235736 0.369327 0.644988 -0.449321
C30   C     C_3   0.366470 0.459332 0.719701 -0.276861
C31   C     C_3   0.382330 0.354253 0.730359 -0.450045
C32   C     C_3   0.184347 0.802749 0.831009 -0.279721
C33   C     C_3   0.300103 0.749877 0.824318 -0.423577
C34   C     C_3   0.572155 0.556934 0.197620 -0.406222
C35   C     C_R   0.558274 0.696357 0.654396 -0.149675
C36   C     C_3   0.839164 0.627876 0.654655 -0.395806
C37   C     C_3   0.512059 0.388363 0.281672 -0.404891
C38   C     C_3   0.507755 0.171457 0.172810 -0.271811
C39   C     C_3   0.437373 0.136421 0.154952 -0.460929
C40   C     C_3   0.484666 0.199099 0.401558 -0.387204
C41   C     C_3   0.223312 0.457746 0.333026 -0.405788
C42   C     C_R   0.249091 0.626922 0.408871 0.006781
C43   C     C_R   0.736026 0.025755 0.943460 0.542573
C44   C     C_R   0.746237 0.722896 0.944935 0.544399
C45   C     C_R   0.038240 0.733980 0.948216 0.541589
C46   C     C_R   0.722855 0.038659 0.052940 0.542476
C47   C     C_R   0.733395 0.734858 0.054885 0.543117
C48   C     C_R   0.654751 0.673029 0.667752 0.034845
C49   C     C_R   0.027925 0.744553 0.057724 0.544926
C50   C     C_R   0.545953 0.674011 0.617008 -0.156752
C51   C     C_R   0.674784 0.679694 0.787054 0.331625
C52   C     C_R   0.665398 0.679068 0.709474 0.332892
C53   C     C_R   0.765929 0.602552 0.848055 -0.126289
C54   C     C_R   0.782013 0.611964 0.886839 -0.132194
C55   C     C_R   0.628209 0.778708 0.889112 -0.135104
C56   C     C_R   0.612028 0.769199 0.850344 -0.135472
C57   C     C_R   0.682978 0.682796 0.829098 0.026793
C58   C     C_R   0.611156 0.589247 0.554936 0.536826
C59   C     C_R   0.266156 0.644017 0.266557 -0.126175
C60   C     C_R   0.715606 0.701958 0.907340 0.022456
C61   C     C_R   0.723568 0.073950 0.905952 0.022909
C62   C     C_R   0.628721 0.116875 0.887229 -0.129974
C63   C     C_R   0.622345 0.140801 0.848527 -0.129750
C64   C     C_R   0.710803 0.120908 0.828140 0.030969
C65   C     C_R   0.803758 0.085896 0.847275 -0.127520
C66   C     C_R   0.810190 0.062635 0.886051 -0.130314
C67   C     C_R   0.658775 0.231634 0.771865 -0.134027
C68   C     C_R   0.648728 0.246614 0.732566 -0.130374
C69   C     C_R   0.684159 0.162682 0.707375 0.007020
C70   C     C_R   0.191472 0.639386 0.289264 0.030053
C71   C     C_R   0.591032 0.298994 0.553185 0.539760
C72   C     C_R   0.734183 0.063055 0.721607 -0.106254
C73   C     C_R   0.745399 0.046517 0.761199 0.029302
C74   C     C_R   0.706361 0.132423 0.786473 0.036509
C75   C     C_R   0.605228 0.155014 0.644206 0.025579
C76   C     C_R   0.588927 0.181726 0.604872 0.014469
C77   C     C_R   0.696017 0.260421 0.611112 -0.150300
C78   C     C_R   0.716439 0.229501 0.648746 -0.144925
C79   C     C_R   0.669054 0.180562 0.666001 0.026485
C80   C     C_R   0.628590 0.241907 0.589304 0.019875
C81   C     C_R   0.108689 0.637305 0.272064 -0.117609
C82   C     C_R   0.093638 0.695782 0.911332 0.004590
C83   C     C_R   0.300580 0.609866 0.446001 0.543195
C84   C     C_R   0.124744 0.755624 0.890849 -0.117935
C85   C     C_R   0.154641 0.733937 0.852197 0.025851
C86   C     C_R   0.153306 0.650213 0.833974 0.037539
C87   C     C_R   0.130562 0.585718 0.855303 -0.137909
C88   C     C_R   0.100987 0.608178 0.893662 -0.136905
C89   C     C_R   0.253620 0.555494 0.775829 -0.104617
C90   C     C_R   0.266050 0.544589 0.735818 0.034360
C91   C     C_R   0.186029 0.615968 0.712217 0.026142
C92   C     C_R   0.100918 0.639034 0.232372 -0.117836
C93   C     C_R   0.094896 0.693024 0.728998 -0.138173
C94   C     C_R   0.083795 0.702209 0.768671 -0.125617
C95   C     C_R   0.607920 0.589286 0.445128 0.536928
C96   C     C_R   0.164067 0.635388 0.792166 0.013081
C97   C     C_R   0.227678 0.691908 0.658078 -0.142831
C98   C     C_R   0.252707 0.693979 0.619828 -0.141136
C99   C     C_R   0.215506 0.558522 0.605096 -0.108996
C100  C     C_R   0.190927 0.554704 0.643718 0.024488
C101  C     C_R   0.200298 0.620598 0.670614 0.023028
C102  C     C_R   0.251052 0.624347 0.593337 0.003539
C103  C     C_R   0.175158 0.644264 0.209520 0.028589
C104  C     C_R   0.691018 0.720012 0.090914 0.021185
C105  C     C_R   0.602470 0.801664 0.107824 -0.131149
C106  C     C_R   0.573347 0.793817 0.145118 -0.129744
C107  C     C_R   0.588098 0.302616 0.443601 0.540806
C108  C     C_R   0.631639 0.704011 0.165849 0.032352
C109  C     C_R   0.717179 0.620927 0.148430 -0.120501
C110  C     C_R   0.746227 0.628499 0.111200 -0.129404
C111  C     C_R   0.593664 0.625837 0.222795 0.010556
C112  C     C_R   0.593651 0.616159 0.262717 -0.099152
C113  C     C_R   0.610217 0.681258 0.286991 0.012006
C114  C     C_R   0.219696 0.549905 0.352036 0.009661
C115  C     C_R   0.621598 0.760153 0.271363 -0.127052
C116  C     C_R   0.623294 0.769660 0.231719 -0.131727
C117  C     C_R   0.612583 0.701134 0.207159 0.039391
C118  C     C_R   0.554936 0.740963 0.354475 -0.121547
C119  C     C_R   0.629927 0.626059 0.591784 0.022474
C120  C     C_R   0.556086 0.719223 0.393380 -0.128489
C121  C     C_R   0.692828 0.545269 0.381061 -0.126476
C122  C     C_R   0.690160 0.566468 0.342201 -0.125903
C123  C     C_R   0.619413 0.663510 0.328533 0.026891
C124  C     C_R   0.623138 0.620259 0.406830 0.022422
C125  C     C_R   0.242630 0.546289 0.390995 -0.107560
C126  C     C_R   0.698575 0.100046 0.088517 0.001657
C127  C     C_R   0.769715 0.124398 0.103966 -0.137261
C128  C     C_R   0.757154 0.162401 0.141235 -0.137950
C129  C     C_R   0.673725 0.176233 0.163682 0.024753
C130  C     C_R   0.597358 0.158125 0.147869 0.027434
C131  C     C_R   0.727876 0.608950 0.603535 0.027144
C132  C     C_R   0.610411 0.121801 0.109804 -0.102451
C133  C     C_R   0.601085 0.283280 0.222809 -0.107080
C134  C     C_R   0.595579 0.292089 0.262853 0.010198
C135  C     C_R   0.667982 0.209341 0.284844 0.037330
Cr1   Cr    Cr6+3 0.421670 0.426920 0.499620 0.997374
Cr2   Cr    Cr6+3 0.427030 0.651190 0.500980 1.009186
Cr3   Cr    Cr6+3 0.651280 0.421870 0.499380 1.000938
Cr4   Cr    Cr6+3 0.910810 0.908010 0.001130 1.008715
Cr5   Cr    Cr6+3 0.682800 0.909890 0.998370 1.007830
Cr6   Cr    Cr6+3 0.908370 0.682300 0.002180 1.008427
H1    H     H_    0.884343 0.029643 0.899705 0.127268
H2    H     H_    0.121034 0.822408 0.904433 0.122317
H3    H     H_    0.459782 0.253645 0.180826 0.143698
H4    H     H_    0.512947 0.155022 0.428397 0.141120
H5    H     H_    0.414728 0.273933 0.407497 0.151716
H6    H     H_    0.462541 0.154829 0.382000 0.103459
H7    H     H_    0.249839 0.392584 0.352996 0.113337
H8    H     H_    0.145723 0.477382 0.323101 0.127699
H9    H     H_    0.277035 0.431774 0.308176 0.136318
H10   H     H_    0.077702 0.560474 0.908715 0.129252
H11   H     H_    0.315054 0.503801 0.794351 0.106742
H12   H     H_    0.033529 0.748181 0.711275 0.107522
H13   H     H_    0.013767 0.763294 0.781227 0.105222
H14   H     H_    0.233969 0.743332 0.678415 0.115818
H15   H     H_    0.849890 0.551297 0.900099 0.128180
H16   H     H_    0.279424 0.745842 0.611551 0.125590
H17   H     H_    0.129853 0.521216 0.841582 0.113032
H18   H     H_    0.211271 0.506769 0.584372 0.120309
H19   H     H_    0.766045 0.248289 0.665182 0.122522
H20   H     H_    0.558711 0.873473 0.093055 0.122684
H21   H     H_    0.815131 0.564553 0.099130 0.125833
H22   H     H_    0.741262 0.506141 0.322553 0.105653
H23   H     H_    0.581917 0.557053 0.275048 0.104787
H24   H     H_    0.507819 0.859088 0.158371 0.102086
H25   H     H_    0.633754 0.811387 0.289786 0.108387
H26   H     H_    0.637521 0.827911 0.220109 0.110921
H27   H     H_    0.500117 0.816433 0.344333 0.103608
H28   H     H_    0.501268 0.778260 0.412585 0.116243
H29   H     H_    0.764911 0.552129 0.164404 0.106300
H30   H     H_    0.611317 0.323891 0.721711 0.117835
H31   H     H_    0.744778 0.468063 0.390405 0.122543
H32   H     H_    0.838017 0.108832 0.088033 0.126646
H33   H     H_    0.555631 0.103884 0.097217 0.135267
H34   H     H_    0.542157 0.172605 0.327474 0.104725
H35   H     H_    0.544869 0.344772 0.205444 0.101433
H36   H     H_    0.492652 0.726472 0.673659 0.131711
H37   H     H_    0.815857 0.175521 0.153444 0.110900
H38   H     H_    0.802357 0.058530 0.283585 0.111753
H39   H     H_    0.809121 0.043615 0.213470 0.117312
H40   H     H_    0.779608 0.250920 0.334349 0.108464
H41   H     H_    0.628760 0.297576 0.791013 0.115111
H42   H     H_    0.747886 0.285623 0.402534 0.128610
H43   H     H_    0.068846 0.572072 0.096021 0.126127
H44   H     H_    0.117466 0.831907 0.099979 0.126795
H45   H     H_    0.184411 0.788083 0.333708 0.110758
H46   H     H_    0.821197 0.534304 0.832602 0.131707
H47   H     H_    0.330594 0.645571 0.279680 0.111158
H48   H     H_    0.315570 0.651178 0.209559 0.104263
H49   H     H_    0.132569 0.528893 0.161158 0.103232
H50   H     H_    0.049494 0.635933 0.289361 0.106712
H51   H     H_    0.035117 0.639673 0.219524 0.107679
H52   H     H_    0.549800 0.169378 0.833950 0.105257
H53   H     H_    0.262068 0.477437 0.406744 0.122326
H54   H     H_    0.181167 0.787948 0.165266 0.105620
H55   H     H_    0.227515 0.779084 0.401372 0.131425
H56   H     H_    0.575371 0.848843 0.904180 0.127210
H57   H     H_    0.546663 0.831893 0.836674 0.128018
H58   H     H_    0.560728 0.126887 0.901926 0.125471
H59   H     H_    0.733710 0.664283 0.527393 0.156274
H60   H     H_    0.794034 0.714975 0.558653 0.148699
H61   H     H_    0.870522 0.611922 0.525378 0.135359
H62   H     H_    0.891986 0.542206 0.589348 0.129089
H63   H     H_    0.762394 0.998584 0.701781 0.109154
H64   H     H_    0.829238 0.494491 0.561435 0.170868
H65   H     H_    0.669641 0.955617 0.811520 0.161776
H66   H     H_    0.667114 0.915435 0.762667 0.171950
H67   H     H_    0.757706 0.826219 0.796290 0.157062
H68   H     H_    0.845576 0.883644 0.752271 0.126950
H69   H     H_    0.848042 0.926852 0.799621 0.146353
H70   H     H_    0.467792 0.146849 0.655093 0.125084
H71   H     H_    0.585099 0.024048 0.652383 0.132518
H72   H     H_    0.553074 0.104517 0.694293 0.137863
H73   H     H_    0.547334 0.068300 0.587461 0.118101
H74   H     H_    0.872125 0.071990 0.831760 0.104180
H75   H     H_    0.445328 0.200152 0.584351 0.138238
H76   H     H_    0.549324 0.143197 0.549408 0.142739
H77   H     H_    0.237844 0.355342 0.613622 0.139577
H78   H     H_    0.313307 0.351631 0.654234 0.162699
H79   H     H_    0.215501 0.316406 0.659458 0.134960
H80   H     H_    0.138352 0.485234 0.686202 0.158374
H81   H     H_    0.083457 0.500378 0.639824 0.130698
H82   H     H_    0.401828 0.338897 0.761139 0.145283
H83   H     H_    0.312075 0.349793 0.724619 0.157615
H84   H     H_    0.446320 0.293996 0.713060 0.151302
H85   H     H_    0.470719 0.688332 0.608551 0.133798
H86   H     H_    0.430593 0.467847 0.731282 0.135030
H87   H     H_    0.370666 0.462485 0.688070 0.162110
H88   H     H_    0.340905 0.727270 0.852094 0.155008
H89   H     H_    0.326787 0.680833 0.805782 0.160881
H90   H     H_    0.319765 0.803320 0.809926 0.145642
H91   H     H_    0.143908 0.826524 0.803242 0.147263
H92   H     H_    0.160819 0.874454 0.847712 0.127533
H93   H     H_    0.547670 0.511149 0.214783 0.118132
H94   H     H_    0.509424 0.603805 0.177476 0.135535
H95   H     H_    0.641848 0.502851 0.181141 0.133717
H96   H     H_    0.728930 0.304531 0.599838 0.141763
H97   H     H_    0.863692 0.666916 0.633852 0.119792
H98   H     H_    0.832318 0.666578 0.682582 0.149068
H99   H     H_    0.899379 0.546201 0.656953 0.130187
H100  H     H_    0.463354 0.445850 0.260207 0.118763
H101  H     H_    0.461968 0.370126 0.299321 0.139518
H102  H     H_    0.546589 0.422982 0.300364 0.138023
H103  H     H_    0.398190 0.182941 0.129471 0.147226
H104  H     H_    0.481723 0.053873 0.146918 0.144960
H105  H     H_    0.377582 0.147054 0.176183 0.136679
H106  H     H_    0.538650 0.127412 0.199559 0.154345
N1    N     N_R   0.749488 0.601726 0.765993 -0.242534
N2    N     N_R   0.744503 0.601012 0.727957 -0.232611
N3    N     N_R   0.590226 0.756679 0.730472 -0.248470
N4    N     N_R   0.595246 0.757351 0.768514 -0.254362
O1    O     O_R   0.502070 0.323090 0.541280 -0.516612
O2    O     O_R   0.831550 0.656950 0.958960 -0.520830
O3    O     O_R   0.998590 0.685540 0.963930 -0.501100
O4    O     O_R   0.338340 0.520690 0.539540 -0.500327
O5    O     O_R   0.008220 0.831200 0.045060 -0.519349
O6    O     O_R   0.813270 0.997930 0.038810 -0.498578
O7    O     O_R   0.657500 0.016560 0.039940 -0.524790
O8    O     O_R   0.685680 0.820940 0.038120 -0.502468
O9    O     O_R   0.822130 0.666070 0.043610 -0.520023
O10   O     O_R   0.989860 0.694000 0.042400 -0.503511
O11   O     O_3   0.833990 0.833400 0.000560 -0.233571
O12   O     O_R   0.520720 0.641670 0.461580 -0.499544
O13   O     O_R   0.324760 0.674070 0.543580 -0.519620
O14   O     O_R   0.522400 0.640310 0.540110 -0.503809
O15   O     O_R   0.675940 0.500630 0.542210 -0.524348
O16   O     O_R   0.641790 0.337020 0.538150 -0.503419
O17   O     O_R   0.500260 0.324550 0.456580 -0.523361
O18   O     O_R   0.336660 0.522040 0.461020 -0.507061
O19   O     O_R   0.322940 0.675540 0.458880 -0.516176
O20   O     O_R   0.674120 0.502090 0.457500 -0.524134
O21   O     O_R   0.640110 0.338380 0.459630 -0.505599
O22   O     O_3   0.499990 0.499990 0.499990 -0.230609
O23   O     O_R   0.017640 0.822070 0.960410 -0.523116
O24   O     O_R   0.822000 0.989470 0.960340 -0.504155
O25   O     O_R   0.666920 0.007430 0.955290 -0.519559
O26   O     O_R   0.694410 0.812480 0.959650 -0.502038

loop_
_geom_bond_atom_site_label_1
_geom_bond_atom_site_label_2
_ccdc_geom_bond_type
C95   C124  S    
C36   H99   S    
C87   C88   A    
C32   H91   S    
C24   C114  A    
C126  C127  A    
C37   H102  S    
Cr5   O8    S    
C99   H18   S    
C69   C72   A    
C73   C74   A    
C21   H62   S    
Cr1   O4    S    
C104  C105  A    
C45   C82   S    
C41   C114  S    
C30   C90   S    
C34   H95   S    
C128  C129  A    
C97   C98   A    
C110  H21   S    
C24   C70   S    
C20   C103  A    
Cr3   O21   S    
C77   C78   A    
C56   C57   A    
C5    C133  A    
C93   C94   A    
C75   C79   A    
Cr5   O7    S    
C40   H4    S    
C26   H72   S    
Cr6   O3    S    
C38   C130  S    
C22   H59   S    
C28   C29   S    
C23   C73   S    
C62   H58   S    
C129  C130  A    
C48   C52   S    
C43   O25   A    
C54   H15   S    
C38   C39   S    
C30   H86   S    
C68   H30   S    
C120  H28   S    
C14   C49   S    
C43   O24   A    
Cr3   O16   S    
C34   H94   S    
C15   C16   A    
C39   H105  S    
C58   C119  S    
C108  C109  A    
C18   C19   A    
Cr6   O11   S    
C21   H64   S    
C83   O18   A    
C2    C13   A    
C3    H38   S    
C81   H50   S    
C121  C124  A    
C31   H83   S    
C89   H11   S    
C42   C125  A    
C39   H104  S    
C81   C92   A    
Cr2   O14   S    
C61   C66   A    
C29   H79   S    
C21   C131  S    
C6    C7    A    
Cr1   O22   S    
C47   O8    A    
C68   C69   A    
C27   H73   S    
C119  C131  A    
C63   H52   S    
Cr4   O23   S    
Cr1   O18   S    
C47   C104  S    
C25   H67   S    
C51   N4    A    
C52   N2    A    
C3    C135  A    
C127  H32   S    
C22   H60   S    
C94   H13   S    
C45   O3    A    
C72   H63   S    
C92   H51   S    
C28   C100  S    
C46   O6    A    
C5    C129  S    
C35   H36   S    
C33   H90   S    
Cr5   O11   S    
C55   C60   A    
C27   C76   S    
C77   H96   S    
C34   C111  S    
C112  C113  A    
Cr4   O24   S    
C61   C62   A    
Cr6   O10   S    
C91   C101  S    
C33   H88   S    
C35   C48   A    
C14   C19   A    
C71   C80   S    
C17   C18   A    
C35   C50   A    
C56   H57   S    
C32   H92   S    
C9    C131  A    
C95   O20   A    
C36   H97   S    
C7    C12   A    
C112  H23   S    
C46   O7    A    
C37   H100  S    
Cr1   O17   S    
C22   H61   S    
C6    H40   S    
C38   H106  S    
C50   C119  A    
C106  H24   S    
C30   H87   S    
C13   H45   S    
C84   C85   A    
C72   C73   A    
C89   C90   A    
C20   H48   S    
C49   O5    A    
C49   O10   A    
C78   C79   A    
C16   C17   A    
C54   C60   A    
C41   H9    S    
C23   H68   S    
C84   H2    S    
N3    N4    A    
C85   C86   A    
C25   H66   S    
C91   C93   A    
C122  H22   S    
C67   C68   A    
C13   C24   A    
C20   C59   A    
C19   H44   S    
C83   O19   A    
C130  C132  A    
C75   C76   A    
C62   C63   A    
C67   H41   S    
C11   C135  S    
C9    C36   S    
C1    O13   A    
C55   H56   S    
C44   O26   A    
C113  C123  S    
C98   H16   S    
C126  C132  A    
C47   O9    A    
C8    C12   A    
C97   C101  A    
C15   H43   S    
C58   O15   A    
C55   C56   A    
C26   C75   S    
C3    C4    A    
C59   H47   S    
C116  H26   S    
C67   C74   A    
C132  H33   S    
C44   C60   S    
C115  H25   S    
C94   C96   A    
C121  C122  A    
C26   H70   S    
C86   C96   S    
C31   H82   S    
Cr2   O12   S    
C78   H19   S    
C29   H77   S    
C27   H76   S    
C82   C84   A    
C31   H84   S    
Cr4   O11   S    
C133  C134  A    
C88   H10   S    
C105  H20   S    
C69   C79   S    
C128  H37   S    
C33   H89   S    
C34   H93   S    
C71   O1    A    
C6    C11   A    
C8    C40   S    
C109  H29   S    
C43   C61   S    
C39   H103  S    
C77   C80   A    
C10   H34   S    
C114  C125  A    
C16   H49   S    
C71   O16   A    
C37   H101  S    
C111  C112  A    
C107  O21   A    
C86   C87   A    
C38   H3    S    
Cr5   O26   S    
C46   C126  S    
C8    C10   A    
C118  H27   S    
C42   C83   S    
C76   C80   A    
C4    C5    A    
C53   C57   A    
C4    H39   S    
C12   C107  S    
Cr2   O19   S    
C87   H17   S    
C53   C54   A    
C134  C135  A    
C66   H1    S    
C23   H69   S    
C40   H5    S    
C37   C134  S    
Cr3   O15   S    
C105  C106  A    
C28   H80   S    
C45   O23   A    
C99   C100  A    
C7    H42   S    
C111  C117  A    
Cr6   O2    S    
C64   C65   A    
C92   C103  A    
C89   C96   A    
C93   H12   S    
C51   N1    A    
C53   H46   S    
C121  H31   S    
C97   H14   S    
C98   C102  A    
N1    N2    A    
C32   C33   S    
C104  C110  A    
C95   O12   A    
C30   C31   S    
Cr5   O25   S    
C90   C91   A    
C27   H75   S    
C41   H7    S    
C106  C108  A    
C125  H53   S    
C2    C42   A    
C65   H74   S    
C82   C88   A    
C32   C85   S    
Cr4   O6    S    
C58   O14   A    
Cr2   O22   S    
C100  C101  A    
Cr6   O9    S    
C18   H54   S    
C116  C117  A    
Cr4   O5    S    
C2    H55   S    
C118  C123  A    
C23   C25   S    
C17   C103  S    
Cr3   O22   S    
C44   O2    A    
C133  H35   S    
C118  C120  A    
C108  C117  S    
C50   H85   S    
C10   C11   A    
C59   C70   A    
C63   C64   A    
Cr2   O13   S    
C120  C124  A    
C51   C57   S    
C29   H78   S    
C99   C102  A    
C41   H8    S    
C9    C48   A    
C28   H81   S    
C65   C66   A    
C36   H98   S    
C109  C110  A    
C107  O17   A    
C127  C128  A    
C64   C74   S    
C14   C15   A    
Cr1   O1    S    
C26   H71   S    
C70   C81   A    
C115  C116  A    
C122  C123  A    
C21   C22   S    
C52   N3    A    
C1    C102  S    
C40   H6    S    
C1    O4    A    
C25   H65   S    
Cr3   O20   S    
C113  C115  A    
