data_mof_unit_30273.cif
_audit_creation_date              2012-12-11T17:43:22-0500
_audit_creation_method            fapswitch 2.2
_symmetry_space_group_name_H-M    P1
_symmetry_Int_Tables_number       1
_space_group_crystal_system       triclinic
_cell_length_a                    15.055744
_cell_length_b                    15.205825
_cell_length_c                    16.880638
_cell_angle_alpha                 108.710578
_cell_angle_beta                  106.103924
_cell_angle_gamma                 109.443984
_cell_volume                      3115.96034092

loop_
_atom_site_label
_atom_site_type_symbol
_atom_type_description
_atom_site_fract_x
_atom_site_fract_y
_atom_site_fract_z
_atom_type_partial_charge
C1    C     C_R   0.090253 0.277257 0.037896 -0.131716
C2    C     C_R   0.912969 0.708189 0.919742 -0.161473
C3    C     C_R   0.027694 0.465431 0.725205 0.068079
C4    C     C_R   0.973328 0.425481 0.258005 0.075151
C5    C     C_R   0.664942 0.216555 0.743998 0.070790
C6    C     C_R   0.238822 0.801590 0.274378 0.059665
C7    C     C_R   0.359293 0.565802 0.056357 0.054972
C8    C     C_R   0.708018 0.534291 0.029238 0.048958
C9    C     C_R   0.913424 0.905998 0.949092 -0.230330
C10   C     C_R   0.077359 0.059617 0.947801 -0.235688
C11   C     C_R   0.995458 0.888825 0.938079 0.057549
C12   C     C_R   0.998194 0.078843 0.965153 0.068570
C13   C     C_R   0.076801 0.963805 0.933377 0.022390
C14   C     C_R   0.914374 0.000484 0.964660 0.018761
C15   C     C_R   0.725877 0.952723 0.921032 -0.187205
C16   C     C_R   0.265218 0.017892 0.965943 -0.170168
C17   C     C_R   0.669031 0.033189 0.032005 -0.099032
C18   C     C_R   0.315926 0.902768 0.873723 -0.097440
C19   C     C_R   0.490617 0.688979 0.353331 -0.114896
C20   C     C_R   0.509063 0.412205 0.726676 -0.120270
C21   C     C_R   0.502847 0.677886 0.272115 -0.124240
C22   C     C_R   0.520330 0.436496 0.817205 -0.121646
C23   C     C_R   0.935526 0.451414 0.734646 -0.138836
C24   C     C_R   0.064514 0.483412 0.254825 -0.153838
C25   C     C_R   0.526414 0.598996 0.227583 0.113243
C26   C     C_R   0.550584 0.539569 0.879453 0.111905
C27   C     C_R   0.539231 0.532771 0.266895 -0.178264
C28   C     C_R   0.568445 0.617603 0.849693 -0.198118
C29   C     C_R   0.527315 0.544463 0.348363 -0.096396
C30   C     C_R   0.558438 0.593119 0.759444 -0.133895
C31   C     C_R   0.502760 0.622271 0.391386 -0.087812
C32   C     C_R   0.528626 0.490419 0.697916 -0.084167
C33   C     C_R   0.618738 0.570893 0.127020 -0.236696
C34   C     C_R   0.478649 0.583337 0.988440 -0.225493
C35   C     C_R   0.627179 0.557403 0.043809 0.067461
C36   C     C_R   0.462828 0.585244 0.066288 0.058567
C37   C     C_R   0.556690 0.564761 0.973943 0.016931
C38   C     C_R   0.535698 0.584874 0.139414 0.025596
C39   C     C_R   0.645717 0.962764 0.943037 -0.120750
C40   C     C_R   0.342904 0.997480 0.946749 -0.104698
C41   C     C_R   0.965246 0.384685 0.325230 0.121469
C42   C     C_R   0.036112 0.418399 0.638484 0.119090
C43   C     C_R   0.141647 0.426309 0.552823 -0.041523
C44   C     C_R   0.858761 0.301177 0.390218 -0.039648
C45   C     C_R   0.720974 0.215046 0.823250 -0.147649
C46   C     C_R   0.222646 0.796182 0.187546 -0.128939
C47   C     C_R   0.133666 0.445153 0.636499 -0.295180
C48   C     C_R   0.867332 0.328333 0.320440 -0.321601
C49   C     C_R   0.945616 0.355808 0.555312 -0.215928
C50   C     C_R   0.055539 0.406304 0.397181 -0.227428
C51   C     C_R   0.950599 0.342168 0.471256 0.133420
C52   C     C_R   0.050049 0.387200 0.471787 0.133330
C53   C     C_R   0.556685 0.141577 0.676892 0.128533
C54   C     C_R   0.279124 0.896434 0.360581 0.127656
C55   C     C_R   0.383228 0.084748 0.444935 -0.198597
C56   C     C_R   0.410584 0.968583 0.607353 -0.221129
C57   C     C_R   0.313919 0.995174 0.361993 -0.158209
C58   C     C_R   0.503193 0.049489 0.681876 -0.173704
C59   C     C_R   0.298794 0.890158 0.444266 -0.281546
C60   C     C_R   0.509922 0.156681 0.601602 -0.284405
C61   C     C_R   0.372712 0.978479 0.526818 0.190261
C62   C     C_R   0.419515 0.075158 0.525828 0.187236
C63   C     C_R   0.772532 0.093583 0.098951 -0.114400
C64   C     C_R   0.211174 0.828407 0.819459 -0.114611
C65   C     C_R   0.853214 0.084961 0.077033 -0.116044
C66   C     C_R   0.133205 0.848602 0.838137 -0.132234
C67   C     C_R   0.300958 0.598028 0.006114 -0.151700
C68   C     C_R   0.736247 0.461906 0.046988 -0.140146
C69   C     C_R   0.830343 0.014677 0.987643 0.107901
C70   C     C_R   0.159528 0.943294 0.912124 0.114548
C71   C     C_R   0.726150 0.309406 0.746342 -0.119078
C72   C     C_R   0.217320 0.701592 0.265432 -0.128456
C73   C     C_R   0.295568 0.499643 0.079476 -0.123331
C74   C     C_R   0.752877 0.564022 0.975646 -0.106766
C75   C     C_R   0.109666 0.536296 0.812171 -0.127326
C76   C     C_R   0.891619 0.399740 0.177716 -0.129570
C77   C     C_R   0.915966 0.194309 0.954843 -0.111219
C78   C     C_R   0.085502 0.795796 0.999693 -0.125765
C79   C     C_R   0.002711 0.179620 0.981643 0.047026
C80   C     C_R   0.999463 0.799654 0.948270 0.059583
H1    H     H_    0.170112 0.293934 0.073440 0.101005
H2    H     H_    0.834726 0.680677 0.869531 0.104287
H3    H     H_    0.706811 0.897102 0.852095 0.114120
H4    H     H_    0.287645 0.091107 0.023593 0.109376
H5    H     H_    0.493150 0.630862 0.454212 0.109642
H6    H     H_    0.519829 0.471251 0.627743 0.116568
H7    H     H_    0.471607 0.749260 0.386698 0.120290
H8    H     H_    0.483965 0.332526 0.678530 0.120446
H9    H     H_    0.493432 0.730479 0.243723 0.121052
H10   H     H_    0.504387 0.375090 0.838523 0.115218
H11   H     H_    0.556525 0.470904 0.233688 0.107371
H12   H     H_    0.590604 0.697241 0.896576 0.126494
H13   H     H_    0.536549 0.492752 0.377877 0.110642
H14   H     H_    0.572969 0.653568 0.737010 0.109293
H15   H     H_    0.676022 0.569187 0.181287 0.131646
H16   H     H_    0.421792 0.582285 0.931660 0.127636
H17   H     H_    0.130712 0.448951 0.400469 0.156715
H18   H     H_    0.870713 0.330828 0.556999 0.157420
H19   H     H_    0.796517 0.306966 0.263411 0.110228
H20   H     H_    0.204234 0.484952 0.700140 0.119121
H21   H     H_    0.856473 0.402032 0.682067 0.101586
H22   H     H_    0.143124 0.503478 0.298165 0.098690
H23   H     H_    0.565539 0.915391 0.891334 0.099544
H24   H     H_    0.424113 0.054962 0.988765 0.099638
H25   H     H_    0.548401 0.227309 0.596623 0.116099
H26   H     H_    0.267534 0.815392 0.444960 0.118498
H27   H     H_    0.535494 0.036359 0.740101 0.114637
H28   H     H_    0.295407 0.003388 0.299024 0.117962
H29   H     H_    0.416353 0.159358 0.443997 0.131514
H30   H     H_    0.374259 0.895304 0.609599 0.123959
H31   H     H_    0.606879 0.040311 0.049313 0.097316
H32   H     H_    0.376168 0.887028 0.859143 0.091488
H33   H     H_    0.790057 0.146093 0.168113 0.123675
H34   H     H_    0.190334 0.755071 0.762855 0.109852
H35   H     H_    0.933044 0.131886 0.129698 0.123040
H36   H     H_    0.052369 0.790317 0.795055 0.113173
H37   H     H_    0.691496 0.163247 0.851374 0.093482
H38   H     H_    0.232208 0.858904 0.168768 0.094630
H39   H     H_    0.329064 0.659308 0.986433 0.096564
H40   H     H_    0.712596 0.421187 0.085363 0.097196
H41   H     H_    0.702024 0.344685 0.703893 0.088148
H42   H     H_    0.222376 0.676522 0.318692 0.095914
H43   H     H_    0.317905 0.466324 0.124566 0.107331
H44   H     H_    0.749625 0.621043 0.951715 0.112547
H45   H     H_    0.192107 0.565057 0.831029 0.094161
H46   H     H_    0.811228 0.342165 0.149663 0.087172
H47   H     H_    0.835825 0.136059 0.910757 0.113625
H48   H     H_    0.166464 0.850625 0.025375 0.105451
H49   H     H_    0.852010 0.848767 0.954313 0.134131
H50   H     H_    0.138766 0.119014 0.944631 0.131703
N1    N     N_R   0.055660 0.348550 0.045620 -0.040154
N2    N     N_R   0.944340 0.651450 0.954380 -0.037870
N3    N     N_R   0.960830 0.507850 0.823700 -0.041007
N4    N     N_R   0.039170 0.492150 0.176300 -0.038121
N5    N     N_R   0.811290 0.303410 0.871650 -0.039520
N6    N     N_R   0.188710 0.696590 0.128350 -0.041842
N7    N     N_R   0.205200 0.552990 0.997670 -0.038186
N8    N     N_R   0.794800 0.447010 0.002330 -0.041286
N9    N     N_R   0.814800 0.361830 0.823700 -0.040114
N10   N     N_R   0.185200 0.638170 0.176300 -0.040196
N11   N     N_R   0.201680 0.494570 0.045620 -0.039996
N12   N     N_R   0.798320 0.505430 0.954380 -0.043429
N13   N     N_R   0.068420 0.560530 0.871650 -0.040561
N14   N     N_R   0.931580 0.439470 0.128350 -0.038834
N15   N     N_R   0.948070 0.295860 0.997670 -0.042987
N16   N     N_R   0.051930 0.704140 0.002330 -0.040534
Ni1   Ni    Ni4+2 0.119340 0.493420 0.109960 0.220438
Ni2   Ni    Ni4+2 0.880660 0.506580 0.890040 0.215675
Ni3   Ni    Ni4+2 0.872590 0.372590 0.000000 0.215167
Ni4   Ni    Ni4+2 0.127410 0.627410 0.000000 0.215665
C81   C     C_2   0.247166 0.454805 0.555321 0.469385
H51   H     H_    0.315887 0.510219 0.620221 0.015014
O1    O     O_2   0.258917 0.412961 0.486797 -0.597596
C82   C     C_2   0.752356 0.235480 0.377013 0.472362
H52   H     H_    0.685022 0.232661 0.329030 -0.000470
O2    O     O_2   0.738061 0.179519 0.415133 -0.581739

loop_
_geom_bond_atom_site_label_1
_geom_bond_atom_site_label_2
_ccdc_geom_bond_type
C74   H44   S    
C63   C65   A    
C3    C42   S    
C31   H5    S    
C27   C29   A    
C34   C37   A    
C76   H46   S    
C7    C36   S    
C3    C23   A    
N6    N10   A    
C19   C31   A    
C7    C73   A    
C73   N11   A    
C6    C72   A    
N4    Ni1   S    
C66   H36   S    
C5    C53   S    
C35   C37   A    
C34   H16   S    
C19   H7    S    
C4    C24   A    
C78   C80   A    
C43   C52   A    
C13   C70   S    
C1    H1    S    
C12   C79   S    
C33   H15   S    
C16   H4    S    
C46   H38   S    
C60   C62   A    
C58   H27   S    
C17   C39   A    
C18   C40   A    
C21   C25   A    
C49   H18   S    
N16   Ni4   S    
C68   N8    A    
N13   Ni4   S    
C49   C51   A    
C2    N2    A    
C81   H51   S    
C27   H11   S    
C3    C75   A    
C82   O2    D    
C77   H47   S    
C74   N12   A    
C45   N5    A    
C78   H48   S    
C4    C41   S    
C55   H29   S    
C65   H35   S    
C6    C54   S    
C17   H31   S    
N10   Ni1   S    
C56   H30   S    
C29   H13   S    
C53   C60   A    
C10   C12   A    
C54   C59   A    
C77   C79   A    
N8    Ni3   S    
C15   C69   A    
N9    Ni2   S    
N3    N13   A    
C59   H26   S    
C59   C61   A    
C23   N3    A    
C51   C52   A    
N2    Ni2   S    
N12   Ni2   S    
C64   H34   S    
N8    N12   A    
N11   Ni1   S    
C71   N9    A    
C73   H43   S    
N5    Ni3   S    
C5    C45   A    
C47   H20   S    
C75   H45   S    
C8    C35   S    
C64   C66   A    
N5    N9    A    
C9    C14   A    
C10   H50   S    
N14   Ni3   S    
C25   C38   S    
C40   H24   S    
C24   H22   S    
C50   C52   A    
C29   C31   A    
C32   H6    S    
C8    C74   A    
C22   H10   S    
C16   C70   A    
C28   H12   S    
N3    Ni2   S    
N1    Ni1   S    
C9    C11   A    
C15   C39   A    
C82   H52   S    
C75   N13   A    
C16   C40   A    
C76   N14   A    
C44   C51   A    
C20   C22   A    
C8    C68   A    
C55   C57   A    
C1    C79   A    
C14   C69   S    
N7    Ni4   S    
C2    H2    S    
C77   N15   A    
C41   C50   A    
C43   C81   S    
N4    N14   A    
C20   C32   A    
C24   N4    A    
C65   C69   A    
C48   H19   S    
N7    N11   A    
C50   H17   S    
C6    C46   A    
C72   H42   S    
C71   H41   S    
C21   H9    S    
C18   H32   S    
C1    N1    A    
C10   C13   A    
N6    Ni4   S    
C53   C58   A    
C26   C37   S    
C39   H23   S    
C9    H49   S    
C25   C27   A    
C66   C70   A    
C26   C28   A    
C33   C38   A    
N2    N16   A    
C28   C30   A    
C12   C14   A    
C44   C82   S    
C30   H14   S    
C17   C63   A    
C30   C32   A    
C11   C13   A    
C18   C64   A    
C23   H21   S    
C67   H39   S    
C15   H3    S    
C20   H8    S    
C36   C38   A    
C33   C35   A    
C41   C48   A    
C56   C58   A    
N1    N15   A    
C34   C36   A    
C42   C47   A    
C81   O1    D    
C61   C62   A    
C67   N7    A    
N15   Ni3   S    
C45   H37   S    
C4    C76   A    
C2    C80   A    
C11   C80   S    
C78   N16   A    
C42   C49   A    
C7    C67   A    
C63   H33   S    
C46   N6    A    
C72   N10   A    
C57   H28   S    
C55   C62   A    
C5    C71   A    
C22   C26   A    
C56   C61   A    
C43   C47   A    
C68   H40   S    
C60   H25   S    
C44   C48   A    
C19   C21   A    
C54   C57   A    
