data_mof_unit_44793.cif
_audit_creation_date              2012-12-10T16:52:05-0500
_audit_creation_method            fapswitch 2.2
_symmetry_space_group_name_H-M    P1
_symmetry_Int_Tables_number       1
_space_group_crystal_system       triclinic
_cell_length_a                    7.855244
_cell_length_b                    8.558122
_cell_length_c                    14.930447
_cell_angle_alpha                 92.419542
_cell_angle_beta                  84.905964
_cell_angle_gamma                 93.79728
_cell_volume                      996.890136444

loop_
_atom_site_label
_atom_site_type_symbol
_atom_type_description
_atom_site_fract_x
_atom_site_fract_y
_atom_site_fract_z
_atom_type_partial_charge
C1    C     C_R   0.545499 0.794396 0.497910 0.996691
C2    C     C_R   0.454501 0.205604 0.502090 0.996691
C3    C     C_R   0.619305 0.768658 0.952604 -0.151506
C4    C     C_R   0.380696 0.231342 0.047396 -0.151506
C5    C     C_2   0.569256 0.958158 0.496694 -0.232260
C6    C     C_2   0.430744 0.041842 0.503305 -0.232259
C7    C     C_R   0.500602 0.501152 0.672363 0.993191
C8    C     C_R   0.499398 0.498848 0.327637 0.993191
C9    C     C_R   0.452675 0.362273 0.186363 0.208334
C10   C     C_R   0.547325 0.637727 0.813637 0.208335
C11   C     C_R   0.500041 0.500600 0.232366 -0.213966
C12   C     C_R   0.499958 0.499400 0.767634 -0.213966
C13   C     C_R   0.552047 0.639571 0.189077 0.330629
C14   C     C_R   0.447953 0.360428 0.810922 0.330629
C15   C     C_R   0.562766 0.639897 0.094413 -0.033292
C16   C     C_R   0.437234 0.360103 0.905587 -0.033292
C17   C     C_R   0.502095 0.501161 0.047060 -0.029649
C18   C     C_R   0.497905 0.498838 0.952940 -0.029649
C19   C     C_R   0.446237 0.363821 0.093644 0.025365
C20   C     C_R   0.553763 0.636179 0.906356 0.025365
C21   C     C_R   0.629419 0.771323 0.044503 0.320799
C22   C     C_R   0.370581 0.228676 0.955497 0.320799
H1    H     H_    0.670216 0.871483 0.917269 0.228845
H2    H     H_    0.329785 0.128517 0.082731 0.228845
H3    H     H_    0.700129 0.009244 0.490296 0.205994
H4    H     H_    0.299871 0.990756 0.509703 0.205994
N1    N     N_2   0.950330 0.457950 0.475660 0.071042
N2    N     N_2   0.049670 0.542050 0.524340 0.071041
O1    O     O_R   0.389250 0.738570 0.505970 -0.610472
O2    O     O_R   0.610750 0.261430 0.494030 -0.610472
O3    O     O_R   0.678390 0.711620 0.490370 -0.590303
O4    O     O_R   0.321610 0.288380 0.509630 -0.590304
O5    O     O_R   0.355420 0.513510 0.639950 -0.585293
O6    O     O_R   0.644580 0.486490 0.360050 -0.585293
O7    O     O_R   0.644560 0.486560 0.624350 -0.587742
O8    O     O_R   0.355440 0.513440 0.375650 -0.587742
Zn1   Zn    Zn3+2 0.306940 0.517990 0.510420 1.123149
Zn2   Zn    Zn3+2 0.693060 0.482010 0.489580 1.123149
Br1   Br    Br    0.399328 0.172251 0.252497 -0.363861
Br2   Br    Br    0.600672 0.827749 0.747502 -0.363861
Cl1   Cl    Cl    0.585318 0.810052 0.258694 -0.506721
Cl2   Cl    Cl    0.414682 0.189948 0.741306 -0.506721
Br3   Br    Br    0.757437 0.954979 0.088206 -0.324020
Br4   Br    Br    0.242563 0.045020 0.911794 -0.324020
Br5   Br    Br    0.037545 0.301151 0.396569 -0.274953
Br6   Br    Br    0.962455 0.698849 0.603431 -0.274953

loop_
_geom_bond_atom_site_label_1
_geom_bond_atom_site_label_2
_ccdc_geom_bond_type
C5    H3    S    
C11   C13   A    
C3    H1    S    
O3    Zn2   S    
C2    O2    A    
C14   Cl2   S    
N1    Br5   S    
C1    O1    A    
C17   C18   A    
C3    C20   A    
C16   C18   A    
C8    O6    A    
O4    Zn1   S    
C9    C11   A    
N2    Br6   S    
C6    H4    S    
C10   C12   A    
N2    Zn1   S    
C8    C11   S    
C1    C5    S    
C13   Cl1   S    
O8    Zn1   S    
C17   C19   A    
C12   C14   A    
C18   C20   A    
C13   C15   A    
C1    O3    A    
C5    C6    D    
C4    H2    S    
C14   C16   A    
C7    C12   S    
C3    C21   A    
C7    O5    A    
N1    Zn2   S    
C15   C21   A    
O7    Zn2   S    
C4    C22   A    
O2    Zn2   S    
C2    O4    A    
C8    O8    A    
O1    Zn1   S    
N1    N2    D    
C15   C17   A    
C22   Br4   S    
C10   Br2   S    
C16   C22   A    
C21   Br3   S    
C4    C19   A    
C7    O7    A    
C9    C19   A    
C9    Br1   S    
O5    Zn1   S    
C2    C6    S    
C10   C20   A    
O6    Zn2   S    
