data_mof_unit_21420.cif
_audit_creation_date              2012-12-10T17:05:12-0500
_audit_creation_method            fapswitch 2.2
_symmetry_space_group_name_H-M    P1
_symmetry_Int_Tables_number       1
_space_group_crystal_system       triclinic
_cell_length_a                    10.784722
_cell_length_b                    10.98423
_cell_length_c                    9.827933
_cell_angle_alpha                 110.071593
_cell_angle_beta                  99.227124
_cell_angle_gamma                 90.832695
_cell_volume                      1076.3325425

loop_
_atom_site_label
_atom_site_type_symbol
_atom_type_description
_atom_site_fract_x
_atom_site_fract_y
_atom_site_fract_z
_atom_type_partial_charge
C1    C     C_R   0.484989 0.254301 0.442541 0.878789
C2    C     C_3   0.877506 0.502602 0.499586 -0.205815
C3    C     C_3   0.949920 0.623861 0.627054 0.233829
C4    C     C_3   0.904724 0.507615 0.349040 0.062591
C5    C     C_2   0.469191 0.115338 0.414448 -0.334178
C6    C     C_2   0.435053 0.067611 0.513343 0.336307
C7    C     C_2   0.493201 0.883542 0.583817 -0.350845
C8    C     C_2   0.431612 0.928071 0.481737 0.323287
C9    C     C_2   0.508510 0.511584 0.081524 0.213222
C10   C     C_2   0.486362 0.495050 0.920793 0.139399
C11   C     C_R   0.259758 0.499721 0.499761 0.857147
C12   C     C_R   0.502425 0.745423 0.557223 0.854403
C13   C     C_R   0.739988 0.502351 0.500186 0.880101
C14   C     C_3   0.073982 0.380814 0.535423 0.218914
C15   C     C_3   0.927466 0.372268 0.511627 0.160337
C16   C     C_3   0.091721 0.626329 0.618076 -0.465759
C17   C     C_3   0.046926 0.491734 0.340613 0.595565
C18   C     C_3   0.121460 0.499774 0.498059 -0.270259
Cu1   Cu    Cu3+1 0.522160 0.521810 0.644910 1.111368
Cu2   Cu    Cu3+1 0.477840 0.478190 0.355090 1.077617
H1    H     H_    0.119849 0.714860 0.597117 0.138436
H2    H     H_    0.911403 0.713916 0.614981 0.109456
H3    H     H_    0.539691 0.951469 0.689861 0.180990
H4    H     H_    0.487713 0.049472 0.309696 0.176600
H5    H     H_    0.407725 0.430577 0.848910 0.226663
H6    H     H_    0.581148 0.583014 0.156596 0.164960
H7    H     H_    0.104047 0.289527 0.460016 0.145929
H8    H     H_    0.893867 0.294278 0.403315 0.132485
H9    H     H_    0.148540 0.637685 0.727232 0.276089
H10   H     H_    0.849287 0.423963 0.259225 0.207817
N1    N     N_2   0.444530 0.445420 0.137360 -0.039601
N2    N     N_2   0.555520 0.554510 0.862630 -0.041351
O1    O     O_R   0.511820 0.332340 0.577400 -0.538559
O2    O     O_R   0.474400 0.295500 0.332650 -0.590826
O3    O     O_R   0.336400 0.518400 0.622370 -0.576295
O4    O     O_R   0.298980 0.481560 0.377620 -0.526295
O5    O     O_R   0.525600 0.704500 0.667350 -0.552080
O6    O     O_R   0.488180 0.667660 0.422600 -0.545594
O7    O     O_R   0.701020 0.518440 0.622380 -0.492252
O8    O     O_R   0.663600 0.481600 0.377630 -0.605774
Cl1   Cl    Cl    0.143362 0.385189 0.716782 -0.432570
O9    O     O_3   0.860833 0.619002 0.321696 -0.643102
H11   H     H_    0.915354 0.696480 0.388381 0.339246
Cl2   Cl    Cl    0.341881 0.827622 0.310891 -0.539867
Cl3   Cl    Cl    0.389596 0.163739 0.680235 -0.526339
Cl4   Cl    Cl    0.686913 0.655189 0.968694 -0.405894
O10   O     O_3   0.353863 0.357296 0.045173 -0.534376
H12   H     H_    0.316959 0.318437 0.108107 0.409593
O11   O     O_3   0.877904 0.330045 0.613622 -0.634572
H13   H     H_    0.895514 0.399496 0.711343 0.441507
O12   O     O_3   0.933911 0.623173 0.765941 -0.623974
H14   H     H_    0.959677 0.712335 0.837574 0.369452
O13   O     O_3   0.094950 0.583275 0.286682 -0.562032
H15   H     H_    0.121624 0.666363 0.368190 0.325225
Cl5   Cl    Cl    0.060292 0.335311 0.203642 -0.549114

loop_
_geom_bond_atom_site_label_1
_geom_bond_atom_site_label_2
_ccdc_geom_bond_type
C9    H6    S    
C2    C4    S    
C11   C18   S    
C16   H1    S    
C6    Cl3   S    
C17   O13   S    
C14   H7    S    
Cu2   O6    S    
C9    C10   S    
C14   C18   S    
Cu1   Cu2   S    
Cu2   O2    S    
C11   O3    A    
C2    C3    S    
C1    O1    A    
C7    C8    D    
N1    O10   S    
O13   H15   S    
C2    C15   S    
C8    Cl2   S    
C15   H8    S    
C5    C6    D    
C5    H4    S    
C4    O9    S    
C14   Cl1   S    
C7    H3    S    
Cu1   N2    S    
Cu1   O7    S    
C10   H5    S    
C11   O4    A    
C3    O12   S    
C1    O2    A    
C17   C18   S    
C9    N1    D    
C15   O11   S    
C12   O6    A    
C7    C12   S    
Cu2   O8    S    
C1    C5    S    
C13   O7    A    
O9    H11   S    
C4    C17   S    
O12   H14   S    
Cu2   O4    S    
C10   N2    D    
C16   C18   S    
O11   H13   S    
Cu1   O1    S    
C12   O5    A    
Cu1   O3    S    
C2    C13   S    
C17   Cl5   S    
C14   C15   S    
C3    H2    S    
C6    C8    S    
Cu1   O5    S    
C16   H9    S    
N2    Cl4   S    
C4    H10   S    
C3    C16   S    
O10   H12   S    
C13   O8    A    
Cu2   N1    S    
