data_mof_unit_40479.cif
_audit_creation_date              2012-12-10T19:01:46-0500
_audit_creation_method            fapswitch 2.2
_symmetry_space_group_name_H-M    P1
_symmetry_Int_Tables_number       1
_space_group_crystal_system       triclinic
_cell_length_a                    24.483782
_cell_length_b                    24.391567
_cell_length_c                    25.943709
_cell_angle_alpha                 89.657748
_cell_angle_beta                  89.772586
_cell_angle_gamma                 89.937111
_cell_volume                      15493.1187821

loop_
_atom_site_label
_atom_site_type_symbol
_atom_type_description
_atom_site_fract_x
_atom_site_fract_y
_atom_site_fract_z
_atom_type_partial_charge
C1    C     C_R   0.230941 0.272899 0.254842 -0.040034
C2    C     C_R   0.219519 0.739122 0.242221 -0.031922
C3    C     C_R   0.394328 0.104615 0.749059 0.592001
C4    C     C_R   0.895093 0.394819 0.250380 0.590263
C5    C     C_R   0.105278 0.604860 0.749904 0.607656
C6    C     C_R   0.395277 0.105070 0.249819 0.601410
C7    C     C_R   0.605191 0.895202 0.749708 0.608643
C8    C     C_R   0.894593 0.604584 0.750611 0.598882
C9    C     C_R   0.104955 0.394782 0.250174 0.578514
C10   C     C_R   0.395267 0.893984 0.751188 0.563682
C11   C     C_R   0.604575 0.105619 0.249572 0.576707
C12   C     C_R   0.106762 0.396068 0.752189 0.567071
C13   C     C_R   0.732522 0.775298 0.747736 -0.053641
C14   C     C_R   0.894250 0.604283 0.249350 0.572530
C15   C     C_R   0.605052 0.105185 0.750002 0.590445
C16   C     C_R   0.395621 0.893777 0.249131 0.579562
C17   C     C_R   0.176173 0.257438 0.257920 -0.067933
C18   C     C_R   0.820260 0.734752 0.715667 -0.083191
C19   C     C_R   0.291583 0.794882 0.195106 -0.089988
C20   C     C_R   0.743537 0.167888 0.722711 -0.083832
C21   C     C_R   0.826226 0.740024 0.274118 -0.076124
C22   C     C_R   0.184774 0.262894 0.769352 -0.085617
C23   C     C_R   0.742707 0.171517 0.264754 -0.073265
C24   C     C_R   0.273883 0.230352 0.254827 -0.026236
C25   C     C_R   0.261391 0.815480 0.762704 -0.088505
C26   C     C_R   0.836064 0.250814 0.740602 -0.071455
C27   C     C_R   0.192248 0.721909 0.197968 -0.074431
C28   C     C_R   0.709170 0.791869 0.794468 -0.080773
C29   C     C_R   0.268295 0.182877 0.285089 -0.077796
C30   C     C_R   0.222308 0.692934 0.794927 -0.089768
C31   C     C_R   0.814595 0.268211 0.285742 -0.079876
C32   C     C_R   0.266107 0.183902 0.717300 -0.077666
C33   C     C_R   0.742501 0.822794 0.237988 -0.088899
C34   C     C_R   0.714433 0.798729 0.701531 -0.076029
C35   C     C_R   0.237309 0.719224 0.749084 -0.051258
C36   C     C_R   0.319065 0.235737 0.222190 -0.085977
C37   C     C_R   0.762552 0.316173 0.740888 -0.080888
C38   C     C_R   0.211128 0.709623 0.288367 -0.066597
C39   C     C_R   0.323999 0.240216 0.770147 -0.071697
C40   C     C_R   0.676235 0.759141 0.272020 -0.084437
C41   C     C_R   0.209206 0.708476 0.703638 -0.089635
C42   C     C_R   0.775769 0.308819 0.209193 -0.087654
C43   C     C_R   0.275821 0.810656 0.285530 -0.059805
C44   C     C_R   0.691031 0.229463 0.775949 -0.077855
C45   C     C_R   0.244180 0.328460 0.249066 -0.064163
C46   C     C_R   0.776172 0.266738 0.246152 -0.028030
C47   C     C_R   0.767232 0.686067 0.779895 -0.081769
C48   C     C_R   0.679483 0.239822 0.233791 -0.094858
C49   C     C_R   0.333613 0.751414 0.743566 -0.087225
C50   C     C_R   0.758608 0.676280 0.243086 -0.106205
C51   C     C_R   0.245068 0.329835 0.730987 -0.084661
C52   C     C_R   0.134600 0.296370 0.257209 0.211394
C53   C     C_R   0.859691 0.693150 0.716357 0.155424
C54   C     C_R   0.337231 0.829662 0.196974 0.171870
C55   C     C_R   0.700020 0.130405 0.723119 0.161669
C56   C     C_R   0.866615 0.699594 0.270676 0.197333
C57   C     C_R   0.276182 0.233410 0.742159 -0.052596
C58   C     C_R   0.145502 0.303155 0.778323 0.155192
C59   C     C_R   0.700420 0.133358 0.269343 0.182315
C60   C     C_R   0.298938 0.858175 0.766977 0.156238
C61   C     C_R   0.873906 0.293752 0.737116 0.166196
C62   C     C_R   0.158791 0.675520 0.198832 0.178797
C63   C     C_R   0.666564 0.829772 0.795593 0.208127
C64   C     C_R   0.306537 0.140514 0.282345 0.197953
C65   C     C_R   0.179110 0.655464 0.795935 0.157216
C66   C     C_R   0.852992 0.310169 0.288401 0.134350
C67   C     C_R   0.303964 0.140997 0.719482 0.199105
C68   C     C_R   0.730306 0.771818 0.259453 -0.033987
C69   C     C_R   0.701798 0.862019 0.230141 0.162607
C70   C     C_R   0.673177 0.838401 0.701473 0.207440
C71   C     C_R   0.359024 0.195200 0.219971 0.148777
C72   C     C_R   0.798930 0.359664 0.742421 0.203891
C73   C     C_R   0.173526 0.666892 0.291854 0.168927
C74   C     C_R   0.361889 0.197797 0.774329 0.148473
C75   C     C_R   0.634202 0.796183 0.262291 0.181562
C76   C     C_R   0.165319 0.671839 0.703489 0.146539
C77   C     C_R   0.811726 0.352911 0.212364 0.199326
C78   C     C_R   0.329339 0.828402 0.290087 0.170154
C79   C     C_R   0.147796 0.352598 0.250447 0.019277
C80   C     C_R   0.645697 0.195911 0.772390 0.171481
C81   C     C_R   0.203301 0.368271 0.245084 0.215500
C82   C     C_R   0.806140 0.644545 0.782154 0.177770
C83   C     C_R   0.636780 0.202283 0.236020 0.154232
C84   C     C_R   0.372597 0.793250 0.747581 0.215915
C85   C     C_R   0.797274 0.634714 0.240733 0.123372
C86   C     C_R   0.205800 0.370919 0.737889 0.234397
C87   C     C_2   0.075638 0.397381 0.399622 0.317957
C88   C     C_2   0.877374 0.440611 0.589938 0.332337
C89   C     C_2   0.421940 0.897671 0.406372 0.322192
C90   C     C_R   0.852914 0.647641 0.749872 0.019368
C91   C     C_2   0.419803 0.108082 0.593739 0.342395
C92   C     C_2   0.874373 0.451178 0.415208 0.350768
C93   C     C_2   0.064734 0.386358 0.596642 0.346072
C94   C     C_2   0.416842 0.103545 0.407184 0.366324
C95   C     C_2   0.396958 0.916273 0.595084 0.353189
C96   C     C_2   0.596859 0.088579 0.905265 0.367497
C97   C     C_2   0.396609 0.082206 0.093097 0.366017
C98   C     C_2   0.904006 0.408475 0.905532 0.322904
C99   C     C_2   0.907432 0.594302 0.094720 0.309771
C100  C     C_2   0.407716 0.094636 0.911236 0.337871
C101  C     C_R   0.355380 0.848690 0.245444 0.011669
C102  C     C_2   0.590885 0.095359 0.094965 0.316189
C103  C     C_2   0.920524 0.606030 0.907555 0.360102
C104  C     C_2   0.921004 0.394032 0.093272 0.355892
C105  C     C_R   0.774069 0.731475 0.747499 -0.033392
C106  C     C_R   0.650137 0.144833 0.747475 0.034222
C107  C     C_R   0.852535 0.646933 0.252268 0.005612
C108  C     C_R   0.152872 0.356509 0.756620 0.006142
C109  C     C_R   0.647541 0.147357 0.251471 0.004095
C110  C     C_R   0.355095 0.848396 0.755131 0.020432
C111  C     C_R   0.855972 0.348853 0.743669 -0.002462
C112  C     C_R   0.147140 0.648661 0.246627 0.003809
C113  C     C_R   0.648464 0.853732 0.748821 0.011286
C114  C     C_R   0.353069 0.147069 0.250339 0.040401
C115  C     C_R   0.149518 0.645417 0.750112 0.012729
C116  C     C_R   0.260453 0.784368 0.239953 -0.019140
C117  C     C_R   0.852752 0.352548 0.250686 0.029362
C118  C     C_R   0.352578 0.147628 0.748415 0.000534
C119  C     C_R   0.647066 0.850490 0.246526 0.009253
C120  C     C_R   0.085236 0.429854 0.447174 -0.034910
C121  C     C_R   0.893362 0.485091 0.553141 0.010241
C122  C     C_R   0.457665 0.900951 0.451767 -0.033127
C123  C     C_R   0.461145 0.104178 0.551694 0.004622
C124  C     C_R   0.893880 0.495319 0.449925 -0.007894
C125  C     C_R   0.081585 0.423125 0.553388 0.002270
C126  C     C_R   0.460734 0.102294 0.446880 -0.008904
C127  C     C_R   0.738847 0.217975 0.748612 -0.037568
C128  C     C_R   0.440177 0.907044 0.555571 -0.002654
C129  C     C_R   0.598913 0.047561 0.948100 -0.018451
C130  C     C_R   0.397546 0.040432 0.051377 0.004609
C131  C     C_R   0.947374 0.403878 0.945826 0.000948
C132  C     C_R   0.950549 0.598056 0.053974 0.004489
C133  C     C_R   0.402022 0.047236 0.946859 -0.008912
C134  C     C_R   0.595925 0.053769 0.053161 0.004785
C135  C     C_R   0.961510 0.603269 0.949518 -0.002133
C136  C     C_R   0.960811 0.397483 0.050003 -0.009933
C137  C     C_R   0.134444 0.420254 0.473778 0.140261
C138  C     C_R   0.772332 0.728648 0.259944 -0.042669
C139  C     C_R   0.851825 0.517345 0.530937 0.179005
C140  C     C_R   0.463779 0.852980 0.481089 0.158833
C141  C     C_R   0.475957 0.152759 0.525439 0.182528
C142  C     C_R   0.853694 0.524760 0.476982 0.253323
C143  C     C_R   0.131966 0.413282 0.528012 0.257539
C144  C     C_R   0.476333 0.151500 0.470898 0.253061
C145  C     C_R   0.447914 0.854675 0.533402 0.250669
C146  C     C_R   0.648383 0.040432 0.974968 0.243489
C147  C     C_R   0.348805 0.030952 0.023773 0.264546
C148  C     C_R   0.959807 0.352070 0.967377 0.181313
C149  C     C_R   0.233749 0.275640 0.744799 -0.064707
C150  C     C_R   0.962686 0.649595 0.031552 0.189047
C151  C     C_R   0.350572 0.037276 0.969499 0.184424
C152  C     C_R   0.647304 0.045854 0.029309 0.179730
C153  C     C_R   0.971689 0.651383 0.977657 0.270057
C154  C     C_R   0.970347 0.349727 0.020935 0.243108
C155  C     C_R   0.548301 0.034387 0.027640 -0.010660
C156  C     C_R   0.449743 0.029220 0.972712 -0.006726
C157  C     C_R   0.969893 0.449372 0.026221 -0.082012
C158  C     C_R   0.970962 0.551575 0.973562 -0.078047
C159  C     C_R   0.448519 0.028399 0.027074 -0.069912
C160  C     C_R   0.732680 0.224781 0.246792 -0.034496
C161  C     C_R   0.549367 0.032495 0.973112 -0.081574
C162  C     C_R   0.967973 0.549724 0.027970 -0.004788
C163  C     C_R   0.966042 0.451539 0.971874 -0.013269
C164  C     C_R   0.040762 0.454712 0.527938 -0.055640
C165  C     C_R   0.945580 0.487418 0.473978 -0.090092
C166  C     C_R   0.462578 0.953567 0.529574 -0.071938
C167  C     C_R   0.471260 0.051983 0.472835 -0.083948
C168  C     C_R   0.945330 0.483758 0.528081 -0.003472
C169  C     C_R   0.041216 0.456351 0.473117 0.004539
C170  C     C_R   0.471033 0.052878 0.527383 -0.004213
C171  C     C_R   0.278235 0.762857 0.750047 -0.056795
C172  C     C_R   0.467121 0.951904 0.475283 0.005017
C173  C     C_R   0.995054 0.499829 0.109659 0.551482
C174  C     C_R   0.994864 0.500283 0.890271 0.543471
C175  C     C_R   0.499796 0.004884 0.109769 0.541528
C176  C     C_R   0.500003 0.005121 0.890259 0.505910
C177  C     C_R   0.494169 0.000583 0.610037 0.529268
C178  C     C_R   0.494782 0.000034 0.390530 0.509422
C179  C     C_R   0.999416 0.494860 0.609917 0.524838
C180  C     C_R   0.999332 0.495973 0.390455 0.557891
C181  C     C_R   0.498787 0.022347 0.054340 0.041106
C182  C     C_R   0.780263 0.261811 0.743928 -0.043023
C183  C     C_R   0.499999 0.021634 0.945987 0.035628
C184  C     C_R   0.977643 0.499291 0.054179 0.046162
C185  C     C_R   0.977213 0.501431 0.945686 0.041130
C186  C     C_R   0.995625 0.477503 0.554848 0.046379
C187  C     C_R   0.995852 0.480232 0.446379 0.049820
C188  C     C_R   0.475446 0.002552 0.555303 0.036601
C189  C     C_R   0.477770 0.001027 0.446614 0.032311
C190  C     C_R   0.105367 0.605105 0.249123 0.542304
C191  C     C_R   0.895577 0.394021 0.748780 0.567458
C192  C     C_R   0.604768 0.893999 0.248749 0.576747
H1    H     H_    0.165488 0.214431 0.260322 0.173690
H2    H     H_    0.197735 0.743879 0.162029 0.175820
H3    H     H_    0.723910 0.774517 0.830320 0.188546
H4    H     H_    0.233564 0.178363 0.310737 0.159149
H5    H     H_    0.244194 0.702282 0.829995 0.186987
H6    H     H_    0.813726 0.237509 0.316061 0.184747
H7    H     H_    0.228257 0.178646 0.696360 0.189644
H8    H     H_    0.783719 0.830718 0.224719 0.181509
H9    H     H_    0.732086 0.785419 0.665380 0.188394
H10   H     H_    0.322996 0.271407 0.197384 0.179612
H11   H     H_    0.719377 0.325004 0.737331 0.181103
H12   H     H_    0.825892 0.770223 0.690956 0.182895
H13   H     H_    0.234206 0.719160 0.322459 0.200594
H14   H     H_    0.330641 0.278112 0.790845 0.188711
H15   H     H_    0.666067 0.718576 0.286310 0.162306
H16   H     H_    0.221057 0.729680 0.668541 0.192838
H17   H     H_    0.745742 0.308664 0.178660 0.147684
H18   H     H_    0.252936 0.804280 0.320774 0.168732
H19   H     H_    0.687909 0.266950 0.797866 0.184047
H20   H     H_    0.286569 0.340800 0.246787 0.179490
H21   H     H_    0.730991 0.682835 0.803825 0.154833
H22   H     H_    0.670823 0.281776 0.222823 0.169889
H23   H     H_    0.281851 0.775148 0.159144 0.172804
H24   H     H_    0.346328 0.709437 0.737266 0.188979
H25   H     H_    0.717390 0.668022 0.230441 0.183597
H26   H     H_    0.285159 0.340100 0.716024 0.194702
H27   H     H_    0.792404 0.586792 0.362092 0.376642
H28   H     H_    0.184582 0.331725 0.627272 0.370729
H29   H     H_    0.492384 0.230001 0.351043 0.391640
H30   H     H_    0.387555 0.763032 0.632086 0.378936
H31   H     H_    0.177304 0.481114 0.388971 0.378489
H32   H     H_    0.785017 0.556667 0.651436 0.383164
H33   H     H_    0.518937 0.836689 0.380358 0.366675
H34   H     H_    0.780287 0.158639 0.701180 0.181087
H35   H     H_    0.486533 0.231185 0.642957 0.380933
H36   H     H_    0.270907 0.052250 0.850612 0.402682
H37   H     H_    0.726992 0.057457 0.147722 0.393149
H38   H     H_    0.009113 0.735454 0.865101 0.366758
H39   H     H_    0.978624 0.274624 0.134488 0.396484
H40   H     H_    0.732017 0.014613 0.859751 0.374632
H41   H     H_    0.263458 0.000878 0.137208 0.378754
H42   H     H_    0.937968 0.277019 0.848476 0.386848
H43   H     H_    0.940731 0.724608 0.149894 0.384821
H44   H     H_    0.994829 0.320701 0.267886 0.370795
H45   H     H_    0.836538 0.780415 0.288125 0.185917
H46   H     H_    0.967963 0.731271 0.737343 0.350256
H47   H     H_    0.315782 0.898061 0.107832 0.371010
H48   H     H_    0.735824 0.023041 0.757708 0.348122
H49   H     H_    0.982575 0.644710 0.316141 0.335166
H50   H     H_    0.125276 0.336765 0.884066 0.351061
H51   H     H_    0.640668 0.038584 0.337362 0.339526
H52   H     H_    0.293763 0.896015 0.872847 0.357690
H53   H     H_    0.974245 0.348504 0.678743 0.336094
H54   H     H_    0.174126 0.572091 0.138657 0.366428
H55   H     H_    0.633185 0.914744 0.906086 0.381357
H56   H     H_    0.178809 0.221717 0.784205 0.193931
H57   H     H_    0.204648 0.076232 0.304341 0.359406
H58   H     H_    0.114249 0.686422 0.884483 0.365198
H59   H     H_    0.940197 0.240985 0.305131 0.355419
H60   H     H_    0.322096 0.002460 0.665336 0.385789
H61   H     H_    0.690212 0.888789 0.121116 0.354464
H62   H     H_    0.582421 0.866155 0.593656 0.379979
H63   H     H_    0.441431 0.269801 0.231540 0.358832
H64   H     H_    0.806103 0.504735 0.745818 0.392788
H65   H     H_    0.077603 0.670243 0.358568 0.359532
H66   H     H_    0.481979 0.156108 0.788408 0.381906
H67   H     H_    0.783373 0.159884 0.276938 0.174890
H68   H     H_    0.569439 0.727529 0.334118 0.378412
H69   H     H_    0.190116 0.601211 0.618072 0.350804
H70   H     H_    0.709079 0.409135 0.178934 0.350707
H71   H     H_    0.438624 0.769983 0.288257 0.404334
H72   H     H_    0.556490 0.244796 0.716917 0.364652
H73   H     H_    0.161495 0.493853 0.202825 0.347561
H74   H     H_    0.705040 0.583354 0.819411 0.363929
H75   H     H_    0.588507 0.227139 0.137204 0.346910
H76   H     H_    0.515312 0.780062 0.706306 0.391336
H77   H     H_    0.776694 0.589169 0.140014 0.348081
H78   H     H_    0.218549 0.822472 0.770953 0.189552
H79   H     H_    0.214530 0.506639 0.677281 0.370837
H80   H     H_    0.108977 0.384386 0.375079 0.183952
H81   H     H_    0.837077 0.439972 0.607208 0.203689
H82   H     H_    0.428957 0.866201 0.378622 0.200116
H83   H     H_    0.412494 0.146057 0.614027 0.177039
H84   H     H_    0.901935 0.418320 0.405291 0.185434
H85   H     H_    0.041105 0.400807 0.629009 0.091288
H86   H     H_    0.401878 0.065575 0.391055 0.159168
H87   H     H_    0.401183 0.947208 0.624491 0.109877
H88   H     H_    0.558338 0.098384 0.887008 0.156746
H89   H     H_    0.850234 0.208813 0.738615 0.176599
H90   H     H_    0.434588 0.096730 0.109127 0.168050
H91   H     H_    0.885837 0.372338 0.888818 0.171608
H92   H     H_    0.890220 0.630629 0.112167 0.161418
H93   H     H_    0.376484 0.105442 0.883694 0.197758
H94   H     H_    0.626562 0.113280 0.112613 0.164715
H95   H     H_    0.905341 0.568335 0.891735 0.172761
H96   H     H_    0.905165 0.431355 0.109779 0.178696
O1    O     O_3   0.000000 0.500000 0.250000 -0.510099
O2    O     O_R   0.000000 0.454520 0.865790 -0.500714
O3    O     O_3   0.961936 0.695375 0.132577 -0.486945
O4    O     O_2   0.046142 0.255908 0.212450 -0.251886
O5    O     O_2   0.067439 0.220924 0.298406 -0.201713
O6    O     O_3   0.026394 0.318230 0.291440 -0.454820
O7    O     O_2   0.921188 0.650871 0.640868 -0.182174
O8    O     O_2   0.915070 0.750971 0.643741 -0.199948
O9    O     O_3   0.974453 0.701301 0.712455 -0.459699
O10   O     O_2   0.434900 0.844263 0.151057 -0.208599
O11   O     O_2   0.364697 0.797417 0.101054 -0.214130
O12   O     O_3   0.355442 0.902299 0.113925 -0.441944
O13   O     O_R   0.545480 0.000000 0.134210 -0.505107
O14   O     O_2   0.661678 0.060359 0.652988 -0.197835
O15   O     O_2   0.761058 0.065353 0.661408 -0.206595
O16   O     O_3   0.705949 0.015216 0.733211 -0.459113
O17   O     O_2   0.972215 0.717990 0.248612 -0.257390
O18   O     O_2   0.933673 0.768816 0.321002 -0.184559
O19   O     O_3   0.953698 0.665343 0.334579 -0.474891
O20   O     O_2   0.039991 0.282550 0.795208 -0.105408
O21   O     O_2   0.104245 0.232099 0.849024 -0.201857
O22   O     O_3   0.088410 0.334958 0.868597 -0.439569
O23   O     O_2   0.765162 0.046499 0.283484 -0.163476
O24   O     O_R   0.454520 0.000000 0.865790 -0.519576
O25   O     O_2   0.728136 0.090378 0.359872 -0.224357
O26   O     O_3   0.663740 0.027572 0.307715 -0.484640
O27   O     O_2   0.287215 0.967566 0.760369 -0.166462
O28   O     O_2   0.213449 0.917706 0.802993 -0.220642
O29   O     O_3   0.304913 0.928235 0.851923 -0.420921
O30   O     O_2   0.961549 0.229538 0.744941 -0.175211
O31   O     O_2   0.931286 0.254086 0.658838 -0.200468
O32   O     O_3   0.984075 0.327318 0.710036 -0.469864
O33   O     O_2   0.078070 0.671949 0.129646 -0.131892
O34   O     O_2   0.170963 0.672501 0.095331 -0.219465
O35   O     O_R   0.500000 0.954520 0.634210 -0.552149
O36   O     O_3   0.135078 0.582577 0.137013 -0.500654
O37   O     O_2   0.574488 0.845251 0.850521 -0.247005
O38   O     O_2   0.650926 0.801333 0.895317 -0.217739
O39   O     O_3   0.657199 0.905701 0.876502 -0.441310
O40   O     O_2   0.336755 0.038106 0.316078 -0.267308
O41   O     O_2   0.281227 0.094649 0.373475 -0.211190
O42   O     O_3   0.234794 0.051506 0.293905 -0.448883
O43   O     O_2   0.156266 0.560865 0.845193 -0.209014
O44   O     O_2   0.210226 0.628007 0.892543 -0.206761
O45   O     O_3   0.106782 0.646787 0.880404 -0.433322
O46   O     O_R   0.500000 0.045480 0.365790 -0.551999
O47   O     O_2   0.936706 0.354654 0.342382 -0.264561
O48   O     O_2   0.863249 0.309775 0.390374 -0.188117
O49   O     O_3   0.932062 0.248301 0.341878 -0.394850
O50   O     O_2   0.234848 0.057981 0.708295 -0.186422
O51   O     O_2   0.276311 0.095904 0.630220 -0.204623
O52   O     O_3   0.335509 0.032182 0.687841 -0.489316
O53   O     O_2   0.711772 0.971439 0.223830 -0.130446
O54   O     O_2   0.780028 0.918181 0.177346 -0.215876
O55   O     O_3   0.682374 0.923401 0.139507 -0.429921
O56   O     O_2   0.650131 0.929681 0.647215 -0.214930
O57   O     O_R   0.954520 0.500000 0.634210 -0.511116
O58   O     O_2   0.696260 0.855596 0.600814 -0.205836
O59   O     O_3   0.593642 0.843271 0.623473 -0.454375
O60   O     O_2   0.456787 0.163487 0.179122 -0.224921
O61   O     O_2   0.392985 0.213425 0.123719 -0.170954
O62   O     O_3   0.443501 0.268167 0.193445 -0.385792
O63   O     O_2   0.764165 0.441113 0.682567 -0.257379
O64   O     O_2   0.712778 0.424910 0.762038 -0.179983
O65   O     O_3   0.806227 0.472498 0.769185 -0.413335
O66   O     O_2   0.186324 0.583616 0.358132 -0.179177
O67   O     O_2   0.183316 0.675236 0.395433 -0.200151
O68   O     O_R   0.045480 0.500000 0.365790 -0.512662
O69   O     O_3   0.092457 0.632864 0.363941 -0.484094
O70   O     O_2   0.448661 0.259118 0.795960 -0.157889
O71   O     O_2   0.395997 0.223041 0.868176 -0.178092
O72   O     O_3   0.459848 0.155804 0.820184 -0.483281
O73   O     O_2   0.528131 0.803773 0.231190 -0.220268
O74   O     O_2   0.570555 0.713487 0.232288 -0.219869
O75   O     O_3   0.544851 0.756032 0.319827 -0.427867
O76   O     O_2   0.070220 0.660391 0.653126 -0.164930
O77   O     O_2   0.144703 0.704855 0.605822 -0.199080
O78   O     O_3   0.149750 0.599614 0.620279 -0.453577
O79   O     O_R   0.500000 0.045480 0.634210 -0.502766
O80   O     O_2   0.839545 0.454351 0.176463 -0.209877
O81   O     O_2   0.793295 0.392215 0.117098 -0.234410
O82   O     O_3   0.736507 0.436306 0.190232 -0.383173
O83   O     O_2   0.353071 0.802055 0.387506 -0.203331
O84   O     O_2   0.348230 0.727539 0.326091 -0.214678
O85   O     O_3   0.433598 0.788844 0.321644 -0.450653
O86   O     O_2   0.562157 0.189433 0.837884 -0.200335
O87   O     O_2   0.589114 0.281514 0.811119 -0.190716
O88   O     O_3   0.539327 0.221610 0.743928 -0.491405
O89   O     O_2   0.222235 0.470797 0.277189 -0.188647
O90   O     O_R   0.500000 0.954520 0.365790 -0.560943
O91   O     O_2   0.280071 0.437056 0.207342 -0.190529
O92   O     O_3   0.180161 0.463050 0.185353 -0.500107
O93   O     O_2   0.838544 0.550522 0.829823 -0.251771
O94   O     O_2   0.784083 0.615439 0.879471 -0.214367
O95   O     O_3   0.735286 0.558537 0.809462 -0.426041
O96   O     O_2   0.527925 0.204575 0.253580 -0.204947
O97   O     O_2   0.569842 0.289008 0.222804 -0.226780
O98   O     O_3   0.558520 0.210350 0.157581 -0.391726
O99   O     O_2   0.467861 0.803789 0.797031 -0.242718
O100  O     O_2   0.446668 0.712881 0.763081 -0.222492
O101  O     O_R   0.045480 0.500000 0.634210 -0.518588
O102  O     O_3   0.476618 0.788567 0.698539 -0.424431
O103  O     O_2   0.795908 0.524661 0.255029 -0.140740
O104  O     O_2   0.712280 0.566850 0.223613 -0.207088
O105  O     O_3   0.793106 0.558598 0.159944 -0.398548
O106  O     O_2   0.204675 0.473330 0.774928 -0.247647
O107  O     O_2   0.289036 0.443152 0.732866 -0.218020
O108  O     O_3   0.206222 0.466988 0.675090 -0.405318
O109  O     O_2   0.029973 0.381198 0.389187 -0.420988
O110  O     O_2   0.908389 0.402663 0.599541 -0.503858
O111  O     O_2   0.385363 0.930963 0.399327 -0.449777
O112  O     O_3   1.000000 0.500000 0.750000 -0.514107
O113  O     O_R   0.954520 0.500000 0.365790 -0.543637
O114  O     O_2   0.390643 0.069036 0.604058 -0.472663
O115  O     O_2   0.827553 0.449648 0.399245 -0.371918
O116  O     O_2   0.074379 0.337280 0.594590 -0.409201
O117  O     O_2   0.394261 0.146218 0.394652 -0.397323
O118  O     O_2   0.353050 0.892921 0.591849 -0.404598
O119  O     O_2   0.637105 0.114853 0.892284 -0.399852
O120  O     O_2   0.354233 0.103585 0.107684 -0.384004
O121  O     O_2   0.884980 0.452859 0.892991 -0.472911
O122  O     O_2   0.887742 0.550164 0.106993 -0.471228
O123  O     O_2   0.446997 0.125073 0.915362 -0.417336
O124  O     O_R   0.063990 0.609460 0.219650 -0.468845
O125  O     O_2   0.546361 0.113258 0.107848 -0.473851
O126  O     O_2   0.900725 0.649287 0.892783 -0.388620
O127  O     O_2   0.902890 0.350300 0.108739 -0.431416
O128  O     O_R   0.936010 0.390540 0.780350 -0.479781
O129  O     O_R   0.609460 0.936010 0.219650 -0.451690
O130  O     O_R   0.390540 0.063990 0.780350 -0.471698
O131  O     O_R   0.936010 0.390540 0.219650 -0.541210
O132  O     O_R   0.063990 0.609460 0.780350 -0.468922
O133  O     O_R   0.390540 0.063990 0.219650 -0.488503
O134  O     O_R   0.609460 0.936010 0.780350 -0.456074
O135  O     O_R   0.936010 0.609460 0.780350 -0.490758
O136  O     O_3   0.500000 0.000000 0.250000 -0.506344
O137  O     O_R   0.063990 0.390540 0.219650 -0.484702
O138  O     O_R   0.390540 0.936010 0.780350 -0.456548
O139  O     O_R   0.609460 0.063990 0.219650 -0.481810
O140  O     O_R   0.063990 0.390540 0.780350 -0.451000
O141  O     O_R   0.936010 0.609460 0.219650 -0.510989
O142  O     O_R   0.609460 0.063990 0.780350 -0.492043
O143  O     O_R   0.390540 0.936010 0.219650 -0.468867
O144  O     O_R   0.563990 0.109460 0.719650 -0.492743
O145  O     O_R   0.436010 0.890540 0.280350 -0.513775
O146  O     O_R   0.109460 0.436010 0.719650 -0.488757
O147  O     O_3   0.500000 0.000000 0.750000 -0.507002
O148  O     O_R   0.890540 0.563990 0.280350 -0.467375
O149  O     O_R   0.436010 0.890540 0.719650 -0.491185
O150  O     O_R   0.563990 0.109460 0.280350 -0.478879
O151  O     O_R   0.890540 0.563990 0.719650 -0.502009
O152  O     O_R   0.109460 0.436010 0.280350 -0.522783
O153  O     O_R   0.436010 0.109460 0.280350 -0.486788
O154  O     O_R   0.563990 0.890540 0.719650 -0.482028
O155  O     O_R   0.890540 0.436010 0.280350 -0.458538
O156  O     O_R   0.109460 0.563990 0.719650 -0.484452
O157  O     O_R   0.563990 0.890540 0.280350 -0.497180
O158  O     O_R   1.000000 0.454520 0.134210 -0.548016
O159  O     O_R   0.436010 0.109460 0.719650 -0.542493
O160  O     O_R   0.109460 0.563990 0.280350 -0.479014
O161  O     O_R   0.890540 0.436010 0.719650 -0.506838
O162  O     O_2   0.748877 0.544479 0.452573 -0.146948
O163  O     O_2   0.810309 0.623665 0.458127 -0.188358
O164  O     O_3   0.818782 0.561245 0.378352 -0.448436
O165  O     O_2   0.216067 0.342288 0.536777 -0.180971
O166  O     O_2   0.230609 0.435798 0.567172 -0.145676
O167  O     O_3   0.173807 0.370772 0.624364 -0.478213
O168  O     O_2   0.457649 0.256436 0.444228 -0.154265
O169  O     O_R   0.000000 0.545480 0.865790 -0.528636
O170  O     O_2   0.552782 0.224659 0.442846 -0.183952
O171  O     O_3   0.490073 0.194118 0.368980 -0.458737
O172  O     O_2   0.415035 0.749596 0.535455 -0.168077
O173  O     O_2   0.492994 0.774189 0.589322 -0.170351
O174  O     O_3   0.396610 0.800797 0.620721 -0.455935
O175  O     O_2   0.244681 0.433777 0.464886 -0.123002
O176  O     O_2   0.204394 0.351282 0.427570 -0.188149
O177  O     O_3   0.190727 0.443980 0.380371 -0.469965
O178  O     O_2   0.782447 0.599632 0.555919 -0.156912
O179  O     O_2   0.748518 0.505402 0.563103 -0.186658
O180  O     O_R   0.454520 0.000000 0.134210 -0.526783
O181  O     O_3   0.816217 0.540533 0.632387 -0.510788
O182  O     O_2   0.528140 0.763279 0.491034 -0.129313
O183  O     O_2   0.455285 0.759377 0.427181 -0.119738
O184  O     O_3   0.541227 0.819146 0.407548 -0.463959
O185  O     O_2   0.532073 0.247541 0.540454 -0.132577
O186  O     O_2   0.433796 0.247555 0.558224 -0.219445
O187  O     O_3   0.498764 0.198777 0.623180 -0.531028
O188  O     O_2   0.250028 0.999695 0.943749 -0.132334
O189  O     O_2   0.264600 0.098976 0.943134 -0.210574
O190  O     O_3   0.305036 0.041365 0.868334 -0.487651
O191  O     O_R   0.545480 0.000000 0.865790 -0.550007
O192  O     O_2   0.748475 0.006781 0.052020 -0.116442
O193  O     O_2   0.733542 0.105844 0.057210 -0.234345
O194  O     O_3   0.694292 0.043337 0.129800 -0.480349
O195  O     O_2   0.949405 0.756084 0.952031 -0.156448
O196  O     O_2   0.045720 0.731117 0.963821 -0.197760
O197  O     O_3   0.998044 0.699867 0.880452 -0.470462
O198  O     O_2   0.951419 0.244407 0.046343 -0.169775
O199  O     O_2   0.046524 0.271120 0.030633 -0.153195
O200  O     O_3   0.002373 0.301251 0.116161 -0.446080
O201  O     O_2   0.750224 0.071505 0.948666 -0.152374
O202  O     O_R   0.000000 0.545480 0.134210 -0.478359
O203  O     O_2   0.732604 0.972776 0.956642 -0.186364
O204  O     O_3   0.696276 0.022857 0.875966 -0.464843
O205  O     O_2   0.246883 0.061727 0.049811 -0.143855
O206  O     O_2   0.263711 0.963312 0.038936 -0.222061
O207  O     O_3   0.299499 0.009205 0.121572 -0.465006
O208  O     O_2   0.001881 0.253383 0.939178 -0.097735
O209  O     O_2   0.902448 0.263265 0.941653 -0.232837
O210  O     O_3   0.956345 0.307953 0.865842 -0.479101
O211  O     O_2   0.003736 0.749501 0.056708 -0.110663
O212  O     O_2   0.904528 0.737774 0.058226 -0.245478
S1    S     S_3+6 0.805772 0.564789 0.441985 0.159276
S2    S     S_3+6 0.708226 0.050544 0.066575 0.105055
S3    S     S_3+6 0.991450 0.711991 0.943972 0.150103
S4    S     S_3+6 0.992834 0.289271 0.053006 0.164408
S5    S     S_3+6 0.709231 0.026839 0.939494 0.142310
S6    S     S_3+6 0.287373 0.016197 0.058055 0.143200
S7    S     S_3+6 0.955220 0.291840 0.928946 0.117460
S8    S     S_3+6 0.958278 0.710362 0.069304 0.108351
S9    S     S_3+6 0.067344 0.271240 0.264663 0.067335
S10   S     S_3+6 0.917919 0.699601 0.675929 0.096755
S11   S     S_3+6 0.374828 0.842056 0.139554 0.083604
S12   S     S_3+6 0.189862 0.389974 0.563815 0.155007
S13   S     S_3+6 0.707821 0.067221 0.690421 0.088717
S14   S     S_3+6 0.933188 0.714817 0.293398 0.069271
S15   S     S_3+6 0.093162 0.286275 0.823131 0.129646
S16   S     S_3+6 0.715137 0.073311 0.305700 0.090934
S17   S     S_3+6 0.274234 0.919711 0.794684 0.095823
S18   S     S_3+6 0.938993 0.275445 0.712558 0.099717
S19   S     S_3+6 0.135162 0.651483 0.138319 0.095358
S20   S     S_3+6 0.635584 0.844193 0.856067 0.078098
S21   S     S_3+6 0.291685 0.079877 0.318134 0.071388
S22   S     S_3+6 0.164363 0.620999 0.854794 0.086567
S23   S     S_3+6 0.494636 0.208983 0.432054 0.151338
S24   S     S_3+6 0.897290 0.307818 0.342099 0.068449
S25   S     S_3+6 0.286712 0.080650 0.685541 0.095378
S26   S     S_3+6 0.720876 0.920479 0.193011 0.112366
S27   S     S_3+6 0.654467 0.868516 0.641591 0.090643
S28   S     S_3+6 0.414574 0.208090 0.177638 0.114663
S29   S     S_3+6 0.768998 0.425658 0.738521 0.093782
S30   S     S_3+6 0.160118 0.639167 0.354147 0.097765
S31   S     S_3+6 0.417801 0.209947 0.815444 0.103713
S32   S     S_3+6 0.567628 0.767567 0.259689 0.069553
S33   S     S_3+6 0.130912 0.660665 0.644351 0.095300
S34   S     S_3+6 0.438420 0.793057 0.569752 0.151701
S35   S     S_3+6 0.797221 0.410201 0.172270 0.105210
S36   S     S_3+6 0.366140 0.785998 0.333033 0.067352
S37   S     S_3+6 0.583086 0.223175 0.793618 0.084979
S38   S     S_3+6 0.223189 0.436362 0.229346 0.096596
S39   S     S_3+6 0.792756 0.591159 0.826940 0.062981
S40   S     S_3+6 0.571420 0.227543 0.218828 0.083774
S41   S     S_3+6 0.442321 0.773486 0.752981 0.073956
S42   S     S_3+6 0.773601 0.569336 0.221072 0.106178
S43   S     S_3+6 0.227735 0.440163 0.731288 0.096650
S44   S     S_3+6 0.195811 0.411338 0.437368 0.109893
S45   S     S_3+6 0.797392 0.541776 0.570111 0.106643
S46   S     S_3+6 0.496573 0.796052 0.452074 0.137910
S47   S     S_3+6 0.485348 0.214162 0.561163 0.089005
S48   S     S_3+6 0.290267 0.044378 0.931635 0.109153
Zn1   Zn    Zn3+2 0.064970 0.500000 0.293390 1.046516
Zn2   Zn    Zn3+2 0.435030 0.000000 0.206610 1.103331
Zn3   Zn    Zn3+2 0.000000 0.435030 0.793390 1.094895
Zn4   Zn    Zn3+2 0.000000 0.564970 0.206610 1.084665
Zn5   Zn    Zn3+2 0.435030 1.000000 0.793390 1.082648
Zn6   Zn    Zn3+2 0.564970 0.000000 0.206610 1.108161
Zn7   Zn    Zn3+2 0.000000 0.564970 0.793390 1.105362
Zn8   Zn    Zn3+2 0.000000 0.435030 0.206610 1.053108
Zn9   Zn    Zn3+2 0.935030 0.500000 0.706610 1.056782
Zn10  Zn    Zn3+2 0.500000 0.935030 0.293390 1.034019
Zn11  Zn    Zn3+2 0.500000 0.064970 0.706610 1.054248
Zn12  Zn    Zn3+2 0.935030 0.500000 0.293390 1.101794
Zn13  Zn    Zn3+2 0.064970 0.500000 0.706610 1.080123
Zn14  Zn    Zn3+2 0.500000 0.064970 0.293390 1.069824
Zn15  Zn    Zn3+2 0.500000 0.935030 0.706610 1.074337
Zn16  Zn    Zn3+2 0.564970 1.000000 0.793390 1.080505

loop_
_geom_bond_atom_site_label_1
_geom_bond_atom_site_label_2
_ccdc_geom_bond_type
C191  O161  A    
C111  C191  S    
O160  Zn1   S    
C8    O135  A    
O44   S22   D    
C132  C150  A    
O29   S17   S    
C68   C138  S    
C133  C151  A    
O204  S5    S    
C164  C169  A    
C4    O131  A    
O201  S5    D    
O87   S37   D    
O7    S10   D    
O35   Zn15  S    
C165  C187  A    
C191  O128  A    
O50   S25   D    
C166  C188  A    
O3    S8    S    
C164  C186  A    
O55   S26   S    
C139  C142  A    
O32   S18   S    
C128  C145  A    
C34   H9    S    
H31   O177  S    
C139  S45   S    
C28   H3    S    
C39   C74   A    
O95   S39   S    
H44   O6    S    
C26   H89   S    
C190  O160  A    
C2    C116  S    
O67   S30   D    
O165  S12   D    
H37   O194  S    
C47   C105  A    
O162  S1    D    
C98   C131  S    
O49   S24   S    
C103  O126  D    
C25   C60   A    
C92   H84   S    
C93   H85   S    
C36   C71   A    
C33   C69   A    
O186  S47   D    
O78   S33   S    
C25   C171  A    
C86   S43   S    
C29   C64   A    
O177  S44   S    
C78   C101  A    
C32   C57   A    
O147  Zn15  S    
C17   C52   A    
C156  C183  A    
C51   H26   S    
C45   C81   A    
O16   S13   S    
C45   H20   S    
O124  Zn4   S    
C96   H88   S    
C122  C172  A    
O134  Zn16  S    
C169  C187  A    
C126  C167  A    
C141  C144  A    
C12   C108  S    
C10   O149  A    
C98   H91   S    
C88   C121  S    
C19   C54   A    
O189  S48   D    
O20   S15   D    
O9    S10   S    
C69   C119  A    
C192  O129  A    
H77   O105  S    
O97   S40   D    
C180  C187  S    
C75   S32   S    
O100  S41   D    
O172  S34   D    
C177  O79   A    
C46   C160  S    
C123  C141  A    
C159  C181  A    
C94   O117  D    
O75   S32   S    
O101  Zn13  S    
O133  Zn2   S    
C42   H17   S    
O41   S21   D    
C15   O144  A    
H55   O39   S    
C26   C182  A    
C14   C107  S    
H49   O19   S    
O19   S14   S    
C61   S18   S    
C64   S21   S    
O69   S30   S    
O169  Zn7   S    
O203  S5    D    
C78   S36   S    
H75   O98   S    
C74   S31   S    
O112  Zn13  S    
C16   O143  A    
C79   C81   A    
C121  C168  A    
H50   O22   S    
O211  S8    D    
O212  S8    D    
H63   O62   S    
C69   S26   S    
O90   Zn10  S    
C152  S2    S    
C180  O68   A    
C86   C108  A    
O68   Zn1   S    
O91   S38   D    
H30   O174  S    
C140  C145  A    
C22   C58   A    
C50   C138  A    
O12   S11   S    
C180  O113  A    
O182  S46   D    
O92   S38   S    
O158  Zn8   S    
O136  Zn2   S    
C192  O157  A    
O179  S45   D    
O71   S31   D    
C80   S37   S    
C41   C76   A    
C22   H56   S    
O61   S28   D    
O79   Zn11  S    
O149  Zn15  S    
C102  O125  D    
C59   C109  A    
C19   H23   S    
C67   C118  A    
C84   C110  A    
O180  Zn2   S    
C85   S42   S    
C63   C113  A    
C28   C63   A    
C53   S10   S    
C137  S44   S    
C31   H6    S    
C96   C129  S    
O112  Zn9   S    
H38   O197  S    
C21   H45   S    
C166  C172  A    
C3    O159  A    
C54   C101  A    
O199  S4    D    
H52   O29   S    
C142  S1    S    
O104  S42   D    
O30   S18   D    
C102  C134  S    
O196  S3    D    
C72   C111  A    
O45   S22   S    
C23   C59   A    
C48   C160  A    
C24   C36   A    
C177  C188  S    
O136  Zn14  S    
C49   C84   A    
O138  Zn5   S    
H43   O3    S    
O85   S36   S    
O59   S27   S    
C87   H80   S    
O167  S12   S    
C89   C122  S    
C65   S22   S    
C80   C106  A    
H73   O92   S    
C20   H34   S    
C16   O145  A    
C9    C79   S    
C6    C114  S    
O132  Zn7   S    
C15   O142  A    
O161  Zn9   S    
C95   C128  S    
C81   S38   S    
C173  C184  S    
C148  S7    S    
C31   C46   A    
C57   C149  S    
C62   S19   S    
C157  C184  A    
C52   C79   A    
O170  S23   D    
C18   C53   A    
C175  C181  S    
O8    S10   D    
C77   S35   S    
O14   S13   D    
C91   C123  S    
O94   S39   D    
O64   S29   D    
C65   C115  A    
O84   S36   D    
C153  S3    S    
O139  Zn6   S    
H35   O187  S    
C70   C113  A    
C167  C189  A    
H68   O75   S    
C64   C114  A    
C129  C161  A    
C23   C160  A    
C119  C192  S    
C20   C127  A    
H39   O200  S    
O99   S41   D    
C38   C73   A    
C74   C118  A    
C150  C153  A    
C147  C151  A    
C88   H81   S    
C11   O139  A    
H53   O32   S    
C43   C116  A    
C94   H86   S    
O181  S45   S    
C54   S11   S    
C2    C38   A    
O56   S27   D    
C9    O137  A    
O47   S24   D    
O107  S43   D    
C27   H2    S    
O147  Zn11  S    
H27   O164  S    
C179  O101  A    
C6    O153  A    
C2    C27   A    
C76   S33   S    
C104  H96   S    
C32   C67   A    
C4    O155  A    
O88   S37   S    
H48   O16   S    
C4    C117  S    
C125  C164  A    
C10   O138  A    
O89   S38   D    
O76   S33   D    
O31   S18   D    
O198  S4    D    
H72   O88   S    
C73   C112  A    
O11   S11   D    
C104  C136  S    
C130  C147  A    
H64   O65   S    
C155  C181  A    
H36   O190  S    
O24   Zn5   S    
C165  C168  A    
O25   S16   D    
C1    C17   A    
O4    S9    D    
C48   C83   A    
C44   H19   S    
O13   Zn6   S    
C102  H94   S    
O80   S35   D    
C122  C140  A    
C92   O115  D    
H61   O55   S    
C1    C45   A    
O153  Zn14  S    
O105  S42   S    
C125  C143  A    
C88   O110  D    
O36   S19   S    
O108  S43   S    
C35   C41   A    
C132  C162  A    
C40   H15   S    
O1    Zn4   S    
C112  C190  S    
C124  C165  A    
C5    O132  A    
C16   C101  S    
C1    C24   S    
C170  C188  A    
C127  C182  S    
C18   H12   S    
H60   O52   S    
C96   O119  D    
C174  O169  A    
H74   O95   S    
C33   C68   A    
O207  S6    S    
O140  Zn3   S    
O83   S36   D    
C52   S9    S    
C44   C127  A    
O21   S15   D    
C38   H13   S    
C31   C66   A    
C133  C156  A    
C35   C171  S    
H71   O85   S    
O58   S27   D    
C73   S30   S    
C175  O180  A    
C155  C161  A    
C43   C78   A    
O38   S20   D    
O163  S1    D    
C175  O13   A    
O52   S25   S    
O210  S7    S    
C100  O123  D    
C26   C61   A    
C154  S4    S    
C97   C130  S    
C151  S48   S    
C143  S12   S    
C92   C124  S    
C174  C185  S    
O42   S21   S    
C59   S16   S    
H69   O78   S    
C39   H14   S    
O190  S48   S    
C76   C115  A    
C173  O202  A    
O23   S16   D    
C42   C46   A    
C24   C29   A    
H70   O82   S    
O98   S40   S    
C50   C85   A    
O1    Zn8   S    
C56   S14   S    
C66   C117  A    
O173  S34   D    
C13   C28   A    
O154  Zn15  S    
C34   C70   A    
C178  O90   A    
O113  Zn12  S    
C58   S15   S    
C99   H92   S    
O188  S48   D    
H41   O207  S    
C22   C149  A    
C9    O152  A    
H76   O102  S    
O206  S6    D    
O136  Zn10  S    
O22   S15   S    
H58   O45   S    
O33   S19   D    
C148  C154  A    
C21   C138  A    
C51   C86   A    
O37   S20   D    
C48   H22   S    
C55   C106  A    
C67   S25   S    
C44   C80   A    
O74   S32   D    
C13   C105  S    
O155  Zn12  S    
O128  Zn3   S    
C158  C185  A    
C179  C186  S    
O18   S14   D    
C33   H8    S    
O46   Zn14  S    
O106  S43   D    
C91   O114  D    
C179  O57   A    
C71   C114  A    
O202  Zn4   S    
C161  C183  A    
C147  S6    S    
C162  C184  A    
C176  O191  A    
C136  C154  A    
C7    O154  A    
H66   O72   S    
C134  C152  A    
C12   O140  A    
O103  S42   D    
O54   S26   D    
C129  C146  A    
O130  Zn5   S    
C178  O46   A    
C89   H82   S    
H29   O171  S    
O205  S6    D    
O147  Zn16  S    
H65   O69   S    
H40   O204  S    
C15   C106  S    
H47   O12   S    
O166  S12   D    
O39   S20   S    
C178  C189  S    
C50   H25   S    
C3    O130  A    
O73   S32   D    
O28   S17   D    
O27   S17   D    
C71   S28   S    
C135  C153  A    
O152  Zn1   S    
C21   C56   A    
O77   S33   D    
O159  Zn11  S    
C172  C189  A    
C32   H7    S    
C82   C90   A    
C40   C75   A    
C41   H16   S    
C91   H83   S    
C6    O133  A    
C13   C34   A    
O171  S23   S    
O112  Zn7   S    
C121  C139  A    
O15   S13   D    
O60   S28   D    
C37   C182  A    
C47   H21   S    
O40   S21   D    
C10   C110  S    
C58   C108  A    
C120  C169  A    
O137  Zn8   S    
C93   C125  S    
C98   O121  D    
C60   C110  A    
O195  S3    D    
C72   S29   S    
O197  S3    S    
O183  S46   D    
C62   C112  A    
C51   C149  A    
O208  S7    D    
C40   C68   A    
C37   C72   A    
C53   C90   A    
C130  C159  A    
C120  C137  A    
C104  O127  D    
C89   O111  D    
O1    Zn1   S    
C55   S13   S    
C176  C183  S    
O164  S1    S    
C11   C109  S    
C17   H1    S    
O209  S7    D    
O187  S47   S    
O102  S41   S    
C168  C186  A    
C95   O118  D    
C87   O109  D    
C49   H24   S    
C30   C35   A    
H42   O210  S    
C19   C116  A    
C8    O151  A    
C3    C118  S    
C7    O134  A    
H57   O42   S    
C77   C117  A    
O176  S44   D    
C144  S23   S    
O112  Zn3   S    
C39   C57   A    
C66   S24   S    
O174  S34   S    
C47   C82   A    
C126  C144  A    
O51   S25   D    
C43   H18   S    
C103  C135  S    
O66   S30   D    
C60   S17   S    
O168  S23   D    
O151  Zn9   S    
H32   O181  S    
O93   S39   D    
C83   C109  A    
C150  S8    S    
O178  S45   D    
C131  C163  A    
O70   S31   D    
H54   O36   S    
C157  C163  A    
C25   H78   S    
O57   Zn9   S    
C137  C143  A    
O62   S28   S    
C135  C158  A    
C128  C166  A    
C124  C142  A    
C70   S27   S    
C36   H10   S    
C20   C55   A    
O129  Zn6   S    
H59   O49   S    
C97   O120  D    
O194  S2    S    
C167  C170  A    
C94   C126  S    
H62   O59   S    
O141  Zn4   S    
C95   H87   S    
O157  Zn10  S    
C140  S46   S    
C123  C170  A    
O142  Zn16  S    
O191  Zn16  S    
O147  Zn5   S    
O146  Zn13  S    
C75   C119  A    
O86   S37   D    
O175  S44   D    
C49   C171  A    
O1    Zn12  S    
C5    O156  A    
C100  H93   S    
C14   O148  A    
O150  Zn14  S    
O26   S16   S    
O200  S4    S    
O53   S26   D    
C12   O146  A    
C84   S41   S    
H46   O9    S    
C56   C107  A    
O17   S14   D    
C145  S34   S    
C103  H95   S    
C63   S20   S    
O6    S9    S    
O136  Zn6   S    
C37   H11   S    
C131  C148  A    
O72   S31   S    
O82   S35   S    
C42   C77   A    
C146  C152  A    
C136  C157  A    
O192  S2    D    
C190  O124  A    
C14   O141  A    
O5    S9    D    
C30   C65   A    
C8    C90   S    
C61   C111  A    
C99   O122  D    
C173  O158  A    
C100  C133  S    
C93   O116  D    
H79   O108  S    
O193  S2    D    
O143  Zn2   S    
C134  C155  A    
O81   S35   D    
O135  Zn7   S    
C83   S40   S    
O48   S24   D    
C156  C159  A    
C99   C132  S    
C27   C62   A    
C29   H4    S    
O148  Zn12  S    
O63   S29   D    
C163  C185  A    
O144  Zn11  S    
C7    C113  S    
C18   C105  A    
C87   C120  S    
C97   H90   S    
O131  Zn8   S    
C11   O150  A    
O10   S11   D    
O184  S46   S    
C82   S39   S    
O145  Zn10  S    
O185  S47   D    
C141  S47   S    
H28   O167  S    
C158  C162  A    
C146  S5    S    
C23   H67   S    
O2    Zn3   S    
C30   H5    S    
C174  O2    A    
C176  O24   A    
H51   O26   S    
O96   S40   D    
C177  O35   A    
O156  Zn13  S    
C85   C107  A    
O65   S29   S    
H33   O184  S    
C5    C115  S    
O34   S19   D    
O43   S22   D    
