data_mof_unit_45277.cif
_audit_creation_date              2012-12-10T17:22:40-0500
_audit_creation_method            fapswitch 2.2
_symmetry_space_group_name_H-M    P1
_symmetry_Int_Tables_number       1
_space_group_crystal_system       triclinic
_cell_length_a                    10.621263
_cell_length_b                    10.853831
_cell_length_c                    9.626321
_cell_angle_alpha                 90.609917
_cell_angle_beta                  90.80283
_cell_angle_gamma                 93.354148
_cell_volume                      1107.65287079

loop_
_atom_site_label
_atom_site_type_symbol
_atom_type_description
_atom_site_fract_x
_atom_site_fract_y
_atom_site_fract_z
_atom_type_partial_charge
C1    C     C_R   0.510332 0.263388 0.500391 0.797215
C2    C     C_3   0.963274 0.602145 0.435972 -0.236530
C3    C     C_3   0.037768 0.500007 0.366982 -0.189765
C4    C     C_3   0.122529 0.498545 0.497450 -0.054469
C5    C     C_R   0.580338 0.124085 0.755894 -0.157960
C6    C     C_R   0.563494 0.066377 0.883415 -0.175070
C7    C     C_R   0.500008 0.951121 0.888651 -0.150954
C8    C     C_R   0.465510 0.888236 0.765653 -0.140094
C9    C     C_R   0.495243 0.940032 0.634447 0.090908
C10   C     C_R   0.533815 0.066295 0.631083 0.095860
C11   C     C_R   0.522763 0.129720 0.503444 -0.120125
C12   C     C_R   0.259537 0.499018 0.499079 0.840071
C13   C     C_R   0.506142 0.062664 0.379048 -0.221309
C14   C     C_R   0.494823 0.935276 0.380416 -0.212544
C15   C     C_R   0.488809 0.872154 0.506637 -0.099063
C16   C     C_R   0.665223 0.668776 0.147706 -0.168982
C17   C     C_R   0.741886 0.755946 0.077432 0.160352
C18   C     C_R   0.742067 0.753551 0.933812 -0.215168
C19   C     C_R   0.665638 0.666941 0.860358 -0.187402
C20   C     C_R   0.581700 0.581972 0.927527 0.133349
C21   C     C_R   0.581658 0.582304 0.076767 0.130268
C22   C     C_R   0.420290 0.422183 0.069326 0.178335
C23   C     C_R   0.493326 0.737395 0.501527 0.789788
C24   C     C_R   0.421298 0.422480 0.921727 0.266254
C25   C     C_R   0.740487 0.500668 0.500931 0.772555
C26   C     C_3   0.036538 0.397340 0.563453 -0.235031
C27   C     C_3   0.949583 0.398762 0.432959 -0.131298
C28   C     C_3   0.877443 0.500611 0.502547 -0.040262
C29   C     C_3   0.961896 0.498721 0.633947 -0.228905
C30   C     C_3   0.048674 0.598283 0.565705 0.557938
Cu1   Cu    Cu3+1 0.499990 0.499990 0.640660 0.948178
Cu2   Cu    Cu3+1 0.500010 0.500010 0.359340 0.923673
H1    H     H_    0.905079 0.316352 0.378425 0.136498
H2    H     H_    0.480045 0.908974 0.988005 0.138991
H3    H     H_    0.411904 0.801444 0.776300 0.187138
H4    H     H_    0.488790 0.886309 0.281654 0.165092
H5    H     H_    0.674334 0.672947 0.257398 0.195232
H6    H     H_    0.801597 0.820077 0.878150 0.150345
H7    H     H_    0.674911 0.671777 0.750860 0.206569
H8    H     H_    0.069841 0.313567 0.614189 0.150818
H9    H     H_    0.928089 0.498423 0.742562 0.145751
H10   H     H_    0.930804 0.686394 0.385796 0.138247
H11   H     H_    0.070874 0.499970 0.258134 0.152619
H12   H     H_    0.501986 0.108475 0.279867 0.154551
H13   H     H_    0.632133 0.212799 0.756533 0.161338
H14   H     H_    0.596255 0.112796 0.978433 0.133008
N1    N     N_R   0.501210 0.501210 0.147910 -0.211139
N2    N     N_R   0.501250 0.501290 0.852040 -0.214071
O1    O     O_R   0.499990 0.319640 0.618810 -0.563536
O2    O     O_R   0.500000 0.319660 0.381240 -0.594532
O3    O     O_R   0.316850 0.499960 0.618770 -0.535709
O4    O     O_R   0.316860 0.499980 0.381190 -0.598319
O5    O     O_R   0.500000 0.680340 0.618760 -0.609406
O6    O     O_R   0.500010 0.680360 0.381190 -0.601226
O7    O     O_R   0.683140 0.500020 0.618810 -0.609630
O8    O     O_R   0.683150 0.500040 0.381230 -0.592112
N3    N     N_3   0.329983 0.337589 0.131640 -0.630095
H15   H     H_    0.263131 0.384160 0.185909 0.249189
H16   H     H_    0.373725 0.272734 0.190974 0.250796
N4    N     N_3   0.821203 0.847291 0.150874 -0.592618
H17   H     H_    0.810201 0.838652 0.258137 0.196662
H18   H     H_    0.789607 0.933788 0.125382 0.216950
N5    N     N_3   0.336440 0.339925 0.843804 -0.513466
H19   H     H_    0.352510 0.249498 0.872511 0.219975
H20   H     H_    0.244079 0.358071 0.870023 0.208942
O9    O     O_3   0.111350 0.702192 0.630527 -0.584496
C31   C     C_3   0.023525 0.768550 0.704315 -0.342655
H21   H     H_    0.990457 0.716231 0.796786 0.172399
H22   H     H_    0.942130 0.792000 0.637452 0.143754
H23   H     H_    0.071029 0.856545 0.742137 0.198331

loop_
_geom_bond_atom_site_label_1
_geom_bond_atom_site_label_2
_ccdc_geom_bond_type
C17   C18   A    
C4    C26   S    
N5    H20   S    
C6    C7    A    
C26   C29   S    
C4    C12   S    
C29   C30   S    
C6    H14   S    
C9    C10   A    
C19   C20   A    
C1    C11   S    
C25   O8    A    
C16   H5    S    
C2    C30   S    
C31   H23   S    
Cu2   O2    S    
C15   C23   S    
C22   N3    S    
C3    C27   S    
C22   N1    A    
N3    H15   S    
C18   H6    S    
C29   H9    S    
C5    C10   A    
C30   O9    S    
C13   C14   A    
C27   H1    S    
C25   C28   S    
C11   C13   A    
C26   H8    S    
C26   C27   S    
C16   C21   A    
C19   H7    S    
Cu1   O1    S    
C3    H11   S    
Cu2   O6    S    
C28   C29   S    
C12   O4    A    
C2    H10   S    
C23   O5    A    
C24   N5    S    
C2    C3    S    
Cu1   N2    S    
C13   H12   S    
C14   H4    S    
C5    C6    A    
C7    H2    S    
C22   C24   A    
N3    H16   S    
C4    C30   S    
C16   C17   A    
C10   C11   A    
C17   N4    S    
C31   H21   S    
C24   N2    A    
C25   O7    A    
C7    C8    A    
C12   O3    A    
O9    C31   S    
C20   C21   A    
C23   O6    A    
N4    H18   S    
C18   C19   A    
C1    O2    A    
Cu1   O3    S    
C27   C28   S    
C21   N1    A    
C14   C15   A    
Cu2   O4    S    
C2    C28   S    
C20   N2    A    
Cu1   O7    S    
N5    H19   S    
C5    H13   S    
Cu2   O8    S    
N4    H17   S    
Cu1   O5    S    
C3    C4    S    
Cu1   Cu2   S    
C9    C15   A    
Cu2   N1    S    
C8    C9    A    
C31   H22   S    
C8    H3    S    
C1    O1    A    
