data_mof_unit_11574.cif
_audit_creation_date              2012-12-10T17:11:01-0500
_audit_creation_method            fapswitch 2.2
_symmetry_space_group_name_H-M    P1
_symmetry_Int_Tables_number       1
_space_group_crystal_system       triclinic
_cell_length_a                    11.750241
_cell_length_b                    12.976903
_cell_length_c                    13.33138
_cell_angle_alpha                 93.218898
_cell_angle_beta                  76.645873
_cell_angle_gamma                 99.915322
_cell_volume                      1948.00082154

loop_
_atom_site_label
_atom_site_type_symbol
_atom_type_description
_atom_site_fract_x
_atom_site_fract_y
_atom_site_fract_z
_atom_type_partial_charge
C1    C     C_R   0.525335 0.699943 0.488071 0.825355
C2    C     C_R   0.451002 0.462749 0.970155 0.060979
C3    C     C_R   0.480000 0.441518 0.863356 0.091944
C4    C     C_R   0.542903 0.482710 0.025376 0.021281
C5    C     C_R   0.659047 0.465462 0.975409 0.012064
C6    C     C_R   0.677848 0.416950 0.875700 -0.053985
C7    C     C_R   0.586133 0.401454 0.821557 -0.031769
C8    C     C_R   0.523037 0.522045 0.128083 0.000303
C9    C     C_R   0.723318 0.504774 0.136947 -0.104415
C10   C     C_R   0.395252 0.448330 0.804296 -0.124702
C11   C     C_R   0.467105 0.185510 0.500494 -0.015401
C12   C     C_R   0.435481 0.480416 0.694239 0.863165
C13   C     C_R   0.544139 0.813433 0.466696 -0.169978
C14   C     C_R   0.661943 0.986228 0.471317 -0.250819
C15   C     C_R   0.655765 0.878056 0.463583 -0.006014
C16   C     C_R   0.447343 0.860385 0.454654 -0.076616
C17   C     C_R   0.450489 0.967965 0.478050 0.137486
C18   C     C_R   0.560202 0.031044 0.481720 0.131178
C19   C     C_R   0.568320 0.139287 0.490553 -0.195221
C20   C     C_R   0.356063 0.122481 0.510437 -0.176876
C21   C     C_R   0.347608 0.014618 0.498905 -0.104335
C22   C     C_R   0.951102 0.616668 0.579968 -0.119902
C23   C     C_R   0.478643 0.299198 0.500190 0.860728
C24   C     C_R   0.828658 0.595770 0.581415 0.133307
C25   C     C_R   0.856705 0.455834 0.461259 0.054303
C26   C     C_R   0.977084 0.466296 0.466594 0.045819
C27   C     C_R   0.025697 0.545508 0.528467 -0.027952
C28   C     C_R   0.145060 0.547555 0.539182 0.119536
C29   C     C_R   0.168081 0.407546 0.416681 0.200568
C30   C     C_R   0.049017 0.398360 0.410986 -0.310869
C31   C     C_R   0.564425 0.508637 0.303184 0.808601
C32   C     C_R   0.752252 0.494468 0.028149 -0.024718
C33   C     C_R   0.604694 0.512546 0.188475 -0.213516
C34   C     C_R   0.273649 0.428643 0.854324 -0.037544
C35   C     C_R   0.242486 0.432479 0.962111 -0.130985
C36   C     C_R   0.329572 0.453443 0.019008 -0.157244
Cu1   Cu    Cu3+1 0.386470 0.492430 0.492410 1.022724
Cu2   Cu    Cu3+1 0.613530 0.507570 0.507590 0.986856
H1    H     H_    0.275765 0.156453 0.526876 0.211676
H2    H     H_    0.746842 0.035912 0.469068 0.142100
H3    H     H_    0.259944 0.968639 0.509591 0.226182
H4    H     H_    0.012553 0.337765 0.362307 0.169380
H5    H     H_    0.820339 0.396138 0.412009 0.146080
H6    H     H_    0.299670 0.451664 0.101664 0.208646
H7    H     H_    0.150387 0.416359 0.002867 0.228409
H8    H     H_    0.654162 0.187488 0.487457 0.147588
N1    N     N_R   0.215880 0.481050 0.481000 -0.247955
N2    N     N_R   0.784100 0.518950 0.519000 -0.225013
O1    O     O_R   0.419710 0.645650 0.494620 -0.569075
O2    O     O_R   0.611450 0.658430 0.507430 -0.579080
O3    O     O_R   0.357340 0.490460 0.641450 -0.587491
O4    O     O_R   0.549080 0.503250 0.654260 -0.573000
O5    O     O_R   0.388550 0.341570 0.492570 -0.578427
O6    O     O_R   0.580290 0.354350 0.505380 -0.612723
O7    O     O_R   0.450920 0.496750 0.345740 -0.522533
O8    O     O_R   0.642660 0.509540 0.358550 -0.593616
C37   C     C_2   0.818330 0.514640 0.194898 0.477922
H9    H     H_    0.836050 0.584116 0.241709 0.119775
O9    O     O_2   0.874898 0.443651 0.192861 -0.511875
C38   C     C_2   0.770209 0.838578 0.442945 0.382903
H10   H     H_    0.841270 0.878119 0.477655 0.081417
O10   O     O_2   0.789310 0.766665 0.381636 -0.534212
C39   C     C_2   0.359274 0.802538 0.397229 0.476272
H11   H     H_    0.368584 0.725453 0.365249 0.129720
O11   O     O_2   0.281115 0.842559 0.376440 -0.514270
C40   C     C_2   0.183548 0.604802 0.627661 0.464861
H12   H     H_    0.159308 0.568214 0.702173 0.059104
O12   O     O_2   0.236912 0.694356 0.619982 -0.518652
C41   C     C_2   0.234369 0.329835 0.356012 0.887952
O13   O     O_2   0.307479 0.354721 0.276474 -0.580248
O14   O     O_R   0.202048 0.224729 0.383148 -0.792725
H13   H     H_    0.249767 0.177501 0.333590 0.343273
C42   C     C_2   0.000130 0.721262 0.616891 0.808774
O15   O     O_2   0.069163 0.782061 0.555561 -0.532252
O16   O     O_R   0.964370 0.751687 0.720021 -0.720240
H14   H     H_    0.003466 0.825075 0.734908 0.351198
C43   C     C_2   0.749999 0.659295 0.650970 0.548151
H15   H     H_    0.735956 0.733047 0.625894 0.024012
O17   O     O_2   0.708710 0.633752 0.740409 -0.492848
C44   C     C_2   0.786148 0.369630 0.833349 0.853892
O18   O     O_2   0.816258 0.308975 0.885335 -0.536958
O19   O     O_R   0.853328 0.394968 0.734188 -0.765528
H16   H     H_    0.922633 0.355582 0.712365 0.339104
C45   C     C_2   0.876038 0.530467 0.968648 0.911656
O20   O     O_2   0.961717 0.516169 0.000108 -0.537589
O21   O     O_R   0.893968 0.583441 0.876424 -0.688449
H17   H     H_    0.981116 0.603395 0.842671 0.358952
C46   C     C_2   0.442920 0.601178 0.158685 0.805094
O22   O     O_2   0.354199 0.584699 0.228294 -0.577389
O23   O     O_R   0.467674 0.693691 0.103231 -0.727136
H18   H     H_    0.406992 0.741483 0.129449 0.351534
C47   C     C_2   0.179436 0.388757 0.798019 0.854711
O24   O     O_2   0.079422 0.408562 0.830289 -0.576127
O25   O     O_R   0.203074 0.323233 0.711365 -0.730273
H19   H     H_    0.131686 0.300783 0.679986 0.321585
C48   C     C_2   0.590076 0.323609 0.734562 0.385184
H20   H     H_    0.672151 0.316850 0.679476 0.111850
O26   O     O_2   0.500695 0.263358 0.725849 -0.546609

loop_
_geom_bond_atom_site_label_1
_geom_bond_atom_site_label_2
_ccdc_geom_bond_type
C40   O12   D    
C39   O11   D    
C28   N1    A    
C42   O15   D    
C14   C18   A    
C2    C4    A    
C35   C36   A    
C4    C8    A    
C25   H5    S    
O23   H18   S    
C19   H8    S    
C43   H15   S    
C7    C48   S    
C11   C19   A    
C26   C27   A    
Cu1   Cu2   S    
C29   N1    A    
C45   O21   S    
C18   C19   A    
C3    C7    A    
C5    C6    A    
Cu1   O3    S    
C37   O9    D    
Cu2   O4    S    
C38   O10   D    
C34   C35   A    
C15   C38   S    
C41   O14   S    
C9    C32   A    
C16   C17   A    
C48   O26   D    
C31   C33   S    
C16   C39   S    
C31   O8    A    
Cu1   N1    S    
C1    O2    A    
Cu2   N2    S    
C5    C32   A    
Cu1   O5    S    
C40   H12   S    
C9    C33   A    
C42   O16   S    
C41   O13   D    
C12   O4    A    
C23   O5    A    
C29   C41   S    
C43   O17   D    
C32   C45   S    
C11   C20   A    
C24   N2    A    
C45   O20   D    
C44   O19   S    
C20   H1    S    
O21   H17   S    
C4    C5    A    
C25   C26   A    
C17   C21   A    
C38   H10   S    
C8    C46   S    
C28   C40   S    
O16   H14   S    
C29   C30   A    
Cu1   O1    S    
C6    C44   S    
Cu2   O6    S    
C48   H20   S    
C47   O25   S    
C17   C18   A    
C10   C34   A    
C20   C21   A    
C25   N2    A    
C10   C12   S    
C21   H3    S    
C46   O23   S    
C26   C30   A    
C22   C27   A    
C13   C15   A    
C22   C24   A    
C36   H6    S    
C1    C13   S    
C35   H7    S    
C12   O3    A    
C23   O6    A    
C2    C36   A    
C44   O18   D    
C6    C7    A    
Cu2   O2    S    
C2    C3    A    
O14   H13   S    
C3    C10   A    
C37   H9    S    
C11   C23   S    
C47   O24   D    
C9    C37   S    
C8    C33   A    
O25   H19   S    
C34   C47   S    
C14   H2    S    
C39   H11   S    
Cu1   O7    S    
C24   C43   S    
Cu2   O8    S    
C46   O22   D    
O19   H16   S    
C13   C16   A    
C27   C28   A    
C14   C15   A    
C30   H4    S    
C22   C42   S    
C31   O7    A    
C1    O1    A    
