data_mof_unit_64775.cif
_audit_creation_date              2012-10-26T20:13:03-0400
_audit_creation_method            fapswitch 2.2
_symmetry_space_group_name_H-M    P1
_symmetry_Int_Tables_number       1
_space_group_crystal_system       triclinic
_cell_length_a                    21.466622
_cell_length_b                    21.403286
_cell_length_c                    13.849177
_cell_angle_alpha                 89.99993
_cell_angle_beta                  90.000011
_cell_angle_gamma                 89.989436
_cell_volume                      6363.09082351

loop_
_atom_site_label
_atom_site_type_symbol
_atom_type_description
_atom_site_fract_x
_atom_site_fract_y
_atom_site_fract_z
_atom_type_partial_charge
C1    C     C_R   0.085087 0.414856 0.499993 0.590527
C2    C     C_R   0.217744 0.687451 0.418698 -0.084119
C3    C     C_R   0.187535 0.718012 0.580576 -0.080189
C4    C     C_R   0.782264 0.312540 0.418690 -0.084117
C5    C     C_R   0.217688 0.312448 0.418922 -0.083851
C6    C     C_R   0.812432 0.717882 0.580959 -0.081401
C7    C     C_R   0.782308 0.687548 0.418926 -0.083853
C8    C     C_R   0.187573 0.282122 0.580963 -0.081401
C9    C     C_R   0.312445 0.782005 0.580593 -0.080187
C10   C     C_R   0.717736 0.187460 0.418689 -0.084117
C11   C     C_R   0.687545 0.218004 0.580584 -0.080187
C12   C     C_R   0.914913 0.585144 0.499993 0.590534
C13   C     C_R   0.282273 0.812530 0.418681 -0.084115
C14   C     C_R   0.717683 0.812442 0.418918 -0.083850
C15   C     C_R   0.312427 0.217877 0.580963 -0.081400
C16   C     C_R   0.282313 0.187553 0.418922 -0.083851
C17   C     C_R   0.687579 0.782128 0.580968 -0.081400
C18   C     C_R   0.858330 0.327800 0.581032 0.334305
C19   C     C_R   0.171939 0.641553 0.418523 0.337360
C20   C     C_R   0.141660 0.672208 0.581024 0.334303
C21   C     C_R   0.828069 0.358438 0.418515 0.337364
C22   C     C_R   0.171843 0.358305 0.418597 0.332680
C23   C     C_R   0.914896 0.414864 0.499985 0.590814
C24   C     C_R   0.858339 0.672080 0.581283 0.336593
C25   C     C_R   0.828153 0.641691 0.418601 0.332674
C26   C     C_R   0.141666 0.327925 0.581287 0.336590
C27   C     C_R   0.358320 0.827809 0.581040 0.334307
C28   C     C_R   0.671931 0.141563 0.418515 0.337361
C29   C     C_R   0.641670 0.172200 0.581032 0.334306
C30   C     C_R   0.328078 0.858427 0.418507 0.337365
C31   C     C_R   0.671838 0.858299 0.418592 0.332679
C32   C     C_R   0.358333 0.172075 0.581287 0.336592
C33   C     C_R   0.328158 0.141696 0.418596 0.332673
C34   C     C_R   0.085104 0.585136 0.499984 0.590825
C35   C     C_R   0.641672 0.827930 0.581292 0.336589
C36   C     C_R   0.866560 0.366516 0.499871 0.027448
C37   C     C_R   0.133440 0.633484 0.499871 0.027450
C38   C     C_R   0.133394 0.366495 0.499960 0.026821
C39   C     C_R   0.866606 0.633505 0.499960 0.026823
C40   C     C_R   0.366559 0.866516 0.499871 0.027449
C41   C     C_R   0.633440 0.133484 0.499871 0.027448
C42   C     C_R   0.633394 0.866494 0.499960 0.026822
C43   C     C_R   0.366606 0.133506 0.499960 0.026822
C44   C     C_R   0.983441 0.553689 0.107866 -0.105146
C45   C     C_R   0.585087 0.914856 0.499993 0.590515
C46   C     C_R   0.990503 0.444598 0.892008 -0.110439
C47   C     C_R   0.016559 0.446311 0.107866 -0.105142
C48   C     C_R   0.009496 0.555402 0.892007 -0.110445
C49   C     C_R   0.483441 0.053689 0.107866 -0.105142
C50   C     C_R   0.490505 0.944597 0.892008 -0.110434
C51   C     C_R   0.516559 0.946311 0.107866 -0.105138
C52   C     C_R   0.509495 0.055402 0.892007 -0.110439
C53   C     C_R   0.774200 0.274138 0.499593 -0.083168
C54   C     C_R   0.225799 0.725861 0.499593 -0.083167
C55   C     C_R   0.225805 0.274156 0.499951 -0.082689
C56   C     C_R   0.414913 0.085144 0.499993 0.590521
C57   C     C_R   0.774196 0.725844 0.499951 -0.082689
C58   C     C_R   0.274200 0.774137 0.499593 -0.083168
C59   C     C_R   0.725799 0.225862 0.499593 -0.083168
C60   C     C_R   0.725805 0.774156 0.499951 -0.082688
C61   C     C_R   0.274196 0.225844 0.499951 -0.082689
C62   C     C_R   0.984303 0.552852 0.209362 0.113642
C63   C     C_R   0.991241 0.445558 0.790515 0.103151
C64   C     C_R   0.015697 0.447148 0.209362 0.113654
C65   C     C_R   0.008759 0.554442 0.790515 0.103139
C66   C     C_R   0.484302 0.052852 0.209362 0.113650
C67   C     C_R   0.414896 0.914864 0.499985 0.590801
C68   C     C_R   0.491243 0.945558 0.790515 0.103167
C69   C     C_R   0.515698 0.947148 0.209362 0.113663
C70   C     C_R   0.508757 0.054442 0.790515 0.103154
C71   C     C_R   1.000000 0.500000 0.054626 0.025604
C72   C     C_R   1.000000 0.500000 0.945248 0.018529
C73   C     C_R   0.500000 1.000000 0.054626 0.025603
C74   C     C_R   0.500000 1.000000 0.945248 0.018528
C75   C     C_R   0.585104 0.085136 0.499984 0.590811
C76   C     C_R   0.812455 0.281996 0.580584 -0.080188
Cu1   Cu    Cu3+1 1.000000 0.500000 0.596430 1.097371
Cu2   Cu    Cu3+1 1.000000 0.500000 0.403570 1.116011
Cu3   Cu    Cu3+1 0.500000 0.000000 0.596430 1.097374
Cu4   Cu    Cu3+1 0.500000 0.000000 0.403570 1.116010
F1    F     F_    0.895368 0.333081 0.660052 -0.614388
F2    F     F_    0.666390 0.104348 0.339570 -0.580656
F3    F     F_    0.604632 0.166918 0.660052 -0.614387
F4    F     F_    0.333628 0.895633 0.339554 -0.580660
F5    F     F_    0.666218 0.895365 0.339489 -0.591348
F6    F     F_    0.395355 0.166610 0.660348 -0.601175
F7    F     F_    0.333773 0.104625 0.339498 -0.591347
F8    F     F_    0.604655 0.833399 0.660357 -0.601184
F9    F     F_    0.166407 0.604329 0.339588 -0.580646
F10   F     F_    0.104613 0.666935 0.660035 -0.614381
F11   F     F_    0.833609 0.395653 0.339571 -0.580649
F12   F     F_    0.166228 0.395377 0.339499 -0.591333
F13   F     F_    0.895365 0.666620 0.660338 -0.601167
F14   F     F_    0.833764 0.604615 0.339508 -0.591333
F15   F     F_    0.104644 0.333388 0.660348 -0.601174
F16   F     F_    0.395348 0.833100 0.660069 -0.614396
H1    H     H_    0.969026 0.596154 0.071955 0.116409
H2    H     H_    0.247587 0.692390 0.356084 0.166374
H3    H     H_    0.192602 0.748003 0.643096 0.166323
H4    H     H_    0.752427 0.307594 0.356070 0.166374
H5    H     H_    0.247505 0.307437 0.356290 0.165577
H6    H     H_    0.807326 0.747780 0.643577 0.166232
H7    H     H_    0.752488 0.692555 0.356298 0.165576
H8    H     H_    0.192683 0.252228 0.643585 0.166231
H9    H     H_    0.307364 0.752028 0.643126 0.166322
H10   H     H_    0.747572 0.192407 0.356069 0.166374
H11   H     H_    0.692619 0.247988 0.643111 0.166322
H12   H     H_    0.981693 0.400618 0.927907 0.125828
H13   H     H_    0.252445 0.807576 0.356054 0.166374
H14   H     H_    0.747495 0.807427 0.356281 0.165576
H15   H     H_    0.307317 0.247771 0.643586 0.166231
H16   H     H_    0.252497 0.192565 0.356289 0.165576
H17   H     H_    0.692693 0.752237 0.643594 0.166231
H18   H     H_    0.972059 0.594780 0.248538 0.156172
H19   H     H_    0.984530 0.402494 0.751083 0.217025
H20   H     H_    0.027941 0.405220 0.248538 0.156181
H21   H     H_    0.015470 0.597506 0.751083 0.217029
H22   H     H_    0.472058 0.094779 0.248538 0.156185
H23   H     H_    0.030974 0.403846 0.071955 0.116410
H24   H     H_    0.484533 0.902494 0.751083 0.217019
H25   H     H_    0.527942 0.905221 0.248538 0.156194
H26   H     H_    0.515467 0.097506 0.751083 0.217024
H27   H     H_    0.018307 0.599382 0.927907 0.125827
H28   H     H_    0.469025 0.096154 0.071955 0.116411
H29   H     H_    0.481695 0.900618 0.927907 0.125829
H30   H     H_    0.530975 0.903846 0.071955 0.116412
H31   H     H_    0.518305 0.099382 0.927906 0.125829
H32   H     H_    0.807382 0.252011 0.643110 0.166323
N1    N     N_R   0.000000 0.500000 0.258690 -0.220372
N2    N     N_R   0.000000 0.500000 0.741310 -0.248848
N3    N     N_R   0.500000 0.000000 0.258690 -0.220373
N4    N     N_R   0.500000 0.000000 0.741310 -0.248844
O1    O     O_R   0.064280 0.435730 0.581430 -0.461287
O2    O     O_R   0.435720 0.064270 0.418570 -0.475101
O3    O     O_R   0.435720 0.064270 0.581430 -0.461284
O4    O     O_R   0.564280 0.935730 0.418570 -0.475094
O5    O     O_R   0.435720 0.935730 0.418570 -0.457911
O6    O     O_R   0.564280 0.064270 0.581430 -0.474591
O7    O     O_R   0.564280 0.064270 0.418570 -0.457921
O8    O     O_R   0.435720 0.935730 0.581430 -0.474585
O9    O     O_R   0.935720 0.564270 0.418570 -0.475101
O10   O     O_R   0.935720 0.564270 0.581430 -0.461285
O11   O     O_R   0.064280 0.435730 0.418570 -0.475095
O12   O     O_R   0.935720 0.435730 0.418570 -0.457918
O13   O     O_R   0.064280 0.564270 0.581430 -0.474598
O14   O     O_R   0.064280 0.564270 0.418570 -0.457927
O15   O     O_R   0.935720 0.435730 0.581430 -0.474593
O16   O     O_R   0.564280 0.935730 0.581430 -0.461286

loop_
_geom_bond_atom_site_label_1
_geom_bond_atom_site_label_2
_ccdc_geom_bond_type
C64   H20   S    
C31   C42   A    
C4    C53   A    
C34   C37   S    
C8    C26   A    
C73   C74   S    
C62   N1    A    
C14   C31   A    
C18   F1    S    
C48   H27   S    
C65   N2    A    
C53   C59   S    
C17   H17   S    
C15   C32   A    
C21   C36   A    
Cu1   Cu2   S    
C16   H16   S    
C1    O11   A    
C17   C35   A    
Cu2   N1    S    
C62   H18   S    
C52   C74   A    
C50   C74   A    
C21   F11   S    
C3    C54   A    
C1    O1    A    
C9    H9    S    
Cu4   O5    S    
C45   O16   A    
C28   C41   A    
C24   C39   A    
Cu4   O2    S    
C12   O9    A    
C44   C71   A    
C9    C58   A    
C35   F8    S    
C63   N2    A    
C31   F5    S    
C68   N4    A    
C35   C42   A    
Cu1   O10   S    
C13   H13   S    
C19   C37   A    
C5    C22   A    
C40   C67   S    
C46   H12   S    
C20   C37   A    
C48   C65   A    
Cu1   O15   S    
C46   C72   A    
C63   H19   S    
C47   H23   S    
Cu3   O8    S    
C32   F6    S    
C25   F14   S    
Cu4   N3    S    
C7    H7    S    
C6    C57   A    
C27   F16   S    
Cu1   O1    S    
C48   C72   A    
C11   C59   A    
C8    C55   A    
C52   H31   S    
C5    H5    S    
C49   C66   A    
C28   F2    S    
C33   C43   A    
C15   H15   S    
C13   C30   A    
C65   H21   S    
C2    C54   A    
Cu2   O9    S    
C47   C64   A    
C26   C38   A    
C57   C60   S    
C13   C58   A    
C44   C62   A    
C49   H28   S    
C23   O15   A    
C42   C45   S    
C19   F9    S    
Cu2   O12   S    
C16   C33   A    
C41   C75   S    
C44   H1    S    
C70   H26   S    
C69   H25   S    
C27   C40   A    
C69   N3    A    
C6    C24   A    
C70   N4    A    
C15   C61   A    
C30   C40   A    
C3    C20   A    
C50   H29   S    
C67   O8    A    
C8    H8    S    
C47   C71   A    
C1    C38   S    
C4    H4    S    
C11   H11   S    
C76   H32   S    
C49   C73   A    
C23   O12   A    
C10   H10   S    
C53   C76   A    
C16   C61   A    
Cu1   O13   S    
C56   O3    A    
Cu3   O3    S    
C9    C27   A    
C66   N3    A    
C54   C58   S    
C10   C28   A    
C26   F15   S    
C14   H14   S    
C45   O4    A    
C18   C76   A    
C29   C41   A    
C2    C19   A    
C51   H30   S    
C5    C55   A    
C51   C73   A    
C75   O6    A    
C7    C25   A    
C56   O2    A    
C29   F3    S    
Cu3   O16   S    
Cu4   O7    S    
C14   C60   A    
Cu4   O4    S    
C46   C63   A    
C12   C39   S    
C10   C59   A    
C33   F7    S    
C71   C72   S    
C75   O7    A    
C24   F13   S    
C68   H24   S    
C11   C29   A    
C4    C21   A    
C34   O14   A    
C18   C36   A    
C20   F10   S    
Cu3   N4    S    
C55   C61   S    
C34   O13   A    
C32   C43   A    
C12   O10   A    
Cu1   N2    S    
C6    H6    S    
C30   F4    S    
C67   O5    A    
C52   C70   A    
Cu2   O14   S    
C17   C60   A    
Cu3   Cu4   S    
C3    H3    S    
C43   C56   S    
Cu3   O6    S    
C64   N1    A    
C2    H2    S    
C23   C36   S    
C66   H22   S    
C22   F12   S    
C51   C69   A    
Cu2   O11   S    
C50   C68   A    
C7    C57   A    
C25   C39   A    
C22   C38   A    
