data_mof_unit_32358.cif
_audit_creation_date              2013-03-05T16:01:05-0500
_audit_creation_method            fapswitch 2.2
_symmetry_space_group_name_H-M    P1
_symmetry_Int_Tables_number       1
_space_group_crystal_system       triclinic
_cell_length_a                    8.238589
_cell_length_b                    12.928378
_cell_length_c                    18.627322
_cell_angle_alpha                 99.46756
_cell_angle_beta                  91.303876
_cell_angle_gamma                 98.489583
_cell_volume                      1933.30648195

loop_
_atom_site_label
_atom_site_type_symbol
_atom_site_description
_atom_site_fract_x
_atom_site_fract_y
_atom_site_fract_z
_atom_type_partial_charge
P1    P     P_3+3 0.041040 0.394770 0.336330 0.462207
O1    O     O_2   0.873090 0.425890 0.325140 -0.374929
O2    O     O_3   0.122420 0.434370 0.414380 -0.405953
O3    O     O_3   0.659500 0.627100 0.368810 -0.391913
O4    O     O_2   0.787466 0.547015 0.244413 -0.435693
O5    O     O_3   0.002057 0.257340 0.319131 -0.580166
O6    O     O_3   0.668217 0.721218 0.242315 -0.526682
H1    H     H_    0.788326 0.824132 0.330698 0.113314
C1    C     C_3   0.627175 0.901246 0.272525 -0.879800
H2    H     H_    0.601276 0.958560 0.319744 0.234085
H3    H     H_    0.730727 0.937121 0.243390 0.234581
P2    P     P_3+3 0.672880 0.754030 0.556100 0.469335
P3    P     P_3+3 0.124825 0.820965 0.404272 0.537777
O7    O     O_2   0.848200 0.768190 0.534530 -0.411121
O8    O     O_3   0.081160 0.685950 0.404810 -0.373598
O9    O     O_2   0.000819 0.875065 0.452412 -0.377335
O10   O     O_3   0.690235 0.792940 0.650989 -0.632497
O11   O     O_3   0.087653 0.853721 0.317490 -0.544429
C2    C     C_3   0.081360 0.766447 0.260624 0.815661
H4    H     H_    0.995672 0.698510 0.273054 0.078063
C3    C     C_3   0.018018 0.797399 0.190205 -0.910697
H5    H     H_    0.997883 0.727069 0.145980 0.232657
H6    H     H_    0.901554 0.828685 0.197611 0.251044
C4    C     C_3   0.231219 0.784731 0.619641 0.354083
H7    H     H_    0.356529 0.769138 0.607394 0.108894
H8    H     H_    0.144966 0.750260 0.572237 0.133435
C5    C     C_3   0.230327 0.903742 0.634369 -0.864964
H9    H     H_    0.314633 0.940490 0.681695 0.265725
H10   H     H_    0.271058 0.939388 0.586443 0.217893
H11   H     H_    0.104557 0.920415 0.646647 0.267341
Ba1   Ba    Ba6+2 0.852780 0.548340 0.465070 1.592387
C6    C     C_3   0.946689 0.219056 0.380986 0.449199
H12   H     H_    0.851815 0.263294 0.406438 0.079716
H13   H     H_    0.049897 0.224525 0.421133 0.153068
C7    C     C_3   0.872259 0.104860 0.355270 -0.899931
H14   H     H_    0.761097 0.105903 0.321392 0.261632
H15   H     H_    0.842828 0.062388 0.401318 0.237064
H16   H     H_    0.957194 0.062473 0.320177 0.308833
C8    C     C_3   0.753824 0.716858 0.683927 1.221138
H17   H     H_    0.859096 0.689714 0.654717 -0.027286
C9    C     C_3   0.811523 0.766490 0.761873 -0.971654
H18   H     H_    0.915604 0.831687 0.761699 0.269675
H19   H     H_    0.852508 0.706321 0.791287 0.208800
H20   H     H_    0.709432 0.798994 0.791311 0.263024
P4    P     P_3+3 0.148670 0.605320 0.663680 0.485291
O12   O     O_2   0.316610 0.574140 0.674900 -0.279731
O13   O     O_3   0.067290 0.565720 0.585630 -0.419021
O14   O     O_3   0.530210 0.372990 0.631200 -0.342657
O15   O     O_3   0.185672 0.744123 0.682502 -0.564025
P5    P     P_3+3 0.063459 0.177638 0.599044 0.469443
O16   O     O_3   0.611340 0.366290 0.463630 -0.406700
O17   O     O_3   0.108550 0.314140 0.595200 -0.383151
O18   O     O_2   0.195684 0.125454 0.555325 -0.351671
O19   O     O_3   0.111330 0.160104 0.687921 -0.496659
Ba2   Ba    Ba6+2 0.337060 0.451750 0.534940 1.603378
P6    P     P_3+3 0.640346 0.599686 0.273547 0.467388
C10   C     C_3   0.667201 0.804599 0.301086 0.453404
H21   H     H_    0.574943 0.786526 0.341056 0.133842
H22   H     H_    0.517177 0.881965 0.235055 0.325657
O20   O     O_3   0.578370 0.633800 0.536380 -0.348392
C11   C     C_3   0.458930 0.273758 0.313975 0.476392
H23   H     H_    0.337504 0.288697 0.334196 0.095411
H24   H     H_    0.549156 0.348046 0.324291 0.083410
C12   C     C_3   0.439837 0.234073 0.232198 -0.972895
H25   H     H_    0.347347 0.160971 0.220456 0.298504
H26   H     H_    0.398719 0.294820 0.203467 0.191601
H27   H     H_    0.559333 0.215874 0.211174 0.253010
P7    P     P_3+3 0.523552 0.232075 0.441634 0.464184
O21   O     O_2   0.341510 0.231850 0.465510 -0.337651
O22   O     O_3   0.515938 0.195559 0.346918 -0.540205
H28   H     H_    0.107783 0.860692 0.173147 0.272883
C13   C     C_3   0.039556 0.232379 0.737306 0.277695
H29   H     H_    0.080408 0.315444 0.729394 0.077605
H30   H     H_    0.904325 0.214189 0.730350 0.014546
C14   C     C_3   0.090263 0.224608 0.815552 -0.052266
H31   H     H_    0.219326 0.264124 0.828121 0.146388
H32   H     H_    0.011458 0.267220 0.853913 0.051547
P8    P     P_3+3 0.549308 0.387292 0.725276 0.500509
C15   C     C_3   0.545283 0.184000 0.700936 0.417015
H33   H     H_    0.659652 0.213799 0.675519 0.014910
O23   O     O_2   0.419478 0.454861 0.755970 -0.367086
O24   O     O_3   0.482847 0.262958 0.748802 -0.530062
H34   H     H_    0.451240 0.148138 0.656737 0.148121
H35   H     H_    0.674600 0.134481 0.788390 0.279525
C16   C     C_3   0.582877 0.098813 0.743319 -0.908108
H36   H     H_    0.631890 0.034973 0.706755 0.234951
H37   H     H_    0.470173 0.064552 0.767644 0.294827
C17   C     C_R   0.997923 0.437772 0.046260 0.006784
C18   C     C_R   0.894493 0.389069 0.094351 0.118271
C19   C     C_R   0.730703 0.347755 0.071900 -0.190115
C20   C     C_R   0.669908 0.354596 0.002488 -0.177150
C21   C     C_R   0.771905 0.402570 0.954054 0.124687
C22   C     C_R   0.936325 0.444821 0.975879 0.014054
C23   C     C_R   0.711874 0.407482 0.883986 -0.227306
C24   C     C_R   0.814411 0.452009 0.833706 -0.063952
C25   C     C_R   0.978141 0.498857 0.856305 -0.008814
C26   C     C_R   0.038560 0.494376 0.927605 -0.018054
C27   C     C_R   0.759340 0.448595 0.760933 0.220812
C28   C     C_R   0.867191 0.489645 0.711784 -0.449945
C29   C     C_R   0.025067 0.543598 0.733914 0.195562
C30   C     C_R   0.081765 0.549432 0.807841 -0.058533
C31   C     C_R   0.162718 0.478632 0.068294 -0.003139
C32   C     C_R   0.222847 0.474629 0.139687 0.008338
C33   C     C_R   0.114814 0.432834 0.190050 -0.057699
C34   C     C_R   0.954473 0.384337 0.164672 -0.133593
H38   H     H_    0.648866 0.311031 0.108302 0.133078
H39   H     H_    0.542753 0.322315 0.986686 0.145504
H40   H     H_    0.824798 0.483219 0.655600 0.193399
H41   H     H_    0.584785 0.375077 0.869311 0.181892
H42   H     H_    0.872911 0.344317 0.199406 0.166233
C35   C     C_R   0.239700 0.601262 0.834728 -0.102876
C36   C     C_R   0.303341 0.590188 0.903322 0.105431
C37   C     C_R   0.202491 0.536873 0.950099 0.001329
C38   C     C_R   0.265557 0.527006 0.019735 0.025298
C39   C     C_R   0.468104 0.629784 0.925315 -0.151679
C40   C     C_R   0.532017 0.616689 0.992953 -0.175942
C41   C     C_R   0.431277 0.566493 0.040896 0.126663
C42   C     C_R   0.389245 0.515992 0.161263 0.005054
C43   C     C_R   0.493123 0.557551 0.110105 -0.131174
C44   C     C_R   0.443282 0.521292 0.234766 0.290209
C45   C     C_R   0.333333 0.485674 0.284635 -0.451913
C46   C     C_R   0.170180 0.443105 0.264247 0.268757
H43   H     H_    0.317938 0.646996 0.801832 0.181051
H44   H     H_    0.548448 0.669526 0.889676 0.146060
H45   H     H_    0.659979 0.647226 0.008204 0.142128
H46   H     H_    0.621743 0.586376 0.124143 0.167642
H47   H     H_    0.374721 0.494616 0.341209 0.166976
C47   C     C_R   0.759625 0.179402 0.529812 -0.513640
C48   C     C_R   0.426367 0.808903 0.472982 -0.557125
C49   C     C_R   0.401380 0.978590 0.439761 0.237442
C50   C     C_R   0.335556 0.873805 0.441973 0.200185
C51   C     C_R   0.577568 0.849179 0.509828 0.250891
C52   C     C_R   0.641070 0.960206 0.516047 -0.067906
C53   C     C_R   0.551418 0.026461 0.480283 -0.240858
C54   C     C_R   0.614377 0.137385 0.488402 0.279643
C55   C     C_R   0.853920 0.115240 0.559793 0.212011
C56   C     C_R   0.792466 0.006600 0.555141 -0.146606
H48   H     H_    0.865016 0.959458 0.581442 0.169089
H49   H     H_    0.805733 0.263288 0.535009 0.157970
H50   H     H_    0.374992 0.726395 0.470921 0.195720
F1    F     F_    0.632819 0.631492 0.685387 -0.681003
N1    N     N_R   0.074781 0.114250 0.826215 0.290362
O25   O     O_R   0.202783 0.076540 0.846767 -0.371510
O26   O     O_R   0.931844 0.054549 0.818992 -0.396618
N2    N     N_R   0.243458 0.735528 0.250248 0.204477
O27   O     O_R   0.310828 0.731648 0.187504 -0.434805
O28   O     O_R   0.312545 0.699065 0.301810 -0.488401
N3    N     N_R   0.313650 0.031171 0.393337 0.272580
O29   O     O_R   0.172957 0.056013 0.413703 -0.362988
O30   O     O_R   0.335608 0.013593 0.323749 -0.385381

loop_
_geom_bond_atom_site_label_1
_geom_bond_atom_site_label_2
_geom_bond_distance
_ccdc_geom_bond_type
C11   O22   1.396563 S    
O14   Ba2   2.780878 S    
O5    C6    1.387601 S    
C34   H42   1.079409 S    
C52   C56   1.428242 A    
C5    H10   1.106920 S    
P6    C44   1.845214 S    
C9    H18   1.110574 S    
O4    P6    1.542509 D    
C24   C25   1.418670 A    
C4    C5    1.518964 S    
O7    Ba1   2.928862 S    
N2    O27   1.301941 A    
C19   C20   1.397019 A    
C24   C27   1.411296 A    
C8    C9    1.522439 S    
P4    O12   1.516485 D    
C48   C50   1.386553 A    
C28   H40   1.081844 S    
P5    O19   1.751538 S    
P3    O11   1.768384 S    
C3    H28   1.111317 S    
C21   C22   1.407823 A    
C2    C3    1.535002 S    
C47   H49   1.082576 S    
C4    H8    1.109852 S    
C45   H47   1.082645 S    
C47   C55   1.387951 A    
C33   C46   1.424415 A    
C39   C40   1.399870 A    
P1    Ba1   3.407402 S    
C40   C41   1.404574 A    
P1    O1    1.516145 D    
O10   C8    1.398021 S    
O14   P8    1.732642 S    
C11   H24   1.110800 S    
C42   C43   1.413856 A    
C36   C37   1.409292 A    
C3    H5    1.111623 S    
P1    C46   1.862806 S    
O2    Ba2   2.785077 S    
C2    H4    1.102123 S    
C51   C52   1.438159 A    
O12   Ba2   2.840868 S    
P8    C27   1.852856 S    
P5    O17   1.762578 S    
C4    H7    1.102504 S    
C1    H2    1.099557 S    
O16   Ba2   2.912427 S    
C11   H23   1.109135 S    
O17   Ba2   2.780914 S    
C48   C51   1.394966 A    
P4    O13   1.560370 S    
Ba1   O13   2.784429 S    
Ba2   O20   2.843908 S    
O3    P6    1.750206 S    
C5    H11   1.110360 S    
C9    H19   1.108447 S    
C49   C53   1.434820 A    
O6    P6    1.749323 S    
C13   C14   1.530302 S    
C33   C34   1.411067 A    
N2    O28   1.293041 A    
C16   H37   1.107877 S    
P5    O18   1.543266 D    
C49   N3    1.429090 S    
P1    O5    1.732682 S    
O3    Ba1   2.781531 S    
C6    C7    1.507255 S    
C20   H39   1.083838 S    
C7    H16   1.110606 S    
H35   C16   1.108783 S    
C19   H38   1.082580 S    
C13   H30   1.104252 S    
C47   C54   1.396506 A    
Ba1   O16   2.844528 S    
C20   C21   1.403373 A    
O11   C2    1.408850 S    
C16   H36   1.110920 S    
C35   H43   1.079438 S    
O1    Ba1   2.840540 S    
P1    O2    1.560370 S    
C7    H14   1.103304 S    
C6    H13   1.105964 S    
Ba1   O20   2.913329 S    
P2    O10   1.752833 S    
C11   C12   1.522027 S    
C14   H31   1.111456 S    
C12   H27   1.110655 S    
C31   C38   1.411245 A    
C14   N1    1.460127 S    
H1    C10   1.103869 S    
C1    H3    1.106568 S    
P8    O24   1.748856 S    
C28   C29   1.400491 A    
P3    O8    1.731149 S    
P4    O15   1.750059 S    
C25   C26   1.420858 A    
C21   C23   1.399744 A    
P3    C50   1.846759 S    
C23   C24   1.411388 A    
C2    N2    1.457578 S    
N3    O29   1.296323 A    
O2    Ba1   2.932859 S    
C14   H32   1.110317 S    
C45   C46   1.394077 A    
Ba2   O21   2.929109 S    
C8    F1    1.377991 S    
P2    O20   1.612170 S    
P2    O7    1.501247 D    
C40   H45   1.083763 S    
C3    H6    1.097963 S    
P2    Ba1   3.455159 S    
C52   C53   1.440560 A    
C9    H20   1.110960 S    
N1    O26   1.300321 A    
C32   C42   1.419361 A    
C26   C37   1.407431 A    
C22   C26   1.411774 A    
C15   C16   1.519144 S    
C44   C45   1.396886 A    
O13   Ba2   2.933757 S    
C37   C38   1.418489 A    
C4    O15   1.396980 S    
C17   C22   1.416779 A    
C39   H44   1.083797 S    
P2    C51   1.864376 S    
C35   C36   1.407055 A    
C7    H15   1.105051 S    
P7    O21   1.573723 D    
P7    C54   1.846375 S    
N3    O30   1.300203 A    
C13   H29   1.111692 S    
P4    C29   1.883998 S    
C15   O24   1.406449 S    
C17   C31   1.407960 A    
O8    Ba1   2.780279 S    
C53   C54   1.433156 A    
C30   C35   1.412577 A    
C56   H48   1.077584 S    
C23   H41   1.079955 S    
C12   H25   1.110597 S    
C41   C43   1.404106 A    
C49   C50   1.390494 A    
P5    C55   1.871589 S    
C6    H12   1.105654 S    
C15   H34   1.110145 S    
P8    O23   1.540617 D    
C10   H21   1.103264 S    
C48   H50   1.082105 S    
C29   C30   1.430500 A    
C1    C10   1.511743 S    
O16   P7    1.756110 S    
C31   C32   1.420168 A    
C42   C44   1.417702 A    
C38   C41   1.408379 A    
C15   H33   1.110640 S    
C8    H17   1.104499 S    
C43   H46   1.081133 S    
O19   C13   1.405028 S    
C17   C18   1.409593 A    
P4    Ba2   3.407999 S    
P7    O22   1.746934 S    
C27   C28   1.402474 A    
P3    O9    1.543822 D    
C18   C34   1.403403 A    
C32   C33   1.423710 A    
N1    O25   1.300440 A    
C55   C56   1.408741 A    
Ba1   Ba2   4.576139 S    
C18   C19   1.403242 A    
C25   C30   1.426791 A    
C1    H22   1.103557 S    
O6    C10   1.405507 S    
C36   C39   1.404627 A    
C12   H26   1.107491 S    
C5    H9    1.105527 S    
