data_mof_unit_42187.cif
_audit_creation_date              2012-12-10T19:04:15-0500
_audit_creation_method            fapswitch 2.2
_symmetry_space_group_name_H-M    P1
_symmetry_Int_Tables_number       1
_space_group_crystal_system       triclinic
_cell_length_a                    10.626373
_cell_length_b                    10.864809
_cell_length_c                    9.549377
_cell_angle_alpha                 89.170843
_cell_angle_beta                  89.387151
_cell_angle_gamma                 90.251942
_cell_volume                      1102.31919156

loop_
_atom_site_label
_atom_site_type_symbol
_atom_type_description
_atom_site_fract_x
_atom_site_fract_y
_atom_site_fract_z
_atom_type_partial_charge
C1    C     C_R   0.499275 0.262590 0.500776 0.812001
C2    C     C_R   0.510032 0.933680 0.619102 -0.092310
C3    C     C_3   0.443109 0.930365 0.758948 0.364155
C4    C     C_R   0.259348 0.500099 0.500813 0.812659
C5    C     C_3   0.457135 0.069645 0.761150 -0.446652
C6    C     C_R   0.581396 0.573644 0.071278 0.423126
C7    C     C_R   0.413215 0.434401 0.076512 -0.055598
C8    C     C_R   0.413327 0.434232 0.927655 -0.048571
C9    C     C_R   0.580816 0.574628 0.923993 0.307101
C10   C     C_3   0.721103 0.571663 0.916440 -0.541161
C11   C     C_3   0.721294 0.569296 0.075005 -0.543887
C12   C     C_3   0.962096 0.505629 0.367186 -0.149733
C13   C     C_R   0.491530 0.737418 0.498594 0.855688
C14   C     C_R   0.740789 0.500664 0.499370 0.776133
C15   C     C_3   0.038681 0.496049 0.634382 -0.147924
C16   C     C_3   0.956497 0.397611 0.563558 -0.156194
C17   C     C_3   0.877842 0.501121 0.498547 0.009875
C18   C     C_3   0.957721 0.599617 0.569457 -0.171491
C19   C     C_3   0.044080 0.604089 0.438054 -0.115791
C20   C     C_3   0.042779 0.402048 0.432145 -0.166178
C21   C     C_3   0.122581 0.500506 0.502673 0.009921
C22   C     C_R   0.519606 0.060363 0.621103 0.011545
C23   C     C_R   0.499115 0.129600 0.499915 -0.097765
C24   C     C_R   0.475914 0.069171 0.374314 -0.278680
C25   C     C_R   0.462905 0.941575 0.370593 0.380445
C26   C     C_R   0.484030 0.871237 0.495300 -0.141543
Cu1   Cu    Cu3+1 0.499990 0.499980 0.640670 0.979844
Cu2   Cu    Cu3+1 0.500010 0.500020 0.359330 1.002896
H1    H     H_    0.917565 0.313116 0.614791 0.142399
H2    H     H_    0.762673 0.653543 0.120922 0.220006
H3    H     H_    0.072607 0.491856 0.743898 0.146740
H4    H     H_    0.919950 0.680502 0.625570 0.145491
H5    H     H_    0.083035 0.688671 0.387032 0.187549
H6    H     H_    0.931238 0.509873 0.256934 0.145343
H7    H     H_    0.080671 0.321158 0.376135 0.148467
H8    H     H_    0.460926 0.122357 0.279247 0.195353
H9    H     H_    0.589252 0.902140 0.103291 0.321693
H10   H     H_    0.182059 0.708289 0.773188 0.357924
H11   H     H_    0.498235 0.882444 0.841325 0.123203
H12   H     H_    0.367318 0.121720 0.756789 0.228252
H13   H     H_    0.523508 0.101536 0.842319 0.164621
H14   H     H_    0.344792 0.379014 0.133976 0.147465
H15   H     H_    0.345063 0.378710 0.873557 0.140389
H16   H     H_    0.758408 0.485319 0.871103 0.224413
H17   H     H_    0.761257 0.657925 0.870207 0.207152
H18   H     H_    0.756048 0.480580 0.118649 0.205422
N1    N     N_R   0.500800 0.500930 0.147930 -0.197590
N2    N     N_R   0.500800 0.500890 0.852020 -0.190640
O1    O     O_R   0.500000 0.319640 0.618810 -0.587153
O2    O     O_2   0.347656 0.979142 0.123542 -0.276584
O3    O     O_3   0.535360 0.828696 0.120220 -0.564104
O4    O     O_2   0.208394 0.941590 0.869110 -0.232537
O5    O     O_2   0.223983 0.917288 0.614975 -0.312244
O6    O     O_3   0.273065 0.728114 0.775235 -0.502375
O7    O     O_R   0.500010 0.319680 0.381230 -0.600751
O8    O     O_R   0.316850 0.499950 0.618770 -0.569806
O9    O     O_R   0.316860 0.499990 0.381190 -0.571151
O10   O     O_R   0.499990 0.680320 0.618770 -0.556531
O11   O     O_R   0.500000 0.680360 0.381190 -0.516363
O12   O     O_R   0.683140 0.500010 0.618810 -0.595546
O13   O     O_R   0.683150 0.500050 0.381230 -0.596201
O14   O     O_2   0.317271 0.777662 0.234620 -0.233434
S1    S     S_3+6 0.410212 0.880586 0.209820 0.027056
S2    S     S_3+6 0.281115 0.881610 0.753030 0.032163

loop_
_geom_bond_atom_site_label_1
_geom_bond_atom_site_label_2
_ccdc_geom_bond_type
C4    O9    A    
Cu1   N2    S    
C15   C18   S    
C23   C24   A    
C8    N2    A    
Cu2   N1    S    
C2    C22   A    
O14   S1    D    
C13   O11   A    
C14   O12   A    
C9    C10   S    
Cu1   O8    S    
H10   O6    S    
C8    H15   S    
C16   C20   S    
C25   C26   A    
C10   C11   S    
Cu2   O13   S    
C12   C20   S    
C10   H17   S    
C2    C3    S    
C1    O7    A    
C3    H11   S    
C7    C8    A    
C2    C26   A    
C7    H14   S    
Cu2   O9    S    
C4    O8    A    
C12   C17   S    
C15   H3    S    
C4    C21   S    
C14   O13   A    
C14   C17   S    
C24   H8    S    
O6    S2    S    
C6    C9    A    
C12   C19   S    
C19   C21   S    
Cu2   O7    S    
C17   C18   S    
C1    C23   S    
O2    S1    D    
Cu1   O12   S    
C25   S1    S    
H9    O3    S    
O5    S2    D    
C13   C26   S    
C5    H12   S    
C18   H4    S    
C6    N1    A    
C10   H16   S    
C15   C16   S    
C15   C21   S    
O3    S1    S    
C24   C25   A    
C16   H1    S    
C9    N2    A    
C18   C19   S    
O4    S2    D    
Cu2   O11   S    
C6    C11   S    
C5    H13   S    
C22   C23   A    
C11   H18   S    
C13   O10   A    
C12   H6    S    
C3    C5    S    
C20   C21   S    
C3    S2    S    
C20   H7    S    
C1    O1    A    
C5    C22   S    
Cu1   O1    S    
C11   H2    S    
C19   H5    S    
C16   C17   S    
Cu1   Cu2   S    
Cu1   O10   S    
C7    N1    A    
