data_mof_unit_51887.cif
_audit_creation_date              2012-10-26T19:19:33-0400
_audit_creation_method            fapswitch 2.2
_symmetry_space_group_name_H-M    P1
_symmetry_Int_Tables_number       1
_space_group_crystal_system       triclinic
_cell_length_a                    15.885471
_cell_length_b                    10.930219
_cell_length_c                    9.753647
_cell_angle_alpha                 91.699024
_cell_angle_beta                  90.775787
_cell_angle_gamma                 90.839038
_cell_volume                      1692.45059669

loop_
_atom_site_label
_atom_site_type_symbol
_atom_type_description
_atom_site_fract_x
_atom_site_fract_y
_atom_site_fract_z
_atom_type_partial_charge
C1    C     C_R   0.498844 0.265710 0.497684 0.599375
C2    C     C_2   0.517881 0.865115 0.510566 -0.062861
C3    C     C_2   0.537967 0.063200 0.413296 0.196156
C4    C     C_R   0.340398 0.499749 0.499257 0.559427
C5    C     C_2   0.485792 0.134625 0.489481 0.189962
C6    C     C_2   0.433927 0.479774 0.923257 0.051852
C7    C     C_2   0.432289 0.504545 0.076251 0.036739
C8    C     C_R   0.504234 0.734195 0.502265 0.561456
C9    C     C_R   0.659571 0.500246 0.500734 0.583939
C10   C     C_3   0.051392 0.446223 0.634401 -0.244472
C11   C     C_3   0.046344 0.408216 0.378199 -0.053881
C12   C     C_3   0.953416 0.445666 0.638399 -0.077204
C13   C     C_3   0.947596 0.412038 0.377331 -0.076587
C14   C     C_1   0.749096 0.498894 0.502227 0.067248
C15   C     C_3   0.082921 0.494675 0.495862 0.017804
C16   C     C_2   0.923403 0.517839 0.762755 0.239661
C17   C     C_2   0.081992 0.435199 0.238732 0.208074
C18   C     C_2   0.907681 0.284990 0.371954 0.217757
C19   C     C_3   0.916880 0.494241 0.500641 -0.000131
C20   C     C_3   0.952084 0.625606 0.478786 -0.241361
C21   C     C_3   0.049481 0.626449 0.481643 -0.204895
C22   C     C_1   0.824533 0.497045 0.502143 -0.023941
C23   C     C_1   0.175250 0.496481 0.496557 -0.045417
C24   C     C_1   0.250773 0.498127 0.497499 0.023151
C25   C     C_2   0.523827 0.931411 0.398750 -0.062200
Cu1   Cu    Cu3+1 0.500020 0.500020 0.638630 1.146484
Cu2   Cu    Cu3+1 0.499980 0.499980 0.361370 1.096984
H1    H     H_    0.931270 0.349545 0.649581 0.215648
H2    H     H_    0.067309 0.314057 0.400781 0.149360
H3    H     H_    0.925243 0.455506 0.281833 0.156380
H4    H     H_    0.072602 0.685272 0.569814 0.135611
H5    H     H_    0.073817 0.668574 0.387483 0.196888
H6    H     H_    0.928645 0.690979 0.558470 0.131195
H7    H     H_    0.942621 0.612811 0.779593 0.126410
H8    H     H_    0.741888 0.042565 0.246201 0.378735
H9    H     H_    0.334158 0.239936 0.661835 0.351246
H10   H     H_    0.670556 0.727891 0.830736 0.361428
H11   H     H_    0.127378 0.373425 0.193215 0.127559
H12   H     H_    0.079299 0.503260 0.720566 0.135597
H13   H     H_    0.854463 0.265947 0.303245 0.162670
H14   H     H_    0.929482 0.659315 0.378380 0.168413
H15   H     H_    0.523225 0.888856 0.296647 0.199917
H16   H     H_    0.525753 0.908311 0.611757 0.171836
H17   H     H_    0.375976 0.446356 0.874540 0.091885
H18   H     H_    0.372621 0.526946 0.122536 0.136970
H19   H     H_    0.074158 0.351491 0.648508 0.155155
H20   H     H_    0.546517 0.446932 0.112340 0.286252
N1    N     N_2   0.499090 0.498660 0.846910 -0.067664
N2    N     N_2   0.499070 0.498630 0.153040 -0.287180
O1    O     O_R   0.500010 0.321960 0.617040 -0.505471
O2    O     O_2   0.604534 0.187076 0.206532 -0.250877
O3    O     O_2   0.676994 0.206878 0.430131 -0.302040
O4    O     O_3   0.692165 0.003660 0.288197 -0.495885
O5    O     O_2   0.349413 0.982652 0.469226 -0.249378
O6    O     O_2   0.404605 0.033528 0.699869 -0.281815
O7    O     O_3   0.321314 0.198808 0.571961 -0.512213
O8    O     O_2   0.547354 0.690342 0.013481 -0.262504
O9    O     O_2   0.649487 0.526555 0.971440 -0.259175
O10   O     O_3   0.623249 0.681831 0.785280 -0.469819
O11   O     O_2   0.062021 0.526391 0.177416 -0.498138
O12   O     O_R   0.499990 0.321920 0.382900 -0.469621
O13   O     O_2   0.932374 0.204413 0.446003 -0.488241
O14   O     O_R   0.379450 0.500030 0.617120 -0.534169
O15   O     O_R   0.379420 0.499980 0.382980 -0.514681
O16   O     O_R   0.500010 0.678080 0.617100 -0.438093
O17   O     O_R   0.499990 0.678040 0.382960 -0.488112
O18   O     O_R   0.620580 0.500020 0.617020 -0.429026
O19   O     O_R   0.620550 0.499970 0.382880 -0.476220
O20   O     O_2   0.877959 0.469604 0.846135 -0.437700
S1    S     S_3+6 0.629580 0.120586 0.333109 0.024993
S2    S     S_3+6 0.389055 0.082131 0.559327 0.009021
S3    S     S_3+6 0.579795 0.599168 0.909078 0.141734

loop_
_geom_bond_atom_site_label_1
_geom_bond_atom_site_label_2
_ccdc_geom_bond_type
C25   H15   S    
C10   H19   S    
C9    C14   S    
C9    O18   A    
C8    O17   A    
C6    C7    S    
H9    O7    S    
O2    S1    D    
H8    O4    S    
C11   C13   S    
C1    O1    A    
C4    O15   A    
C19   C20   S    
Cu1   N1    S    
C2    H16   S    
Cu1   O14   S    
O7    S2    S    
C14   C22   T    
C11   C15   S    
C15   C23   S    
C20   H14   S    
C9    O19   A    
C8    O16   A    
C5    S2    S    
Cu2   O17   S    
C6    H17   S    
C11   H2    S    
C21   H4    S    
C4    O14   A    
O9    S3    D    
Cu1   Cu2   S    
H10   O10   S    
C6    N1    D    
C13   C18   S    
N1    S3    S    
C3    C25   S    
C1    C5    S    
C20   H6    S    
C7    H18   S    
C12   C19   S    
O5    S2    D    
C12   H1    S    
C2    C25   D    
C10   C12   S    
C10   C15   S    
Cu1   O1    S    
O8    S3    D    
C4    C24   S    
C21   H5    S    
C2    C8    S    
O3    S1    D    
Cu2   O15   S    
Cu1   O18   S    
C17   O11   D    
C1    O12   A    
Cu2   N2    S    
C13   H3    S    
C15   C21   S    
C3    S1    S    
C20   C21   S    
C7    N2    D    
H20   N2    S    
C19   C22   S    
C17   H11   S    
C18   H13   S    
C18   O13   D    
C13   C19   S    
Cu2   O19   S    
C23   C24   T    
C16   H7    S    
Cu1   O16   S    
O10   S3    S    
C11   C17   S    
O6    S2    D    
C16   O20   D    
C12   C16   S    
O4    S1    S    
C10   H12   S    
C3    C5    D    
Cu2   O12   S    
