data_mof_unit_25777.cif
_audit_creation_date              2012-12-11T15:49:04-0500
_audit_creation_method            fapswitch 2.2
_symmetry_space_group_name_H-M    P1
_symmetry_Int_Tables_number       1
_space_group_crystal_system       triclinic
_cell_length_a                    21.660052
_cell_length_b                    7.173387
_cell_length_c                    14.935534
_cell_angle_alpha                 89.999903
_cell_angle_beta                  106.686167
_cell_angle_gamma                 89.999221
_cell_volume                      2222.90543101

loop_
_atom_site_label
_atom_site_type_symbol
_atom_type_description
_atom_site_fract_x
_atom_site_fract_y
_atom_site_fract_z
_atom_type_partial_charge
O1    O     O_R   0.335860 0.638190 0.002110 -0.534458
O2    O     O_R   0.664140 0.361810 0.997890 -0.545548
O3    O     O_R   0.164140 0.138190 0.997890 -0.534454
O4    O     O_R   0.835860 0.861810 0.002110 -0.545540
O5    O     O_R   0.217530 0.305920 0.861960 -0.539454
O6    O     O_R   0.782470 0.694080 0.138040 -0.535848
O7    O     O_R   0.282470 0.805920 0.138040 -0.539453
O8    O     O_R   0.717530 0.194080 0.861960 -0.535841
C1    C     C_R   0.205746 0.477310 0.825802 0.675658
C2    C     C_R   0.794319 0.522686 0.174178 0.682641
C3    C     C_R   0.294254 0.977308 0.174198 0.675673
C4    C     C_R   0.705681 0.022687 0.825822 0.682675
O9    O     O_R   0.338690 0.308320 0.993240 -0.522530
O10   O     O_R   0.661310 0.691680 0.006760 -0.521059
O11   O     O_R   0.161310 0.808320 0.006760 -0.522538
O12   O     O_R   0.838690 0.191680 0.993240 -0.521087
O13   O     O_R   0.286170 0.140430 0.130100 -0.537883
O14   O     O_R   0.713830 0.859570 0.869900 -0.537400
O15   O     O_R   0.213830 0.640430 0.869900 -0.537884
O16   O     O_R   0.786170 0.359570 0.130100 -0.537402
C5    C     C_R   0.364846 0.475911 0.997098 0.676701
C6    C     C_R   0.635210 0.523909 0.002972 0.680390
C7    C     C_R   0.135154 0.975913 0.002903 0.676698
C8    C     C_R   0.864790 0.023905 0.997029 0.680392
O17   O     O_3   0.232630 0.472410 0.044750 -0.363101
O18   O     O_3   0.767370 0.527590 0.955250 -0.370528
O19   O     O_3   0.267370 0.972410 0.955250 -0.363100
O20   O     O_3   0.732630 0.027590 0.044750 -0.370523
V1    V     V_3+5 0.253220 0.196620 0.991700 1.526670
V2    V     V_3+5 0.746780 0.803380 0.008300 1.494330
V3    V     V_3+5 0.246780 0.696620 0.008300 1.526661
V4    V     V_3+5 0.753220 0.303380 0.991700 1.494331
C9    C     C_R   0.035466 0.841414 0.041235 0.006604
C10   C     C_R   0.963955 0.155813 0.957191 0.002027
C11   C     C_R   0.464539 0.341406 0.958775 0.006615
C12   C     C_R   0.536039 0.655830 0.042804 0.002001
C13   C     C_R   0.971110 0.863600 0.041087 -0.175319
C14   C     C_R   0.028831 0.136370 0.959412 -0.143984
C15   C     C_R   0.528893 0.363601 0.958920 -0.175354
C16   C     C_R   0.471166 0.636371 0.040586 -0.143962
H1    H     H_    0.949433 0.757606 0.074169 0.163165
H2    H     H_    0.050469 0.242974 0.926630 0.160747
H3    H     H_    0.550572 0.257603 0.925844 0.163169
H4    H     H_    0.449523 0.742975 0.073364 0.160799
C17   C     C_R   0.933994 0.016880 0.998297 -0.141716
C18   C     C_R   0.065873 0.982306 0.001595 -0.136391
C19   C     C_R   0.566005 0.516892 0.001703 -0.141707
C20   C     C_R   0.434127 0.482300 0.998409 -0.136400
C21   C     C_R   0.678706 0.007567 0.724409 -0.032699
C22   C     C_R   0.321018 0.992082 0.275675 -0.032300
C23   C     C_R   0.821294 0.507555 0.275591 -0.032693
C24   C     C_R   0.178983 0.492092 0.724324 -0.032295
C25   C     C_R   0.684943 0.867456 0.580781 -0.115267
C26   C     C_R   0.314237 0.128837 0.419797 -0.113477
C27   C     C_R   0.815068 0.367352 0.419204 -0.115272
C28   C     C_R   0.185754 0.628924 0.580213 -0.113483
C29   C     C_R   0.714046 0.917181 0.673033 -0.127291
C30   C     C_R   0.285472 0.081404 0.327102 -0.132256
C31   C     C_R   0.785961 0.417112 0.326959 -0.127367
C32   C     C_R   0.214523 0.581468 0.672905 -0.132309
C33   C     C_R   0.613994 0.051530 0.682720 -0.186978
C34   C     C_R   0.385610 0.947307 0.317665 -0.185773
C35   C     C_R   0.886003 0.551544 0.317284 -0.186962
C36   C     C_R   0.114395 0.447284 0.682328 -0.185763
C37   C     C_R   0.582221 0.999992 0.588850 0.091362
C38   C     C_R   0.416949 0.995828 0.412091 0.089511
C39   C     C_R   0.917780 0.499971 0.411148 0.091365
C40   C     C_R   0.083053 0.495828 0.587906 0.089514
C41   C     C_R   0.619063 0.905164 0.537529 0.046256
C42   C     C_R   0.379944 0.089531 0.463502 0.049258
C43   C     C_R   0.880946 0.405083 0.462460 0.046261
C44   C     C_R   0.120051 0.589588 0.536503 0.049255
C45   C     C_R   0.514665 0.031635 0.546489 0.044559
C46   C     C_R   0.484332 0.962659 0.454854 0.044179
C47   C     C_R   0.985334 0.531637 0.453511 0.044564
C48   C     C_R   0.015672 0.462630 0.545139 0.044197
C49   C     C_R   0.522302 0.863569 0.408235 -0.197587
C50   C     C_R   0.476430 0.128335 0.593592 -0.207004
C51   C     C_R   0.977710 0.363480 0.591748 -0.197607
C52   C     C_R   0.023563 0.628387 0.406417 -0.207000
C53   C     C_R   0.588548 0.839564 0.446500 -0.042381
C54   C     C_R   0.410162 0.152255 0.555185 -0.038695
C55   C     C_R   0.911466 0.339447 0.553481 -0.042400
C56   C     C_R   0.089829 0.652336 0.444826 -0.038705
H5    H     H_    0.410680 0.886777 0.272130 0.104442
H6    H     H_    0.589296 0.114336 0.728127 0.105294
H7    H     H_    0.089329 0.386716 0.727858 0.104423
H8    H     H_    0.910695 0.614395 0.271883 0.105287
H9    H     H_    0.235887 0.121461 0.294160 0.110443
H10   H     H_    0.763736 0.877877 0.705769 0.113054
H11   H     H_    0.264104 0.621552 0.705852 0.110466
H12   H     H_    0.736274 0.377785 0.294219 0.113067
C57   C     C_2   0.067541 0.667532 0.083552 0.769489
O21   O     O_2   0.085265 0.553296 0.035459 -0.552344
O22   O     O_R   0.072015 0.626680 0.176609 -0.662881
H13   H     H_    0.092860 0.501192 0.197032 0.303554
C58   C     C_2   0.929750 0.321761 0.908940 0.774004
O23   O     O_2   0.921029 0.339715 0.824887 -0.557126
O24   O     O_R   0.911327 0.463222 0.960133 -0.650401
H14   H     H_    0.889534 0.570813 0.919110 0.297434
C59   C     C_2   0.432470 0.167509 0.916469 0.769460
O25   O     O_2   0.414739 0.053298 0.964566 -0.552351
O26   O     O_R   0.428013 0.126613 0.823423 -0.662884
H15   H     H_    0.407172 0.001118 0.803007 0.303557
C60   C     C_2   0.570232 0.821811 0.091040 0.773988
O27   O     O_2   0.578885 0.839899 0.175071 -0.557139
O28   O     O_R   0.588704 0.963179 0.039845 -0.650378
H16   H     H_    0.610479 0.070805 0.080856 0.297440
C61   C     C_2   0.623612 0.740105 0.388663 0.816256
O29   O     O_2   0.673339 0.805035 0.378356 -0.551388
O30   O     O_R   0.597887 0.575683 0.342524 -0.651028
H17   H     H_    0.625349 0.522011 0.304073 0.300307
C62   C     C_2   0.374748 0.248136 0.613699 0.788511
O31   O     O_2   0.324583 0.182551 0.622100 -0.563811
O32   O     O_R   0.400679 0.409464 0.662807 -0.649751
H18   H     H_    0.373092 0.460165 0.701787 0.296289
C63   C     C_2   0.876411 0.239921 0.611307 0.816268
O33   O     O_2   0.826675 0.304791 0.621614 -0.551356
O34   O     O_R   0.902154 0.075507 0.657439 -0.651044
H19   H     H_    0.874696 0.021786 0.695883 0.300329
C64   C     C_2   0.125236 0.748272 0.386319 0.788519
O35   O     O_2   0.175409 0.682742 0.377922 -0.563805
O36   O     O_R   0.099288 0.909589 0.337214 -0.649759
H20   H     H_    0.126871 0.960331 0.298239 0.296290
H21   H     H_    0.714184 0.790430 0.545965 0.161180
H22   H     H_    0.284907 0.205319 0.454677 0.162637
H23   H     H_    0.785833 0.290279 0.454011 0.161210
H24   H     H_    0.215079 0.705450 0.545342 0.162662
H25   H     H_    0.501801 0.802214 0.340489 0.157022
H26   H     H_    0.496607 0.186825 0.662047 0.161688
H27   H     H_    0.998217 0.302099 0.659486 0.156994
H28   H     H_    0.003382 0.686896 0.337967 0.161682

loop_
_geom_bond_atom_site_label_1
_geom_bond_atom_site_label_2
_ccdc_geom_bond_type
O17   V3    S    
O1    C5    A    
C57   O21   D    
C52   H28   S    
C27   C31   A    
C35   H8    S    
O19   V1    S    
O13   V1    S    
C45   C46   A    
O3    C7    A    
O30   H17   S    
C48   C51   A    
C52   C56   A    
O15   V3    S    
C58   O23   D    
C21   C29   A    
O36   H20   S    
O7    C3    A    
C60   O28   S    
C59   O25   D    
C8    C17   S    
C36   C40   A    
O9    V1    S    
C14   H2    S    
C61   O30   S    
O16   V4    S    
O4    C8    A    
C2    C23   S    
O32   H18   S    
C38   C46   A    
O1    V3    S    
C10   C58   S    
C37   C45   A    
C12   C19   A    
O2    V4    S    
O3    V1    S    
O12   V4    S    
C24   C32   A    
C1    O15   A    
O22   H13   S    
C2    O16   A    
C28   C44   A    
C46   C49   A    
O2    C6    A    
O28   H16   S    
O14   V2    S    
C47   C52   A    
C36   H7    S    
O5    V1    S    
C40   C44   A    
C5    C20   S    
O11   C7    A    
C6    C19   S    
C25   C41   A    
O12   C8    A    
C7    C18   S    
C9    C18   A    
C1    C24   S    
O10   V2    S    
C11   C20   A    
C58   O24   S    
C4    C21   S    
C43   C55   A    
C34   H5    S    
C35   C39   A    
C21   C33   A    
C29   H10   S    
C34   C38   A    
O9    C5    A    
C22   C30   A    
C12   C16   A    
O7    V3    S    
C24   C36   A    
C25   C29   A    
O18   V4    S    
C15   H3    S    
C56   C64   S    
C45   C50   A    
C9    C13   A    
C28   C32   A    
O8    V4    S    
C11   C15   A    
C47   C48   A    
O5    C1    A    
C26   H22   S    
C50   C54   A    
O24   H14   S    
C26   C42   A    
C49   C53   A    
O8    C4    A    
C51   H27   S    
C23   C35   A    
C10   C17   A    
C49   H25   S    
C64   O35   D    
C44   C56   A    
C25   H21   S    
O6    V2    S    
C53   C61   S    
C22   C34   A    
C23   C31   A    
C13   C17   A    
C15   C19   A    
C62   O31   D    
C26   C30   A    
C32   H11   S    
C16   C20   A    
C3    O13   A    
C12   C60   S    
C10   C14   A    
C54   C62   S    
C27   H23   S    
C11   C59   S    
C9    C57   S    
O6    C2    A    
O34   H19   S    
O11   V3    S    
C40   C48   A    
C60   O27   D    
C59   O26   S    
C55   C63   S    
C63   O34   S    
C50   H26   S    
C3    C22   S    
C61   O29   D    
C14   C18   A    
C51   C55   A    
O10   C6    A    
C38   C42   A    
C37   C41   A    
O20   V2    S    
C39   C43   A    
C31   H12   S    
C28   H24   S    
C13   H1    S    
C42   C54   A    
C30   H9    S    
O4    V2    S    
C64   O36   S    
C41   C53   A    
C33   H6    S    
C33   C37   A    
C16   H4    S    
C39   C47   A    
C57   O22   S    
C4    O14   A    
O26   H15   S    
C63   O33   D    
C27   C43   A    
C62   O32   S    
