data_mof_unit_5044.cif
_audit_creation_date              2012-12-11T17:07:33-0500
_audit_creation_method            fapswitch 2.2
_symmetry_space_group_name_H-M    P1
_symmetry_Int_Tables_number       1
_space_group_crystal_system       triclinic
_cell_length_a                    6.964326
_cell_length_b                    14.482706
_cell_length_c                    16.100403
_cell_angle_alpha                 89.993256
_cell_angle_beta                  89.988277
_cell_angle_gamma                 90.001858
_cell_volume                      1623.92340514

loop_
_atom_site_label
_atom_site_type_symbol
_atom_type_description
_atom_site_fract_x
_atom_site_fract_y
_atom_site_fract_z
_atom_type_partial_charge
O1    O     O_R   0.505720 0.583900 0.413310 -0.539737
O2    O     O_R   0.175940 0.594920 0.586080 -0.525663
O3    O     O_R   0.005640 0.416100 0.586690 -0.539498
C1    C     C_R   0.344693 0.617038 0.614747 0.712837
O4    O     O_R   0.176000 0.594930 0.413930 -0.546614
O5    O     O_R   0.005700 0.416110 0.413310 -0.518798
C2    C     C_R   0.344774 0.616899 0.385169 0.700894
O6    O     O_R   0.505660 0.583890 0.586690 -0.541443
O7    O     O_3   0.339200 0.441330 0.500000 -0.356330
V1    V     V_3+5 0.064350 0.510880 0.500000 1.519527
O8    O     O_R   0.675980 0.405080 0.413920 -0.541575
C3    C     C_R   0.845109 0.382447 0.385695 0.754139
O9    O     O_R   0.675920 0.405070 0.586070 -0.542248
C4    C     C_R   0.844710 0.382873 0.614304 0.672542
V2    V     V_3+5 0.564340 0.489120 0.500000 1.496677
O10   O     O_3   0.839360 0.558670 0.500000 -0.360334
C5    C     C_R   0.726397 0.431617 0.780107 -0.162343
C6    C     C_R   0.672409 0.459081 0.859455 -0.225669
C7    C     C_R   0.688387 0.398101 0.925513 -0.121609
C8    C     C_R   0.757343 0.308798 0.913016 0.629193
C9    C     C_R   0.810511 0.277817 0.832283 -0.067758
C10   C     C_R   0.796119 0.341398 0.764731 0.012106
C11   C     C_R   0.880065 0.186675 0.817633 -0.150960
C12   C     C_R   0.937188 0.160444 0.736278 0.060341
C13   C     C_R   0.924998 0.224699 0.669511 -0.019852
C14   C     C_R   0.854357 0.315075 0.683687 -0.103389
C15   C     C_R   0.004309 0.069967 0.719518 -0.269388
C16   C     C_R   0.059119 0.043944 0.639665 -0.188968
C17   C     C_R   0.047562 0.106771 0.574601 0.711135
C18   C     C_R   0.980835 0.196080 0.588971 -0.218375
H1    H     H_    0.713466 0.482272 0.731135 0.117367
H2    H     H_    0.619510 0.528440 0.869837 0.180967
H3    H     H_    0.014464 0.018042 0.767617 0.126805
H4    H     H_    0.972074 0.242065 0.536150 0.161676
C19   C     C_R   0.737020 0.253109 0.185757 0.162421
C20   C     C_R   0.882845 0.186624 0.182028 -0.236820
C21   C     C_R   0.027309 0.190690 0.243248 -0.223140
C22   C     C_R   0.014410 0.253476 0.310050 0.623856
C23   C     C_R   0.858392 0.315479 0.316274 -0.205526
C24   C     C_R   0.725724 0.316223 0.250882 -0.113120
C25   C     C_3   0.512053 0.311012 0.253356 -0.438404
C26   C     C_3   0.524365 0.242130 0.182303 0.553858
C27   C     C_R   0.510155 0.747371 0.689616 0.018032
C28   C     C_R   0.352906 0.687706 0.681247 -0.138487
C29   C     C_R   0.201263 0.697692 0.738396 -0.084909
C30   C     C_R   0.213307 0.761506 0.804245 -0.179042
H5    H     H_    0.099420 0.764230 0.849570 0.197954
C31   C     C_R   0.377444 0.816675 0.815361 -0.057303
C32   C     C_R   0.522789 0.809719 0.755672 -0.061206
C33   C     C_3   0.730157 0.789256 0.768490 0.369922
C34   C     C_3   0.717593 0.723532 0.695386 0.418281
C35   C     C_R   0.506596 0.682135 0.258362 0.102375
C36   C     C_R   0.352702 0.682301 0.314459 -0.110652
C37   C     C_R   0.201402 0.744460 0.298877 -0.152908
C38   C     C_R   0.212711 0.808710 0.233354 -0.160779
C39   C     C_R   0.375938 0.812921 0.181632 -0.105817
C40   C     C_R   0.518209 0.745950 0.193747 0.120818
C41   C     C_3   0.729093 0.757716 0.205107 -0.407442
C42   C     C_3   0.716555 0.687750 0.275224 -0.399707
H6    H     H_    0.766374 0.828369 0.226655 0.169324
H7    H     H_    0.791604 0.621812 0.261226 0.169833
O11   O     O_R   0.229140 0.916090 0.913340 -0.557192
O12   O     O_R   0.558860 0.905090 0.086080 -0.546435
O13   O     O_R   0.729100 0.083920 0.086690 -0.529724
C43   C     C_R   0.389836 0.883171 0.114936 0.677393
O14   O     O_R   0.558860 0.905090 0.913930 -0.521046
O15   O     O_R   0.729100 0.083920 0.913310 -0.522637
C44   C     C_R   0.389900 0.882880 0.885360 0.710276
O16   O     O_R   0.229140 0.916080 0.086720 -0.552001
O17   O     O_3   0.395570 0.058660 0.000020 -0.346200
V3    V     V_3+5 0.670450 0.989140 0.000000 1.528425
O18   O     O_R   0.058810 0.094980 0.913910 -0.539051
C45   C     C_R   0.889918 0.117644 0.886008 0.811501
O19   O     O_R   0.058810 0.094980 0.086060 -0.531324
C46   C     C_R   0.890204 0.116598 0.115077 0.825150
V4    V     V_3+5 0.170450 0.010950 0.999970 1.508412
O20   O     O_3   0.895460 0.941370 0.999990 -0.381716
F1    F     F_    0.099981 0.080866 0.496898 -0.644213
F2    F     F_    0.145863 0.248333 0.372022 -0.676226
H8    H     H_    0.443433 0.377569 0.235958 0.199565
H9    H     H_    0.460382 0.279956 0.312196 0.213952
F3    F     F_    0.449400 0.276869 0.109084 -0.634229
H10   H     H_    0.474396 0.171370 0.197969 0.020404
H11   H     H_    0.078445 0.652301 0.735068 0.143457
F4    F     F_    0.759178 0.742894 0.842694 -0.721239
H12   H     H_    0.825030 0.850040 0.758816 0.081990
H13   H     H_    0.744278 0.649851 0.710649 0.056364
F5    F     F_    0.818154 0.755214 0.626915 -0.684097
H14   H     H_    0.079095 0.746895 0.340107 0.147456
H15   H     H_    0.098184 0.858445 0.225934 0.128976
H16   H     H_    0.812199 0.732411 0.150735 0.186158
H17   H     H_    0.747383 0.717576 0.337417 0.188121
H18   H     H_    0.648334 0.420441 0.987319 0.177221
F6    F     F_    0.774783 0.254849 0.981308 -0.684140
H19   H     H_    0.110029 0.974439 0.628268 0.170866
H20   H     H_    0.144271 0.141484 0.242259 0.148715

loop_
_geom_bond_atom_site_label_1
_geom_bond_atom_site_label_2
_ccdc_geom_bond_type
O14   C44   A    
C38   C39   A    
O12   C43   A    
C25   C26   S    
C19   C20   A    
C26   F3    S    
C12   C15   A    
C1    O6    A    
C25   H8    S    
C36   C37   A    
C15   H3    S    
C21   C22   A    
O19   V4    S    
C16   H19   S    
C16   C17   A    
C20   C46   S    
C38   H15   S    
O5    C3    A    
C22   C23   A    
C22   F2    S    
C41   H6    S    
C39   C43   S    
C39   C40   A    
O16   V4    S    
C6    C7    A    
O13   V3    S    
C19   C26   S    
C33   F4    S    
C37   C38   A    
O8    V2    S    
C17   F1    S    
C7    C8    A    
C11   C12   A    
O17   V3    S    
O15   C45   A    
O7    V1    S    
C7    H18   S    
O18   V4    S    
O9    C4    A    
O11   V4    S    
C11   C45   S    
C5    C6    A    
V4    O20   S    
C30   C31   A    
C42   H7    S    
O19   C46   A    
C18   H4    S    
C12   C13   A    
C37   H14   S    
C34   H13   S    
C23   C24   A    
O4    C2    A    
C27   C32   A    
C1    C28   S    
C41   C42   S    
C29   C30   A    
C31   C44   S    
C21   H20   S    
O2    C1    A    
C27   C28   A    
C17   C18   A    
C35   C42   S    
O14   V3    S    
C25   H9    S    
C33   C34   S    
C35   C36   A    
C4    C14   S    
O3    C4    A    
O1    V2    S    
C31   C32   A    
O12   V3    S    
O6    V2    S    
O9    V2    S    
O17   V4    S    
C5    H1    S    
C29   H11   S    
C6    H2    S    
C2    C36   S    
O2    V1    S    
V3    O20   S    
C28   C29   A    
C41   H16   S    
C13   C18   A    
C8    F6    S    
C30   H5    S    
C24   C25   S    
O1    C2    A    
C26   H10   S    
O18   C45   A    
C34   F5    S    
O5    V1    S    
O8    C3    A    
C5    C10   A    
O11   C44   A    
C3    C23   S    
C9    C11   A    
C19   C24   A    
C13   C14   A    
O4    V1    S    
O3    V1    S    
V1    O10   S    
C27   C34   S    
C40   C41   S    
C43   O16   A    
O13   C46   A    
O15   V3    S    
C42   H17   S    
O7    V2    S    
C35   C40   A    
C33   H12   S    
C8    C9    A    
C20   C21   A    
C32   C33   S    
C10   C14   A    
C15   C16   A    
C9    C10   A    
V2    O10   S    
