data_mof_unit_5897.cif
_audit_creation_date              2012-12-11T15:45:44-0500
_audit_creation_method            fapswitch 2.2
_symmetry_space_group_name_H-M    P1
_symmetry_Int_Tables_number       1
_space_group_crystal_system       triclinic
_cell_length_a                    8.296054
_cell_length_b                    19.041697
_cell_length_c                    22.881297
_cell_angle_alpha                 95.477203
_cell_angle_beta                  89.27864
_cell_angle_gamma                 94.736206
_cell_volume                      3585.7505438

loop_
_atom_site_label
_atom_site_type_symbol
_atom_type_description
_atom_site_fract_x
_atom_site_fract_y
_atom_site_fract_z
_atom_type_partial_charge
Ba1   Ba    Ba6+2 0.850680 0.532880 0.472010 1.634471
Ba2   Ba    Ba6+2 0.339140 0.467180 0.527990 1.653423
C1    C     C_3   0.636338 0.790659 0.317075 -0.364364
C2    C     C_R   0.090975 0.557057 0.938563 -0.027504
C3    C     C_R   0.045281 0.552313 0.878506 0.592008
C4    C     C_3   0.096454 0.682054 0.311611 0.314109
C5    C     C_R   0.990507 0.426532 0.877840 0.586607
C6    C     C_R   0.030898 0.429867 0.938083 -0.020846
C7    C     C_R   0.081833 0.495476 0.968557 -0.052143
C8    C     C_R   0.144842 0.622075 0.969563 -0.073954
C9    C     C_R   0.188874 0.625781 0.028793 -0.074660
C10   C     C_R   0.179115 0.564718 0.059416 -0.019785
C11   C     C_R   0.124505 0.499400 0.029195 -0.051171
C12   C     C_3   0.621235 0.717429 0.338788 0.347647
C13   C     C_R   0.021989 0.368728 0.968544 -0.075110
C14   C     C_R   0.061893 0.372704 0.028081 -0.074984
C15   C     C_R   0.113605 0.437866 0.059236 -0.027430
C16   C     C_3   0.070885 0.701456 0.249710 -0.309544
C17   C     C_R   0.155634 0.442623 0.119525 0.591019
C18   C     C_R   0.222997 0.567634 0.119431 0.576472
C19   C     C_2   0.804696 0.446309 0.768431 -0.091667
C20   C     C_3   0.772802 0.426677 0.703521 -0.104484
C21   C     C_1   0.006758 0.509588 0.684460 0.043452
C22   C     C_2   0.052860 0.514572 0.740569 -0.086029
C23   C     C_3   0.500861 0.362594 0.351189 0.292833
C24   C     C_2   0.945584 0.482797 0.786585 0.214619
C25   C     C_R   0.406156 0.541812 0.231005 -0.098346
C26   C     C_R   0.450216 0.544045 0.290310 -0.015350
C27   C     C_R   0.191194 0.485092 0.313741 0.033373
C28   C     C_3   0.194424 0.686471 0.601212 0.302226
C29   C     C_R   0.145055 0.482552 0.254166 -0.100403
C30   C     C_R   0.252410 0.511066 0.211774 0.205875
C31   C     C_2   0.876670 0.470549 0.664064 -0.264781
C32   C     C_R   0.390567 0.701058 0.475390 -0.126723
C33   C     C_R   0.534361 0.723568 0.505497 0.052660
C34   C     C_3   0.493791 0.342700 0.285256 -0.363490
C35   C     C_R   0.587487 0.795675 0.511411 -0.140982
C36   C     C_R   0.496997 0.845686 0.487777 0.000707
C37   C     C_R   0.348803 0.822252 0.459803 -0.176043
C38   C     C_R   0.295222 0.750232 0.454497 0.050002
C39   C     C_R   0.539362 0.963378 0.446429 -0.127592
C40   C     C_3   0.188618 0.765665 0.616852 -0.375506
C41   C     C_R   0.588840 0.036478 0.451473 0.410507
C42   C     C_R   0.659008 0.068686 0.504605 0.018976
C43   C     C_R   0.678953 0.026613 0.550821 -0.156572
C44   C     C_R   0.627591 0.954498 0.545368 -0.090654
C45   C     C_3   0.002172 0.289785 0.684798 0.322618
C46   C     C_R   0.554912 0.922242 0.493446 0.027352
C47   C     C_R   0.854783 0.172676 0.540668 -0.148011
C48   C     C_R   0.900111 0.245776 0.546399 0.001010
C49   C     C_R   0.656967 0.267103 0.496293 0.041214
C50   C     C_R   0.608413 0.194833 0.491645 -0.065572
C51   C     C_R   0.707664 0.146331 0.512891 0.021367
C52   C     C_3   0.994730 0.316804 0.404532 0.301057
C53   C     C_R   0.798160 0.292494 0.526030 -0.280429
C54   C     C_3   0.978346 0.237083 0.388601 -0.370368
C55   C     C_3   0.695908 0.619336 0.645332 0.299333
C56   C     C_3   0.991669 0.252789 0.740926 -0.316318
C57   C     C_3   0.706493 0.636761 0.711515 -0.344462
C58   C     C_3   0.505485 0.121147 0.690501 0.261351
C59   C     C_3   0.364496 0.068074 0.704904 -0.187264
C60   C     C_3   0.343972 0.006025 0.657533 -0.489584
C61   C     C_3   0.432820 0.070877 0.376928 0.260987
C62   C     C_3   0.441191 0.037279 0.313625 -0.173957
C63   C     C_3   0.276538 0.032653 0.283878 -0.487617
C64   C     C_3   0.527936 0.290875 0.705294 0.311295
C65   C     C_3   0.435756 0.230692 0.734285 0.247197
C66   C     C_R   0.343272 0.515382 0.330539 -0.289979
H1    H     H_    0.685217 0.720651 0.381490 0.074413
H2    H     H_    0.816614 0.607594 0.628146 0.011327
H3    H     H_    0.609291 0.572246 0.635754 0.089095
H4    H     H_    0.765846 0.808903 0.311699 0.137766
H5    H     H_    0.797133 0.682313 0.722137 0.130795
H6    H     H_    0.743244 0.590604 0.732629 0.076547
H7    H     H_    0.586738 0.650333 0.729429 0.136595
H8    H     H_    0.490548 0.701750 0.345200 -0.053359
H9    H     H_    0.579959 0.828561 0.349383 0.068414
H10   H     H_    0.377586 0.373559 0.366913 0.022167
H11   H     H_    0.584937 0.410944 0.359677 0.057555
H12   H     H_    0.262388 0.783033 0.656585 0.127258
H13   H     H_    0.409343 0.294782 0.275348 0.134877
H14   H     H_    0.450538 0.386727 0.262853 0.075616
H15   H     H_    0.616076 0.331837 0.268187 0.129920
H16   H     H_    0.573859 0.789346 0.274294 0.125012
H17   H     H_    0.057813 0.652557 0.219173 0.123219
H18   H     H_    0.032980 0.347220 0.696292 0.057134
H19   H     H_    0.881184 0.280996 0.663660 -0.079400
H20   H     H_    0.101907 0.267762 0.767702 0.126841
H21   H     H_    0.885009 0.268466 0.767151 0.144483
H22   H     H_    0.978792 0.194470 0.730180 0.105121
H23   H     H_    0.237594 0.794972 0.580029 0.060084
H24   H     H_    0.643460 0.303342 0.729403 -0.022486
H25   H     H_    0.552616 0.273051 0.658514 -0.012502
H26   H     H_    0.320128 0.214520 0.711108 0.064060
H27   H     H_    0.008143 0.636962 0.319306 0.106078
H28   H     H_    0.403720 0.250711 0.779784 0.069581
H29   H     H_    0.052487 0.324286 0.049634 0.123682
H30   H     H_    0.983251 0.317362 0.946445 0.122645
H31   H     H_    0.230080 0.676961 0.050664 0.121191
H32   H     H_    0.491985 0.563014 0.199890 0.112794
H33   H     H_    0.153694 0.670502 0.948029 0.123005
H34   H     H_    0.061667 0.778361 0.625449 0.124176
H35   H     H_    0.170278 0.540538 0.753287 0.122176
H36   H     H_    0.722679 0.423203 0.800029 0.101530
H37   H     H_    0.027466 0.457863 0.240770 0.121643
H38   H     H_    0.382174 0.512977 0.374968 0.063893
H39   H     H_    0.221264 0.665703 0.315097 -0.035653
H40   H     H_    0.857144 0.459240 0.617196 0.079857
H41   H     H_    0.494865 0.176727 0.470487 0.081383
H42   H     H_    0.491508 0.938187 0.405220 0.062716
H43   H     H_    0.699443 0.812531 0.534354 0.088949
H44   H     H_    0.732105 0.049872 0.591837 0.072928
H45   H     H_    0.875708 0.334820 0.417980 0.005342
H46   H     H_    0.642102 0.924215 0.582382 0.071797
H47   H     H_    0.935777 0.136714 0.556050 0.073579
H48   H     H_    0.273748 0.859824 0.443333 0.080834
H49   H     H_    0.834947 0.348600 0.529366 0.057577
H50   H     H_    0.958787 0.729125 0.247536 0.144842
H51   H     H_    0.175299 0.736582 0.236014 0.126303
H52   H     H_    0.322030 0.675515 0.593404 0.001199
H53   H     H_    0.119348 0.671259 0.561473 0.056830
H54   H     H_    0.616567 0.092502 0.684267 0.074253
H55   H     H_    0.484215 0.143623 0.648244 0.025096
H56   H     H_    0.081792 0.329193 0.441186 0.063381
H57   H     H_    0.387335 0.047509 0.747640 0.139080
H58   H     H_    0.250001 0.094577 0.708750 0.107528
H59   H     H_    0.326681 0.025290 0.613888 0.141352
H60   H     H_    0.236384 0.970533 0.667725 0.143996
H61   H     H_    0.451939 0.975174 0.656158 0.135437
H62   H     H_    0.397126 0.125728 0.375891 0.069431
H63   H     H_    0.335082 0.042302 0.401636 0.008365
H64   H     H_    0.529963 0.069652 0.288467 0.135017
H65   H     H_    0.482749 0.983240 0.312922 0.115039
H66   H     H_    0.186811 0.998966 0.307476 0.142440
H67   H     H_    0.886826 0.223250 0.353474 0.144894
H68   H     H_    0.286878 0.008791 0.237915 0.148627
H69   H     H_    0.233388 0.086290 0.283311 0.140025
H70   H     H_    0.300221 0.607815 0.506434 0.194055
H71   H     H_    0.418426 0.598989 0.444054 0.205624
H72   H     H_    0.940009 0.209098 0.427228 0.074273
H73   H     H_    0.096492 0.218833 0.372870 0.111761
N1    N     N_R   0.994642 0.487474 0.848539 -0.423169
N2    N     N_R   0.208168 0.507215 0.149535 -0.423743
N3    N     N_3   0.334909 0.627987 0.467129 -0.473091
O1    O     O_2   0.896730 0.461690 0.361000 -0.458022
O2    O     O_2   0.237426 0.250897 0.542485 -0.483234
O3    O     O_3   0.124549 0.262257 0.648718 -0.590605
O4    O     O_3   0.137170 0.462400 0.432040 -0.490075
O5    O     O_3   0.560670 0.583970 0.528500 -0.500492
O6    O     O_2   0.373560 0.329680 0.473470 -0.460449
O7    O     O_3   0.555683 0.306153 0.378464 -0.639153
O8    O     O_2   0.475375 0.487316 0.706525 -0.484771
O9    O     O_3   0.436243 0.350179 0.709158 -0.592946
O10   O     O_2   0.048733 0.606133 0.853265 -0.594330
O11   O     O_2   0.953125 0.368901 0.851320 -0.621789
O12   O     O_3   0.644017 0.677716 0.620285 -0.634751
O13   O     O_2   0.148007 0.388853 0.144962 -0.595295
O14   O     O_2   0.274200 0.624257 0.144802 -0.615260
O15   O     O_3   0.657500 0.588540 0.395070 -0.501078
O16   O     O_2   0.786122 0.541602 0.292002 -0.499266
O17   O     O_3   0.049076 0.348998 0.354875 -0.627704
O18   O     O_3   0.691870 0.669597 0.297448 -0.600138
O19   O     O_2   0.816140 0.670340 0.526560 -0.458454
O20   O     O_3   0.069580 0.624410 0.423530 -0.465205
O21   O     O_2   0.958538 0.750286 0.458827 -0.487102
O22   O     O_3   0.534451 0.174037 0.737843 -0.665492
O23   O     O_3   0.071262 0.740657 0.351700 -0.607810
O24   O     O_3   0.588132 0.075107 0.402914 -0.660836
O25   O     O_2   0.292960 0.538340 0.639040 -0.452557
O26   O     O_3   0.052540 0.537650 0.567960 -0.504193
O27   O     O_3   0.532200 0.411510 0.604930 -0.457543
O28   O     O_3   0.134491 0.650825 0.648446 -0.625856
O29   O     O_3   0.629030 0.416090 0.471500 -0.477511
O30   O     O_3   0.120120 0.375640 0.576470 -0.472280
P1    P     P_3+3 0.067040 0.441110 0.370020 0.998383
P2    P     P_3+3 0.640420 0.660110 0.543790 0.978470
P3    P     P_3+3 0.096913 0.717133 0.422853 0.966298
P4    P     P_3+3 0.122660 0.558950 0.629980 0.985562
P5    P     P_3+3 0.095871 0.283176 0.577177 0.971411
P6    P     P_3+3 0.646952 0.584087 0.318205 0.940539
P7    P     P_3+3 0.555416 0.327825 0.454536 0.955644
P8    P     P_3+3 0.554788 0.420090 0.681592 0.964704

loop_
_geom_bond_atom_site_label_1
_geom_bond_atom_site_label_2
_ccdc_geom_bond_type
Ba2   O6    S    
C19   C24   D    
Ba1   P2    S    
C40   H12   S    
O21   P3    D    
O27   P8    S    
Ba1   O1    S    
C18   N2    Am   
O15   P6    S    
C43   H44   S    
C5    C6    A    
C43   C44   A    
C42   C43   A    
C10   C11   A    
C32   N3    S    
C47   H47   S    
O26   P4    S    
C32   C38   A    
C33   P2    S    
C38   P3    S    
C26   C66   A    
C22   C24   S    
C40   H23   S    
Ba2   O29   S    
C36   C37   A    
C54   H72   S    
C14   H29   S    
C55   C57   S    
C34   H15   S    
Ba2   O4    S    
C3    O10   D    
C52   H45   S    
Ba1   O26   S    
C9    H31   S    
C32   C33   A    
C61   H62   S    
C47   C48   A    
C7    C11   A    
O16   P6    D    
C21   P4    S    
C4    O23   S    
C19   H36   S    
C42   C51   S    
Ba1   P1    S    
C62   H64   S    
Ba1   O20   S    
C34   H14   S    
C14   C15   A    
C30   N2    S    
C65   H26   S    
C21   C22   D    
Ba1   O5    S    
C59   H58   S    
C61   H63   S    
C55   H2    S    
C57   H5    S    
O18   P6    S    
C63   H66   S    
Ba2   O27   S    
C63   H69   S    
Ba2   O5    S    
C64   C65   S    
O29   P7    S    
C18   O14   D    
C19   C20   S    
C39   C41   A    
C60   H61   S    
C31   H40   S    
C66   H38   S    
C27   P1    S    
O19   P2    D    
C40   H34   S    
O7    P7    S    
O6    P7    D    
C44   C46   A    
C4    C16   S    
C55   O12   S    
C45   O3    S    
C25   H32   S    
C16   H17   S    
C44   H46   S    
C49   C50   A    
C17   O13   D    
C45   H18   S    
O1    P1    D    
Ba1   O15   S    
C37   C38   A    
C6    C7    A    
C64   H24   S    
Ba2   O25   S    
C21   C31   D    
C41   O24   S    
C58   O22   S    
C23   H10   S    
C58   C59   S    
C16   H51   S    
C12   H8    S    
C12   O18   S    
C58   H55   S    
C41   C42   A    
C35   C36   A    
C27   C66   A    
C26   P6    S    
H71   N3    S    
C29   C30   A    
C28   H53   S    
C34   H13   S    
C4    H39   S    
Ba1   O29   S    
C10   C18   A    
C55   H3    S    
O17   P1    S    
C58   H54   S    
C56   H22   S    
C57   H6    S    
C28   O28   S    
C1    C12   S    
Ba2   O26   S    
C64   H25   S    
C54   H73   S    
C65   O22   S    
C61   O24   S    
O23   P3    S    
C4    H27   S    
C6    C13   A    
C39   H42   S    
C65   H28   S    
C12   H1    S    
C13   H30   S    
C2    C8    A    
C1    H9    S    
C57   H7    S    
O25   P4    D    
C25   C26   A    
C54   H67   S    
C50   C51   A    
C53   H49   S    
O28   P4    S    
C20   C31   S    
C52   H56   S    
C62   H65   S    
O12   P2    S    
C17   N2    Am   
C33   C35   A    
C25   C30   A    
C23   H11   S    
C36   C46   S    
C8    H33   S    
C2    C3    A    
C49   P7    S    
C56   H20   S    
C64   O9    S    
C9    C10   A    
C52   C54   S    
C16   H50   S    
C48   C53   A    
C11   C15   A    
C23   O7    S    
C22   H35   S    
C62   C63   S    
O5    P2    S    
C48   P5    S    
C27   C29   A    
H70   N3    S    
Ba2   O30   S    
C45   C56   S    
C60   H60   S    
C3    N1    Am   
C60   H59   S    
C28   H52   S    
C50   H41   S    
C37   H48   S    
C47   C51   A    
Ba1   Ba2   S    
C15   C17   A    
C39   C46   A    
O2    P5    D    
C1    H4    S    
C49   C53   A    
C52   O17   S    
C59   C60   S    
C56   H21   S    
C35   H43   S    
C63   H68   S    
C8    C9    A    
C23   C34   S    
C61   C62   S    
O3    P5    S    
C5    O11   D    
O9    P8    S    
Ba1   O19   S    
C20   P8    S    
O4    P1    S    
C29   H37   S    
C1    H16   S    
C28   C40   S    
Ba1   O4    S    
C59   H57   S    
Ba2   P4    S    
C2    C7    A    
C24   N1    S    
O8    P8    D    
O30   P5    S    
C5    N1    Am   
O20   P3    S    
C13   C14   A    
C45   H19   S    
