data_mof_unit_21882.cif
_audit_creation_date              2012-12-10T17:11:04-0500
_audit_creation_method            fapswitch 2.2
_symmetry_space_group_name_H-M    P1
_symmetry_Int_Tables_number       1
_space_group_crystal_system       triclinic
_cell_length_a                    11.664603
_cell_length_b                    12.999502
_cell_length_c                    13.445123
_cell_angle_alpha                 92.052575
_cell_angle_beta                  76.352915
_cell_angle_gamma                 100.197693
_cell_volume                      1949.84436176

loop_
_atom_site_label
_atom_site_type_symbol
_atom_type_description
_atom_site_fract_x
_atom_site_fract_y
_atom_site_fract_z
_atom_type_partial_charge
C1    C     C_R   0.522264 0.701158 0.499314 0.856030
C2    C     C_R   0.457844 0.470860 0.969500 -0.029202
C3    C     C_R   0.473851 0.519578 0.872777 -0.046873
C4    C     C_R   0.541295 0.507854 0.030396 0.080933
C5    C     C_R   0.648387 0.577262 0.987693 0.114781
C6    C     C_R   0.660656 0.626066 0.894462 -0.337711
C7    C     C_R   0.568592 0.605487 0.842125 0.419042
C8    C     C_R   0.516748 0.485829 0.135270 -0.190666
C9    C     C_R   0.714495 0.573711 0.145442 -0.200285
C10   C     C_R   0.395269 0.480704 0.808487 -0.125325
C11   C     C_R   0.466053 0.185757 0.498053 -0.047386
C12   C     C_R   0.435679 0.495687 0.696322 0.912917
C13   C     C_R   0.537625 0.815262 0.494625 -0.088005
C14   C     C_R   0.661766 0.987113 0.463346 -0.279297
C15   C     C_R   0.652518 0.878923 0.469421 0.250227
C16   C     C_R   0.434605 0.861166 0.512456 -0.317962
C17   C     C_R   0.444334 0.968960 0.506356 0.175074
C18   C     C_R   0.558824 0.032265 0.482703 0.133056
C19   C     C_R   0.568944 0.140174 0.479026 -0.243622
C20   C     C_R   0.352195 0.122694 0.518676 -0.214221
C21   C     C_R   0.341347 0.014579 0.523455 -0.195799
C22   C     C_R   0.943463 0.591295 0.600490 -0.361342
C23   C     C_R   0.478880 0.299145 0.498204 0.783332
C24   C     C_R   0.824997 0.582888 0.590455 0.101148
C25   C     C_R   0.858533 0.461122 0.455945 0.020934
C26   C     C_R   0.978520 0.466714 0.463457 0.069770
C27   C     C_R   0.021427 0.532928 0.536676 0.069702
C28   C     C_R   0.141454 0.538848 0.544009 0.038372
C29   C     C_R   0.174852 0.416142 0.410181 0.084948
C30   C     C_R   0.056374 0.407895 0.400001 -0.346516
C31   C     C_R   0.564012 0.505831 0.304094 0.794315
C32   C     C_R   0.736785 0.605258 0.043622 -0.175306
C33   C     C_R   0.601714 0.518365 0.192826 -0.070814
C34   C     C_R   0.288596 0.410141 0.848885 0.188332
C35   C     C_R   0.271529 0.365484 0.944864 -0.265066
C36   C     C_R   0.360040 0.386383 0.000247 0.244705
Cu1   Cu    Cu3+1 0.386470 0.492430 0.492410 0.947401
Cu2   Cu    Cu3+1 0.613530 0.507570 0.507590 0.963144
H1    H     H_    0.781107 0.600181 0.189121 0.153964
H2    H     H_    0.271730 0.156928 0.532932 0.153685
H3    H     H_    0.749696 0.035759 0.443547 0.138066
H4    H     H_    0.252851 0.966874 0.540940 0.130862
H5    H     H_    0.346322 0.812995 0.531429 0.161767
H6    H     H_    0.175649 0.589718 0.599838 0.120711
H7    H     H_    0.234268 0.370551 0.360971 0.126814
H8    H     H_    0.973604 0.642893 0.657753 0.135225
H9    H     H_    0.026070 0.356023 0.342997 0.133260
H10   H     H_    0.765678 0.627810 0.640103 0.146227
H11   H     H_    0.737645 0.686390 0.866334 0.127620
H12   H     H_    0.824357 0.410368 0.400032 0.115024
H13   H     H_    0.820429 0.655999 0.010332 0.132797
H14   H     H_    0.427925 0.450929 0.175636 0.186767
H15   H     H_    0.194211 0.305086 0.971435 0.142185
H16   H     H_    0.657118 0.188642 0.461534 0.146064
N1    N     N_R   0.215880 0.481050 0.481000 -0.178881
N2    N     N_R   0.784100 0.518950 0.519000 -0.176934
O1    O     O_R   0.419710 0.645650 0.494620 -0.600928
O2    O     O_R   0.611450 0.658430 0.507430 -0.537456
O3    O     O_R   0.357340 0.490460 0.641450 -0.560654
O4    O     O_R   0.549080 0.503250 0.654260 -0.563197
O5    O     O_R   0.388550 0.341570 0.492570 -0.591300
O6    O     O_R   0.580290 0.354350 0.505380 -0.592306
O7    O     O_R   0.450920 0.496750 0.345740 -0.591980
O8    O     O_R   0.642660 0.509540 0.358550 -0.588603
N3    N     N_2   0.758928 0.834864 0.445530 -0.405822
H17   H     H_    0.814305 0.860254 0.375884 0.240449
C37   C     C_3   0.823374 0.845211 0.526015 -0.670308
H18   H     H_    0.899351 0.801749 0.504806 0.223421
H19   H     H_    0.763502 0.812362 0.598898 0.229830
H20   H     H_    0.859465 0.928746 0.537180 0.206266
N4    N     N_2   0.202905 0.375767 0.789655 -0.405437
H21   H     H_    0.116227 0.378520 0.829232 0.246622
C38   C     C_3   0.213205 0.275653 0.740969 -0.644613
H22   H     H_    0.153391 0.260871 0.686964 0.221589
H23   H     H_    0.186638 0.212009 0.799216 0.203387
H24   H     H_    0.306626 0.275056 0.697401 0.226927
N5    N     N_2   0.354709 0.314911 0.079814 -0.455619
H25   H     H_    0.269288 0.278850 0.115103 0.242184
C39   C     C_3   0.436844 0.241608 0.052421 -0.686343
H26   H     H_    0.431357 0.193040 0.120214 0.224522
H27   H     H_    0.530492 0.283507 0.026795 0.242151
H28   H     H_    0.413132 0.189532 0.990261 0.227376
O9    O     O_3   0.566049 0.671852 0.764813 -0.752220
H29   H     H_    0.633389 0.731488 0.758551 0.304076

loop_
_geom_bond_atom_site_label_1
_geom_bond_atom_site_label_2
_ccdc_geom_bond_type
C7    O9    S    
C35   H15   S    
C38   H22   S    
C14   C18   A    
C35   C36   A    
C25   N2    A    
C4    C8    A    
N5    H25   S    
C11   C19   A    
C26   C27   A    
C29   C30   A    
C18   C19   A    
C3    C7    A    
C36   N5    S    
C5    C6    A    
C20   H2    S    
C15   N3    S    
C9    H1    S    
C34   C35   A    
C25   H12   S    
C9    C32   A    
Cu2   O2    S    
C12   O3    A    
C23   O6    A    
C16   C17   A    
N3    C37   S    
C31   C33   S    
C8    H14   S    
C5    C32   A    
C9    C33   A    
C38   H23   S    
Cu1   O7    S    
C28   N1    A    
Cu2   O8    S    
N5    C39   S    
C11   C20   A    
C37   H18   S    
C24   H10   S    
C31   O7    A    
C30   H9    S    
C39   H27   S    
C29   N1    A    
C25   C26   A    
C28   H6    S    
C17   C21   A    
C21   H4    S    
C29   H7    S    
C37   H19   S    
C12   O4    A    
C2    C4    A    
C32   H13   S    
Cu1   Cu2   S    
C1    O1    A    
O9    H29   S    
C17   C18   A    
C10   C34   A    
C16   H5    S    
Cu1   O3    S    
C10   C12   S    
C14   H3    S    
Cu2   O4    S    
C19   H16   S    
C22   H8    S    
C26   C30   A    
C22   C27   A    
C13   C15   A    
C38   H24   S    
C22   C24   A    
C1    C13   S    
N4    C38   S    
C2    C36   A    
C31   O8    A    
C4    C5    A    
C39   H28   S    
Cu1   O5    S    
C6    C7    A    
C24   N2    A    
C37   H20   S    
C2    C3    A    
N4    H21   S    
C3    C10   A    
C1    O2    A    
C11   C23   S    
C8    C33   A    
C6    H11   S    
C39   H26   S    
Cu1   N1    S    
C23   O5    A    
Cu2   N2    S    
C20   C21   A    
N3    H17   S    
C13   C16   A    
C27   C28   A    
C14   C15   A    
C34   N4    S    
Cu1   O1    S    
Cu2   O6    S    
