data_mof_unit_16211.cif
_audit_creation_date              2012-12-11T15:16:36-0500
_audit_creation_method            fapswitch 2.2
_symmetry_space_group_name_H-M    P1
_symmetry_Int_Tables_number       1
_space_group_crystal_system       triclinic
_cell_length_a                    25.156814
_cell_length_b                    7.227327
_cell_length_c                    21.917159
_cell_angle_alpha                 90.000941
_cell_angle_beta                  110.275525
_cell_angle_gamma                 90.000421
_cell_volume                      3737.98533855

loop_
_atom_site_label
_atom_site_type_symbol
_atom_type_description
_atom_site_fract_x
_atom_site_fract_y
_atom_site_fract_z
_atom_type_partial_charge
O1    O     O_R   0.554350 0.505270 0.581390 -0.532711
O2    O     O_R   0.445650 0.005270 0.418610 -0.532710
O3    O     O_R   0.553380 0.177580 0.454800 -0.536172
O4    O     O_R   0.446620 0.677580 0.545200 -0.536172
C1    C     C_R   0.565097 0.345042 0.437203 0.714404
C2    C     C_R   0.434903 0.845043 0.562797 0.714405
O5    O     O_R   0.560970 0.175640 0.583140 -0.531335
O6    O     O_R   0.439030 0.675640 0.416860 -0.531338
O7    O     O_R   0.453290 0.004120 0.547860 -0.504900
O8    O     O_R   0.546710 0.504120 0.452140 -0.504898
C3    C     C_R   0.576124 0.343921 0.607577 0.707590
C4    C     C_R   0.423876 0.843917 0.392423 0.707587
O9    O     O_3   0.464660 0.338800 0.488280 -0.366496
O10   O     O_3   0.535340 0.838800 0.511720 -0.366493
V1    V     V_3+5 0.506560 0.064420 0.502170 1.535252
V2    V     V_3+5 0.493440 0.564420 0.497830 1.535251
C5    C     C_R   0.148544 0.982599 0.288973 -0.155384
C6    C     C_R   0.851463 0.482441 0.711023 -0.155380
H1    H     H_    0.063280 0.010252 0.222601 0.108708
H2    H     H_    0.936728 0.510086 0.777396 0.108703
H3    H     H_    0.234120 0.980322 0.401234 0.129404
H4    H     H_    0.765891 0.480097 0.598760 0.129403
H5    H     H_    0.136292 0.012251 0.330748 0.119138
H6    H     H_    0.863719 0.512019 0.669246 0.119138
C7    C     C_R   0.120851 0.942476 0.172465 -0.035483
C8    C     C_R   0.879150 0.442455 0.827534 -0.035475
C9    C     C_R   0.396400 0.813050 0.273702 -0.136656
C10   C     C_R   0.603594 0.313162 0.726300 -0.136663
C11   C     C_R   0.356980 0.809917 0.210925 -0.116288
C12   C     C_R   0.643012 0.310071 0.789078 -0.116285
C13   C     C_R   0.299758 0.841821 0.199796 -0.156286
C14   C     C_R   0.700237 0.341932 0.800206 -0.156287
C15   C     C_R   0.280206 0.878545 0.251813 0.079774
C16   C     C_R   0.719793 0.378569 0.748187 0.079773
C17   C     C_R   0.321223 0.883462 0.316424 0.062986
C18   C     C_R   0.678778 0.383438 0.683574 0.062988
C19   C     C_R   0.221415 0.910262 0.241847 0.073656
C20   C     C_R   0.778585 0.410247 0.758153 0.073658
C21   C     C_R   0.205458 0.948040 0.296785 0.134626
C22   C     C_R   0.794547 0.447932 0.703212 0.134623
C23   C     C_R   0.246282 0.951970 0.359300 -0.192645
C24   C     C_R   0.753724 0.451816 0.640696 -0.192643
C25   C     C_R   0.303123 0.919824 0.369071 -0.191376
C26   C     C_R   0.696882 0.419712 0.630926 -0.191366
C27   C     C_R   0.177702 0.906742 0.179505 -0.211463
C28   C     C_R   0.822296 0.406775 0.820497 -0.211460
C29   C     C_R   0.106801 0.981062 0.227421 -0.162934
C30   C     C_R   0.893205 0.480944 0.772576 -0.162939
C31   C     C_R   0.379546 0.849989 0.326907 -0.097701
C32   C     C_R   0.620453 0.350010 0.673093 -0.097697
H7    H     H_    0.186336 0.879154 0.135528 0.095943
H8    H     H_    0.813659 0.379258 0.864475 0.095937
H9    H     H_    0.440503 0.786085 0.280853 0.172337
H10   H     H_    0.559489 0.286237 0.719149 0.172338
H11   H     H_    0.271929 0.836609 0.149833 0.113138
H12   H     H_    0.728064 0.336758 0.850171 0.113139
H13   H     H_    0.370897 0.781544 0.170327 0.136440
H14   H     H_    0.629092 0.281766 0.829678 0.136442
H15   H     H_    0.332921 0.924116 0.418471 0.105936
H16   H     H_    0.667085 0.423966 0.581524 0.105917
C33   C     C_R   0.116110 0.764237 0.876644 -0.158739
C34   C     C_R   0.883891 0.264239 0.123356 -0.158739
H17   H     H_    0.097938 0.637444 0.887025 0.123789
H18   H     H_    0.902063 0.137448 0.112975 0.123790
C35   C     C_R   0.151477 0.753062 0.839536 -0.138956
C36   C     C_R   0.848523 0.253065 0.160464 -0.138957
H19   H     H_    0.159530 0.618423 0.822864 0.134815
H20   H     H_    0.840471 0.118427 0.177136 0.134815
C37   C     C_R   0.176152 0.913060 0.824353 0.021733
C38   C     C_R   0.823848 0.413062 0.175648 0.021733
C39   C     C_R   0.164455 0.084744 0.847405 -0.132563
C40   C     C_R   0.835544 0.584744 0.152595 -0.132562
H21   H     H_    0.182593 0.211148 0.836672 0.140047
H22   H     H_    0.817406 0.711147 0.163328 0.140047
C41   C     C_R   0.128879 0.096111 0.884371 -0.162131
C42   C     C_R   0.871120 0.596112 0.115629 -0.162132
H23   H     H_    0.120781 0.230829 0.900941 0.122815
H24   H     H_    0.879218 0.730829 0.099059 0.122815
C43   C     C_R   0.104153 0.935950 0.899568 -0.046778
C44   C     C_R   0.895847 0.435951 0.100432 -0.046779
N1    N     N_R   0.241604 0.053114 0.775075 -0.278997
N2    N     N_R   0.758395 0.553112 0.224925 -0.278997
N3    N     N_R   0.275633 0.042728 0.740201 -0.280359
N4    N     N_R   0.724366 0.542725 0.259799 -0.280360
C45   C     C_R   0.283497 0.880021 0.713343 0.541339
C46   C     C_R   0.716503 0.380020 0.286658 0.541340
N5    N     N_R   0.255634 0.727788 0.722950 -0.275856
N6    N     N_R   0.744368 0.227791 0.277050 -0.275856
N7    N     N_R   0.221648 0.738095 0.758010 -0.284444
N8    N     N_R   0.778354 0.238098 0.241991 -0.284444
C47   C     C_R   0.213885 0.901045 0.784911 0.512596
C48   C     C_R   0.786115 0.401045 0.215089 0.512596
C49   C     C_R   0.326380 0.709369 0.640788 -0.120180
C50   C     C_R   0.673620 0.209370 0.359211 -0.120181
H25   H     H_    0.301170 0.588444 0.641438 0.155949
H26   H     H_    0.698830 0.088448 0.358562 0.155949
C51   C     C_R   0.362893 0.702992 0.604801 -0.177943
C52   C     C_R   0.637107 0.202994 0.395198 -0.177945
H27   H     H_    0.364313 0.577254 0.578550 0.178972
H28   H     H_    0.635687 0.077258 0.421449 0.178973
C53   C     C_R   0.396623 0.856502 0.602114 -0.130002
C54   C     C_R   0.603377 0.356501 0.397886 -0.130000
C55   C     C_R   0.392819 0.017932 0.637595 0.377899
C56   C     C_R   0.607180 0.517928 0.362405 0.377899
C57   C     C_R   0.355764 0.023059 0.672735 -0.163758
C58   C     C_R   0.644236 0.523055 0.327265 -0.163757
H29   H     H_    0.353927 0.147969 0.699254 0.176805
H30   H     H_    0.646073 0.647963 0.300747 0.176805
C59   C     C_R   0.322162 0.870052 0.674961 -0.054057
C60   C     C_R   0.677838 0.370051 0.325039 -0.054058
O11   O     O_R   0.953220 0.285790 0.047790 -0.538071
O12   O     O_R   0.046780 0.785790 0.952210 -0.538072
O13   O     O_R   0.939020 0.617570 0.916840 -0.533890
O14   O     O_R   0.060980 0.117570 0.083160 -0.533892
C61   C     C_R   0.923944 0.448718 0.892427 0.682651
C62   C     C_R   0.076056 0.948722 0.107573 0.682651
O15   O     O_R   0.946600 0.615450 0.045180 -0.541094
O16   O     O_R   0.053400 0.115450 0.954820 -0.541094
O17   O     O_R   0.054370 0.786770 0.081410 -0.531267
O18   O     O_R   0.945630 0.286770 0.918590 -0.531268
C63   C     C_R   0.934408 0.446806 0.061828 0.676686
C64   C     C_R   0.065592 0.946805 0.938172 0.676689
O19   O     O_3   0.035300 0.454160 0.011680 -0.373121
O20   O     O_3   0.964700 0.954160 0.988320 -0.373120
V3    V     V_3+5 0.993450 0.728620 0.997830 1.412313
V4    V     V_3+5 0.006550 0.228620 0.002170 1.412315
Cl1   Cl    Cl    0.434615 0.217621 0.643057 -0.697704
Cl2   Cl    Cl    0.565385 0.717613 0.356943 -0.697700

loop_
_geom_bond_atom_site_label_1
_geom_bond_atom_site_label_2
_ccdc_geom_bond_type
C36   H20   S    
C49   C51   A    
C9    C11   A    
O1    C3    A    
C40   C42   A    
O2    C4    A    
C17   C25   A    
C2    O7    A    
C56   C58   A    
C4    C31   S    
C18   C32   A    
C21   C23   A    
H4    C24   S    
O5    C3    A    
C57   H29   S    
C5    H5    S    
C6    H6    S    
C34   C44   A    
C46   C60   S    
C42   H24   S    
C45   C59   S    
C5    C21   A    
O14   V4    S    
O18   V4    S    
O11   C63   A    
C50   C52   A    
C28   H8    S    
C33   C43   A    
N2    C48   A    
C33   H17   S    
O16   C64   A    
C2    C53   S    
C53   C55   A    
C37   C39   A    
O15   C63   A    
C8    C61   S    
C34   H18   S    
C51   H27   S    
C10   C32   A    
C35   H19   S    
C17   C31   A    
C13   C15   A    
N7    C47   A    
C55   Cl1   S    
C7    C29   A    
C16   C18   A    
C25   H15   S    
C22   C24   A    
C49   H25   S    
C11   C13   A    
C23   C25   A    
C24   C26   A    
N1    N3    A    
C44   C63   S    
C45   N5    A    
C43   C64   S    
C39   C41   A    
C34   C36   A    
C46   N6    A    
C12   C14   A    
C42   C44   A    
C40   H22   S    
C7    C62   S    
C39   H21   S    
C10   H10   S    
O19   V4    S    
C52   C54   A    
C50   C60   A    
C15   C19   A    
C14   C16   A    
O4    V2    S    
C50   H26   S    
O12   C64   A    
N8    C48   A    
C56   Cl2   S    
O6    C4    A    
O11   V4    S    
C55   C57   A    
O1    V2    S    
C54   C56   A    
O2    V1    S    
C41   H23   S    
O12   V3    S    
H2    C30   S    
H3    C23   S    
O17   V3    S    
O4    C2    A    
N3    C45   A    
N6    N8    A    
N2    N4    A    
N5    N7    A    
C18   C26   A    
C19   C27   A    
C7    C27   A    
O3    V1    S    
O15   V3    S    
C58   C60   A    
C57   C59   A    
C1    C54   S    
C16   C20   A    
C38   C48   S    
C5    C29   A    
C11   H13   S    
O3    C1    A    
C6    C30   A    
O14   C62   A    
C9    H9    S    
C8    C30   A    
C52   H28   S    
C62   O17   A    
C10   C12   A    
O7    V1    S    
C1    O8    A    
C19   C21   A    
C3    C32   S    
O8    V2    S    
C20   C22   A    
C36   C38   A    
C58   H30   S    
C26   H16   S    
C35   C37   A    
C12   H14   S    
O13   V3    S    
O5    V1    S    
C15   C17   A    
H1    C29   S    
C20   C28   A    
C8    C28   A    
N1    C47   A    
C33   C35   A    
C6    C22   A    
O6    V2    S    
C61   O18   A    
O9    V2    S    
C27   H7    S    
O10   V1    S    
N4    C46   A    
C38   C40   A    
O16   V4    S    
C13   H11   S    
C37   C47   S    
C41   C43   A    
C14   H12   S    
C51   C53   A    
C9    C31   A    
C49   C59   A    
O20   V3    S    
O13   C61   A    
