data_mof_unit_9790.cif
_audit_creation_date              2012-12-10T17:45:32-0500
_audit_creation_method            fapswitch 2.2
_symmetry_space_group_name_H-M    P1
_symmetry_Int_Tables_number       1
_space_group_crystal_system       triclinic
_cell_length_a                    11.508867
_cell_length_b                    10.831976
_cell_length_c                    9.956081
_cell_angle_alpha                 90.635418
_cell_angle_beta                  88.611714
_cell_angle_gamma                 92.884341
_cell_volume                      1239.16580775

loop_
_atom_site_label
_atom_site_type_symbol
_atom_type_description
_atom_site_fract_x
_atom_site_fract_y
_atom_site_fract_z
_atom_type_partial_charge
C1    C     C_R   0.497398 0.259329 0.501499 0.845769
C2    C     C_R   0.518043 0.060945 0.881227 0.538331
C3    C     C_R   0.552853 0.940246 0.876669 0.137144
C4    C     C_R   0.570446 0.882751 0.752360 -0.252333
C5    C     C_R   0.538217 0.938286 0.631015 0.065873
C6    C     C_R   0.507514 0.062183 0.634332 0.047392
C7    C     C_R   0.501343 0.125583 0.508865 -0.077782
C8    C     C_R   0.514716 0.061632 0.387537 -0.229004
C9    C     C_R   0.525070 0.936302 0.386609 -0.213401
C10   C     C_R   0.530330 0.872936 0.506861 -0.099211
C11   C     C_R   0.303072 0.391320 0.138079 0.284538
C12   C     C_R   0.282183 0.500240 0.501342 0.892802
C13   C     C_R   0.197547 0.387526 0.070430 -0.184621
C14   C     C_R   0.201475 0.379214 0.931598 -0.250507
C15   C     C_R   0.307900 0.396335 0.864172 -0.105480
C16   C     C_R   0.404531 0.450986 0.929507 0.121577
C17   C     C_R   0.403559 0.449891 0.073313 0.026296
C18   C     C_R   0.595237 0.543754 0.070550 0.515499
C19   C     C_R   0.594368 0.540881 0.925635 -0.314096
C20   C     C_R   0.511951 0.739617 0.501337 0.868692
C21   C     C_R   0.717843 0.500269 0.498670 0.902119
C22   C     C_1   0.161594 0.499875 0.503379 -0.194616
C23   C     C_1   0.059314 0.499696 0.501662 -0.007572
C24   C     C_1   0.940676 0.499775 0.498094 -0.010512
C25   C     C_1   0.838407 0.499998 0.496517 -0.187552
C26   C     C_R   0.486563 0.116576 0.763003 -0.326422
H1    H     H_    0.515483 0.107610 0.292021 0.191754
H2    H     H_    0.124962 0.346482 0.878037 0.160187
H3    H     H_    0.314649 0.357445 0.765468 0.178241
H4    H     H_    0.669005 0.572580 0.865908 0.169957
H5    H     H_    0.440690 0.199081 0.779049 0.189517
H6    H     H_    0.612285 0.795804 0.753204 0.184708
H7    H     H_    0.526756 0.888329 0.291106 0.181571
H8    H     H_    0.117578 0.355857 0.121837 0.151976
N1    N     N_R   0.498930 0.498800 0.142780 -0.154691
N2    N     N_R   0.498900 0.498720 0.857170 -0.127865
O1    O     O_R   0.500000 0.316780 0.614690 -0.643602
O2    O     O_R   0.499990 0.316750 0.385360 -0.633614
O3    O     O_R   0.334450 0.500030 0.614670 -0.624518
O4    O     O_R   0.334440 0.500000 0.385330 -0.608737
O5    O     O_R   0.500010 0.683250 0.614640 -0.616800
O6    O     O_R   0.500000 0.683220 0.385310 -0.598326
O7    O     O_R   0.665560 0.500000 0.614670 -0.629168
O8    O     O_R   0.665550 0.499970 0.385330 -0.549775
Zn1   Zn    Zn3+2 0.500010 0.500020 0.653130 0.927217
Zn2   Zn    Zn3+2 0.499990 0.499980 0.346870 0.977595
O9    O     O_3   0.509603 0.122909 0.003068 -0.672111
C27   C     C_3   0.605497 0.209695 0.014637 0.052417
H9    H     H_    0.582053 0.278155 0.092619 0.177354
H10   H     H_    0.624485 0.262657 0.920500 0.148483
C28   C     C_3   0.714845 0.148362 0.061078 -0.367983
H11   H     H_    0.694326 0.096750 0.155138 0.230991
H12   H     H_    0.744814 0.082700 0.982711 0.216296
C29   C     C_3   0.813922 0.243714 0.087163 -0.956596
H13   H     H_    0.842437 0.288915 0.991662 0.257325
H14   H     H_    0.889036 0.197155 0.128069 0.260901
H15   H     H_    0.785936 0.314524 0.161103 0.286996
C30   C     C_3   0.559728 0.869543 0.004307 -0.877741
H16   H     H_    0.640723 0.895724 0.057670 0.220406
H17   H     H_    0.482810 0.887403 0.069609 0.261093
H18   H     H_    0.555345 0.769630 0.983228 0.232351
O10   O     O_3   0.691302 0.585036 0.144804 -0.608668
C31   C     C_3   0.780298 0.654628 0.074588 0.055893
H19   H     H_    0.820944 0.720367 0.148190 0.171952
H20   H     H_    0.748079 0.713848 0.994846 0.118727
C32   C     C_3   0.874915 0.570952 0.021326 -0.379957
H21   H     H_    0.911479 0.521381 0.106579 0.239238
H22   H     H_    0.837320 0.501283 0.950195 0.215576
C33   C     C_3   0.972892 0.645663 0.948883 -0.920346
H23   H     H_    0.938401 0.694893 0.862226 0.261156
H24   H     H_    0.039571 0.582646 0.910727 0.276871
H25   H     H_    0.014802 0.713990 0.018817 0.265382
C34   C     C_3   0.314292 0.276141 0.219425 -0.782824
H26   H     H_    0.252563 0.199854 0.186716 0.206837
H27   H     H_    0.400295 0.239106 0.199818 0.260029
H28   H     H_    0.294463 0.290379 0.327367 0.231403

loop_
_geom_bond_atom_site_label_1
_geom_bond_atom_site_label_2
_ccdc_geom_bond_type
C12   O4    A    
C33   H25   S    
C32   H22   S    
C23   C24   S    
C31   H20   S    
C6    C7    A    
O1    Zn1   S    
C2    O9    S    
C21   O8    A    
C11   C13   A    
C9    C10   A    
C29   H13   S    
C20   O6    A    
O9    C27   S    
C19   H4    S    
C1    O1    A    
O3    Zn1   S    
C28   C29   S    
C14   H2    S    
C30   H18   S    
C27   H10   S    
C2    C3    A    
C6    C26   A    
C31   C32   S    
N2    Zn1   S    
C2    C26   A    
C4    H6    S    
C13   C14   A    
C16   N2    A    
C9    H7    S    
C4    C5    A    
O7    Zn1   S    
C34   H27   S    
O10   C31   S    
C1    O2    A    
C12   O3    A    
C20   O5    A    
C5    C6    A    
C5    C10   A    
C27   H9    S    
O8    Zn2   S    
C15   H3    S    
C11   C34   S    
C19   N2    A    
C34   H26   S    
O6    Zn2   S    
C33   H23   S    
C34   H28   S    
C29   H14   S    
O2    Zn2   S    
C32   C33   S    
C7    C8    A    
C15   C16   A    
O4    Zn2   S    
C30   H17   S    
C31   H19   S    
C3    C30   S    
C12   C22   S    
C13   H8    S    
C32   H21   S    
C24   C25   T    
C3    C4    A    
C18   C19   A    
C18   N1    A    
C33   H24   S    
C8    H1    S    
C21   C25   S    
C14   C15   A    
C16   C17   A    
O5    Zn1   S    
C17   N1    A    
C1    C7    S    
C30   H16   S    
C22   C23   T    
N1    Zn2   S    
C26   H5    S    
C27   C28   S    
C21   O7    A    
C18   O10   S    
C28   H11   S    
C10   C20   S    
C8    C9    A    
C28   H12   S    
C29   H15   S    
C11   C17   A    
