data_mof_unit_7905.cif
_audit_creation_date              2012-12-10T17:35:46-0500
_audit_creation_method            fapswitch 2.2
_symmetry_space_group_name_H-M    P1
_symmetry_Int_Tables_number       1
_space_group_crystal_system       triclinic
_cell_length_a                    10.508742
_cell_length_b                    12.08997
_cell_length_c                    12.755515
_cell_angle_alpha                 95.465221
_cell_angle_beta                  91.07951
_cell_angle_gamma                 87.175772
_cell_volume                      1611.10351064

loop_
_atom_site_label
_atom_site_type_symbol
_atom_type_description
_atom_site_fract_x
_atom_site_fract_y
_atom_site_fract_z
_atom_type_partial_charge
C1    C     C_R   0.497436 0.523691 0.700224 0.919286
C2    C     C_R   0.605446 0.167762 0.590960 0.046514
C3    C     C_R   0.543958 0.861953 0.549297 0.089764
C4    C     C_R   0.456043 0.138045 0.450703 0.089745
C5    C     C_R   0.542234 0.978492 0.538216 -0.080878
C6    C     C_R   0.457763 0.021508 0.461790 -0.080842
C7    C     C_R   0.741965 0.501007 0.499349 0.927767
C8    C     C_R   0.258035 0.498994 0.500654 0.927833
C9    C     C_3   0.959034 0.465777 0.590995 -0.349947
C10   C     C_3   0.040965 0.534224 0.409012 -0.349922
C11   C     C_3   0.039976 0.567383 0.581447 -0.133043
C12   C     C_R   0.502566 0.476309 0.299776 0.919253
C13   C     C_3   0.960023 0.432619 0.418561 -0.133014
C14   C     C_3   0.123509 0.497086 0.501302 -0.168959
C15   C     C_3   0.876490 0.502915 0.498705 -0.168985
C16   C     C_3   0.043977 0.395650 0.509665 0.495402
C17   C     C_3   0.956023 0.604351 0.490342 0.495316
C18   C     C_R   0.501631 0.459224 0.187575 -0.097094
C19   C     C_R   0.498384 0.540776 0.812424 -0.097074
C20   C     C_R   0.597286 0.620155 0.971084 -0.030765
C21   C     C_R   0.402753 0.379834 0.028910 -0.030763
C22   C     C_R   0.582781 0.613675 0.862755 -0.326244
C23   C     C_R   0.424071 0.475178 0.868169 0.361210
C24   C     C_R   0.417252 0.386312 0.137239 -0.326274
C25   C     C_2   0.086532 0.641531 0.673484 0.538930
C26   C     C_2   0.913457 0.358474 0.326526 0.538777
C27   C     C_2   0.657462 0.720512 0.021203 0.616979
C28   C     C_2   0.342607 0.279466 0.978782 0.616950
C29   C     C_2   0.396584 0.184970 0.358569 0.592934
C30   C     C_2   0.603410 0.815027 0.641431 0.592977
C31   C     C_R   0.575944 0.524826 0.131835 0.361177
C32   C     C_R   0.456004 0.462737 0.973601 0.000174
C33   C     C_R   0.544023 0.537261 0.026399 0.000171
C34   C     C_R   0.378209 0.946294 0.401055 0.367062
C35   C     C_R   0.621776 0.053709 0.598960 0.367034
C36   C     C_R   0.394543 0.832240 0.409048 0.046477
Cl1   Cl    Cl    0.100651 0.256253 0.523809 -0.460969
Cl2   Cl    Cl    0.899352 0.743750 0.476200 -0.461046
Cl3   Cl    Cl    0.718609 0.573900 0.193023 -0.579730
Cl4   Cl    Cl    0.281391 0.426118 0.806995 -0.579666
Cl5   Cl    Cl    0.246136 0.986260 0.323183 -0.467273
Cl6   Cl    Cl    0.753815 0.013748 0.676871 -0.467369
H1    H     H_    0.922271 0.438397 0.664905 0.196676
H2    H     H_    0.264583 0.244781 0.017367 0.070316
H3    H     H_    0.324149 0.251648 0.368028 0.080575
H4    H     H_    0.675884 0.748382 0.631977 0.080539
H5    H     H_    0.077727 0.561604 0.335102 0.196677
H6    H     H_    0.365510 0.332213 0.182380 0.180179
H7    H     H_    0.634533 0.667765 0.817610 0.180155
H8    H     H_    0.663350 0.225227 0.638759 0.174622
H9    H     H_    0.336631 0.774776 0.361255 0.174618
H10   H     H_    0.068365 0.622316 0.753007 0.080839
H11   H     H_    0.931454 0.377777 0.247005 0.080945
H12   H     H_    0.735528 0.755157 0.982629 0.070267
N1    N     N_R   0.523490 0.207800 0.519350 -0.170185
N2    N     N_R   0.476510 0.792200 0.480650 -0.170163
O1    O     O_R   0.506270 0.421700 0.658830 -0.588955
O2    O     O_2   0.854350 0.276896 0.340501 -0.471010
O3    O     O_2   0.614281 0.770098 0.101638 -0.472461
O4    O     O_2   0.385771 0.229916 0.898327 -0.472499
O5    O     O_2   0.431158 0.150374 0.270096 -0.530328
O6    O     O_2   0.568780 0.849579 0.729899 -0.530303
O7    O     O_R   0.493730 0.578300 0.341170 -0.588936
O8    O     O_R   0.491200 0.609310 0.646410 -0.631096
O9    O     O_R   0.508800 0.390690 0.353590 -0.631172
O10   O     O_R   0.693580 0.406210 0.506230 -0.590523
O11   O     O_R   0.306420 0.593790 0.493770 -0.590477
O12   O     O_R   0.678510 0.593830 0.493810 -0.615926
O13   O     O_R   0.321490 0.406170 0.506190 -0.615949
O14   O     O_2   0.145791 0.723026 0.659510 -0.471058
Zn1   Zn    Zn3+2 0.510060 0.374730 0.508290 1.026355
Zn2   Zn    Zn3+2 0.489940 0.625270 0.491710 1.026405

loop_
_geom_bond_atom_site_label_1
_geom_bond_atom_site_label_2
_ccdc_geom_bond_type
C2    C35   A    
C1    O8    A    
C27   H12   S    
C8    O13   A    
C18   C24   A    
C9    C16   S    
C2    N1    A    
C5    C6    A    
C11   C14   S    
C11   C25   S    
C10   C17   S    
C23   Cl4   S    
O11   Zn2   S    
O13   Zn1   S    
C35   Cl6   S    
C2    H8    S    
C7    O12   A    
N2    Zn2   S    
C31   C33   A    
C4    C29   S    
C16   Cl1   S    
C7    C15   S    
C34   Cl5   S    
C28   O4    D    
C21   C32   A    
C29   O5    D    
C9    H1    S    
C1    C19   S    
C24   H6    S    
C19   C22   A    
C4    C6    A    
C10   C14   S    
C12   O7    A    
O9    Zn1   S    
C28   H2    S    
C6    C34   A    
C29   H3    S    
C3    C30   S    
C19   C23   A    
C36   N2    A    
C1    O1    A    
C9    C11   S    
C3    N2    A    
O10   Zn1   S    
O12   Zn2   S    
O1    Zn1   S    
C26   O2    D    
C36   H9    S    
C22   H7    S    
C20   C33   A    
C21   C28   S    
C20   C22   A    
C13   C15   S    
C4    N1    A    
C14   C16   S    
C13   C26   S    
C13   C16   S    
C26   H11   S    
C15   C17   S    
C11   C17   S    
C8    C14   S    
C30   H4    S    
C3    C5    A    
C10   C13   S    
C18   C31   A    
C20   C27   S    
C12   O9    A    
C23   C32   A    
C30   O6    D    
C9    C15   S    
C25   H10   S    
C27   O3    D    
C32   C33   A    
C7    O10   A    
C5    C35   A    
C31   Cl3   S    
C34   C36   A    
C17   Cl2   S    
O8    Zn2   S    
O7    Zn2   S    
C8    O11   A    
C21   C24   A    
C12   C18   S    
C10   H5    S    
C25   O14   D    
N1    Zn1   S    
