data_mof_unit_31122.cif
_audit_creation_date              2012-12-11T14:31:10-0500
_audit_creation_method            fapswitch 2.2
_symmetry_space_group_name_H-M    P1
_symmetry_Int_Tables_number       1
_space_group_crystal_system       triclinic
_cell_length_a                    6.926168
_cell_length_b                    14.209385
_cell_length_c                    16.194165
_cell_angle_alpha                 90.000252
_cell_angle_beta                  89.999817
_cell_angle_gamma                 89.9988
_cell_volume                      1593.77445936

loop_
_atom_site_label
_atom_site_type_symbol
_atom_type_description
_atom_site_fract_x
_atom_site_fract_y
_atom_site_fract_z
_atom_type_partial_charge
O1    O     O_R   0.469910 0.836130 0.163900 -0.546563
O2    O     O_R   0.530090 0.163870 0.836100 -0.541098
O3    O     O_R   0.530090 0.163870 0.663900 -0.546559
O4    O     O_R   0.469910 0.836130 0.336100 -0.541094
O5    O     O_R   0.969910 0.663870 0.336100 -0.546546
O6    O     O_R   0.030090 0.336130 0.663900 -0.541094
O7    O     O_R   0.030090 0.336130 0.836100 -0.546529
O8    O     O_R   0.969910 0.663870 0.163900 -0.541098
O9    O     O_R   0.140100 0.847470 0.335520 -0.552639
O10   O     O_R   0.859900 0.152530 0.664480 -0.505279
O11   O     O_R   0.859900 0.152530 0.835520 -0.552642
O12   O     O_R   0.140100 0.847470 0.164480 -0.505276
O13   O     O_R   0.640100 0.652530 0.164480 -0.552626
O14   O     O_R   0.359900 0.347470 0.835520 -0.505363
O15   O     O_R   0.359900 0.347470 0.664480 -0.552619
O16   O     O_R   0.640100 0.652530 0.335520 -0.505296
C1    C     C_R   0.309866 0.872258 0.362773 0.662400
C2    C     C_R   0.690104 0.127523 0.637954 0.754447
C3    C     C_R   0.690134 0.127742 0.862773 0.662387
C4    C     C_R   0.309897 0.872477 0.137954 0.754442
C5    C     C_R   0.809871 0.627743 0.137225 0.662473
C6    C     C_R   0.190101 0.372472 0.862048 0.754574
C7    C     C_R   0.190131 0.372257 0.637225 0.662563
C8    C     C_R   0.809899 0.627525 0.362047 0.754501
O17   O     O_3   0.303300 0.689750 0.250000 -0.365540
O18   O     O_3   0.696700 0.310250 0.750000 -0.365553
O19   O     O_3   0.803300 0.810250 0.250000 -0.365544
O20   O     O_3   0.196700 0.189750 0.750000 -0.365546
V1    V     V_3+5 0.028490 0.761170 0.250000 1.521833
V2    V     V_3+5 0.971510 0.238830 0.750000 1.521847
V3    V     V_3+5 0.528490 0.738830 0.250000 1.521816
V4    V     V_3+5 0.471510 0.261170 0.750000 1.521789
H1    H     H_    0.881047 0.424447 0.553911 0.115020
H2    H     H_    0.050516 0.610478 0.485343 0.188630
H3    H     H_    0.118988 0.575532 0.053943 0.115007
H4    H     H_    0.949526 0.389508 0.985367 0.188609
H5    H     H_    0.381119 0.075617 0.946151 0.115003
H6    H     H_    0.550566 0.889544 0.014686 0.188662
H7    H     H_    0.618878 0.924383 0.446151 0.115004
H8    H     H_    0.449435 0.110457 0.514687 0.188663
C9    C     C_2   0.825056 0.546351 0.419944 -0.177299
C10   C     C_2   0.177254 0.448887 0.573877 -0.155816
C11   C     C_2   0.174957 0.453641 0.919951 -0.177367
C12   C     C_2   0.822760 0.551115 0.073873 -0.155743
C13   C     C_2   0.325050 0.953655 0.080061 -0.177294
C14   C     C_2   0.677268 0.051102 0.926112 -0.155870
C15   C     C_2   0.674952 0.046346 0.580059 -0.177313
C16   C     C_2   0.322731 0.948899 0.426112 -0.155863
C17   C     C_2   0.964921 0.546990 0.478803 -0.155300
C18   C     C_2   0.003772 0.467791 0.537311 -0.132297
C19   C     C_2   0.035123 0.452995 0.978823 -0.155392
C20   C     C_2   0.996261 0.532199 0.037327 -0.132263
C21   C     C_2   0.464956 0.953030 0.021219 -0.155289
C22   C     C_2   0.503814 0.032233 0.962714 -0.132258
C23   C     C_2   0.535044 0.046971 0.521218 -0.155305
C24   C     C_2   0.496184 0.967768 0.462714 -0.132251
C25   C     C_2   0.357862 0.501967 0.554776 0.382563
H9    H     H_    0.483969 0.493107 0.593772 0.054718
O21   O     O_2   0.371184 0.554073 0.495203 -0.524115
C26   C     C_2   0.701817 0.462074 0.404562 0.466232
H10   H     H_    0.712102 0.399702 0.442666 0.023809
O22   O     O_2   0.587322 0.460816 0.347212 -0.513695
C27   C     C_2   0.642147 0.498052 0.054743 0.382189
H11   H     H_    0.516014 0.506914 0.093727 0.054703
O23   O     O_2   0.628852 0.445962 0.995158 -0.524228
C28   C     C_2   0.298204 0.537913 0.904565 0.466652
H12   H     H_    0.288394 0.600171 0.942831 0.023745
O24   O     O_2   0.412172 0.539296 0.847031 -0.513876
C29   C     C_2   0.857854 0.997969 0.945151 0.382543
H13   H     H_    0.983898 0.006796 0.906114 0.054750
O25   O     O_2   0.871229 0.945855 0.004713 -0.524084
C30   C     C_2   0.201744 0.037915 0.095422 0.466097
H14   H     H_    0.212154 0.100311 0.057382 0.023867
O26   O     O_2   0.087025 0.039124 0.152678 -0.513657
C31   C     C_2   0.142146 0.002033 0.445149 0.382525
H15   H     H_    0.016101 0.993204 0.406113 0.054740
O27   O     O_2   0.128773 0.054154 0.504708 -0.524092
C32   C     C_2   0.798261 0.962087 0.595418 0.466135
H16   H     H_    0.787860 0.899693 0.557374 0.023880
O28   O     O_2   0.912975 0.960876 0.652675 -0.513644

loop_
_geom_bond_atom_site_label_1
_geom_bond_atom_site_label_2
_ccdc_geom_bond_type
O17   V3    S    
C28   O24   D    
C23   C24   S    
C27   O23   D    
O18   V4    S    
O12   V1    S    
O19   V1    S    
C1    C16   S    
C2    C15   S    
C3    C14   S    
O15   V4    S    
C21   C22   S    
O16   V3    S    
H6    C21   S    
O11   C3    A    
C7    C10   S    
O8    V1    S    
C26   O22   D    
C32   O28   D    
C25   O21   D    
O1    V3    S    
O3    C2    A    
O2    V4    S    
C29   O25   D    
C14   C29   S    
H7    C24   S    
O11   V2    S    
H2    C17   S    
C4    C13   S    
O9    V1    S    
C12   C20   D    
O15   C7    A    
C28   H12   S    
C13   C21   D    
O16   C8    A    
O7    V2    S    
C13   C30   S    
C8    C9    S    
C16   C31   S    
C14   C22   D    
C29   H13   S    
C10   C25   S    
C9    C17   D    
O5    V1    S    
C12   C27   S    
O17   V1    S    
O19   V3    S    
C19   C20   S    
O20   V4    S    
C30   O26   D    
C32   H16   S    
H1    C18   S    
C26   H10   S    
C31   H15   S    
C5    C12   S    
O10   V2    S    
C6    C11   S    
H8    C23   S    
O12   C4    A    
O8    C5    A    
O13   C5    A    
C31   O27   D    
H4    C19   S    
C10   C18   D    
H5    C22   S    
O9    C1    A    
O6    V2    S    
O18   V2    S    
O4    C1    A    
C15   C23   D    
C16   C24   D    
O1    C4    A    
O2    C3    A    
O13   V3    S    
C9    C26   S    
O14   V4    S    
C30   H14   S    
O7    C6    A    
O14   C6    A    
O20   V2    S    
C11   C19   D    
C25   H9    S    
O5    C8    A    
O10   C2    A    
C11   C28   S    
O6    C7    A    
O3    V4    S    
O4    V3    S    
C27   H11   S    
C17   C18   S    
H3    C20   S    
C15   C32   S    
