data_mof_unit_21583.cif
_audit_creation_date              2013-03-05T15:40:25-0500
_audit_creation_method            fapswitch 2.2
_symmetry_space_group_name_H-M    P1
_symmetry_Int_Tables_number       1
_space_group_crystal_system       triclinic
_cell_length_a                    7.73063
_cell_length_b                    8.600744
_cell_length_c                    10.714943
_cell_angle_alpha                 91.143174
_cell_angle_beta                  87.483406
_cell_angle_gamma                 93.328389
_cell_volume                      710.431813978

loop_
_atom_site_label
_atom_site_type_symbol
_atom_site_description
_atom_site_fract_x
_atom_site_fract_y
_atom_site_fract_z
_atom_type_partial_charge
O1    O     O_R   0.389250 0.738570 0.508280 -0.571790
O2    O     O_R   0.678390 0.711630 0.486650 -0.614681
C1    C     C_R   0.544131 0.793862 0.487164 0.980536
O3    O     O_R   0.355400 0.513470 0.694050 -0.608928
O4    O     O_R   0.644540 0.486530 0.672420 -0.628345
C2    C     C_R   0.506161 0.506247 0.739767 0.890888
Zn1   Zn    Zn3+2 0.306930 0.517990 0.514440 1.001303
Zn2   Zn    Zn3+2 0.693070 0.482010 0.485560 0.967199
O5    O     O_R   0.321610 0.288370 0.513350 -0.584036
O6    O     O_R   0.610750 0.261430 0.491720 -0.631481
O7    O     O_R   0.355460 0.513470 0.327580 -0.644314
O8    O     O_R   0.644600 0.486530 0.305950 -0.619092
C3    C     C_R   0.453757 0.205499 0.498679 0.858421
C4    C     C_R   0.493957 0.499101 0.259950 0.888170
C5    C     C_R   0.359837 0.768046 0.888755 0.219813
C6    C     C_R   0.223313 0.842982 0.949785 -0.149458
H1    H     H_    0.171678 0.944416 0.909742 0.158494
C7    C     C_R   0.157295 0.792197 0.064902 -0.149798
H2    H     H_    0.050010 0.849125 0.110974 0.177790
C8    C     C_R   0.237039 0.675753 0.125030 -0.107177
H3    H     H_    0.180773 0.645678 0.215324 0.205846
C9    C     C_R   0.377364 0.599317 0.066006 0.024119
C10   C     C_R   0.420745 0.630387 0.940216 0.046578
C11   C     C_R   0.521505 0.521822 0.872175 -0.127322
C12   C     C_R   0.611373 0.409014 0.932958 0.152748
H4    H     H_    0.670265 0.322700 0.110030 0.164850
C13   C     C_R   0.595353 0.403207 0.061005 -0.191680
C14   C     C_R   0.480753 0.496465 0.127250 -0.144481
C15   C     C_2   0.565329 0.957259 0.479310 -0.502167
H5    H     H_    0.696619 0.007484 0.488875 0.206485
C16   C     C_2   0.425842 0.043853 0.479078 0.122380
N1    N     N_2   0.950330 0.457950 0.466250 -0.165232
H6    H     H_    0.013539 0.383435 0.405931 0.205056
N2    N     N_2   0.049670 0.542050 0.533750 -0.155664
H7    H     H_    0.986525 0.616639 0.594045 0.208871
C17   C     C_3   0.722985 0.293063 0.864552 -0.830028
H8    H     H_    0.837174 0.355189 0.817810 0.261447
H9    H     H_    0.772411 0.207690 0.928800 0.223284
H10   H     H_    0.646688 0.226080 0.794116 0.232895
C18   C     C_3   0.452113 0.854950 0.783322 -0.898612
H11   H     H_    0.495009 0.973086 0.817239 0.229526
H12   H     H_    0.570363 0.799970 0.746879 0.225120
H13   H     H_    0.359598 0.869075 0.709217 0.270801
N3    N     N_R   0.253160 0.983190 0.452843 0.232499
O9    O     O_R   0.122700 0.013030 0.528769 -0.410672
O10   O     O_R   0.223751 0.916520 0.345295 -0.420162

loop_
_geom_bond_atom_site_label_1
_geom_bond_atom_site_label_2
_geom_bond_distance
_ccdc_geom_bond_type
O4    Zn2   2.020809 S    
C10   C11   1.420410 A    
C15   H5    1.087975 S    
C12   C13   1.373810 A    
Zn2   O8    1.978297 S    
C2    C11   1.431850 S    
N1    H6    1.029238 S    
C5    C10   1.428679 A    
O2    C1    1.289216 A    
O8    C4    1.295376 A    
C15   C16   1.345744 D    
C6    C7    1.383129 A    
C9    C14   1.415381 A    
C11   C12   1.411174 A    
Zn1   O7    2.020809 S    
H4    C13   1.085610 S    
C6    H1    1.083942 S    
O3    Zn1   1.978297 S    
C17   H9    1.111266 S    
C18   H11   1.109564 S    
Zn1   N2    2.012666 S    
C8    C9    1.419483 A    
C7    H2    1.082973 S    
C7    C8    1.389403 A    
C18   H13   1.104796 S    
O4    C2    1.281510 A    
O7    C4    1.276860 A    
C5    C18   1.498264 S    
O3    C2    1.289150 A    
C16   N3    1.442063 S    
C12   C17   1.513755 S    
C5    C6    1.399458 A    
Zn2   N1    2.012666 S    
Zn1   O5    1.984502 S    
C8    H3    1.073367 S    
Zn2   O6    1.967142 S    
N2    H7    1.029255 S    
C13   C14   1.391624 A    
C1    C15   1.409136 S    
O5    C3    1.281532 A    
C9    C10   1.401710 A    
C17   H8    1.110260 S    
C4    C14   1.429634 S    
O1    Zn1   1.967142 S    
C3    C16   1.407495 S    
C17   H10   1.109802 S    
O2    Zn2   1.984502 S    
N3    O9    1.301744 A    
N3    O10   1.299985 A    
C18   H12   1.105994 S    
O1    C1    1.274883 A    
O6    C3    1.278912 A    
N1    N2    1.264699 D    
