data_mof_unit_18811.cif
_audit_creation_date              2012-12-10T17:05:40-0500
_audit_creation_method            fapswitch 2.2
_symmetry_space_group_name_H-M    P1
_symmetry_Int_Tables_number       1
_space_group_crystal_system       triclinic
_cell_length_a                    15.915526
_cell_length_b                    11.076411
_cell_length_c                    9.80653
_cell_angle_alpha                 108.481951
_cell_angle_beta                  98.046904
_cell_angle_gamma                 92.779756
_cell_volume                      1615.49692805

loop_
_atom_site_label
_atom_site_type_symbol
_atom_type_description
_atom_site_fract_x
_atom_site_fract_y
_atom_site_fract_z
_atom_type_partial_charge
C1    C     C_R   0.487553 0.256869 0.444644 0.832930
C2    C     C_3   0.962689 0.515494 0.662803 0.236561
C3    C     C_3   0.917321 0.501935 0.504621 -0.198898
C4    C     C_3   0.957698 0.610504 0.454778 0.253278
C5    C     C_3   0.052581 0.590199 0.442070 0.135685
C6    C     C_1   0.824950 0.505537 0.501060 0.083034
C7    C     C_1   0.176045 0.489127 0.510622 -0.041282
C8    C     C_1   0.251100 0.493358 0.505526 -0.199014
C9    C     C_2   0.463566 0.123430 0.423378 0.210496
C10   C     C_2   0.523654 0.056488 0.467070 0.321140
C11   C     C_2   0.510952 0.883823 0.570503 0.152277
C12   C     C_R   0.340378 0.498450 0.501243 0.798997
C13   C     C_2   0.503603 0.920208 0.448968 0.315742
C14   C     C_2   0.518306 0.490186 0.073882 0.532931
C15   C     C_2   0.502637 0.471739 0.912590 0.406003
C16   C     C_R   0.506497 0.745662 0.554811 0.749699
C17   C     C_R   0.659672 0.501797 0.499412 0.828677
C18   C     C_3   0.062297 0.531484 0.673998 0.666219
C19   C     C_3   0.034656 0.349088 0.414968 0.726772
C20   C     C_3   0.935229 0.365075 0.406937 0.091585
C21   C     C_1   0.749280 0.504432 0.498862 -0.172334
C22   C     C_3   0.083498 0.486742 0.511413 -0.135200
Cu1   Cu    Cu3+1 0.514650 0.521810 0.644910 1.000762
Cu2   Cu    Cu3+1 0.485350 0.478190 0.355090 1.007045
H1    H     H_    0.946104 0.424667 0.683316 0.153634
H2    H     H_    0.925384 0.606916 0.345960 0.097785
H3    H     H_    0.572966 0.634861 0.934166 0.179576
H4    H     H_    0.912577 0.301207 0.464809 0.158831
H5    H     H_    0.091504 0.683579 0.502840 0.184932
N1    N     N_2   0.463320 0.445430 0.137380 -0.065813
N2    N     N_2   0.536720 0.554500 0.862620 -0.320642
O1    O     O_R   0.507820 0.332330 0.577400 -0.493259
O2    O     O_R   0.483070 0.295500 0.332660 -0.638384
O3    O     O_R   0.391820 0.518430 0.622420 -0.533914
O4    O     O_R   0.367070 0.481600 0.377680 -0.597806
O5    O     O_R   0.516930 0.704500 0.667340 -0.600987
O6    O     O_R   0.492180 0.667670 0.422600 -0.502593
O7    O     O_R   0.632930 0.518400 0.622320 -0.565555
O8    O     O_R   0.608180 0.481570 0.377580 -0.552397
O9    O     O_3   0.089968 0.665153 0.744724 -0.586500
C23   C     C_3   0.163937 0.697497 0.852620 0.106221
H6    H     H_    0.190253 0.795110 0.862387 0.154565
H7    H     H_    0.216315 0.637153 0.822187 0.126491
C24   C     C_3   0.141991 0.704083 0.001648 -0.729196
H8    H     H_    0.113165 0.610682 0.000647 0.298894
H9    H     H_    0.200647 0.731962 0.084765 0.182937
H10   H     H_    0.096299 0.776597 0.033837 0.242533
O10   O     O_3   0.931372 0.607857 0.775076 -0.693214
H11   H     H_    0.946093 0.694459 0.772375 0.403384
O11   O     O_3   0.498255 0.831199 0.309425 -0.564384
C25   C     C_3   0.422831 0.841171 0.220319 0.094251
H12   H     H_    0.432393 0.924507 0.182592 0.169562
H13   H     H_    0.366689 0.845110 0.277483 0.192611
C26   C     C_3   0.402023 0.726678 0.083462 -0.759869
H14   H     H_    0.386589 0.639825 0.111257 0.273965
H15   H     H_    0.345682 0.741364 0.012208 0.177305
H16   H     H_    0.456212 0.717641 0.023620 0.244209
O12   O     O_3   0.606384 0.113303 0.520149 -0.754578
H17   H     H_    0.642606 0.047981 0.538694 0.316640
O13   O     O_3   0.511532 0.976884 0.705026 -0.581318
C27   C     C_3   0.584755 0.976949 0.804636 0.097383
H18   H     H_    0.643040 0.961758 0.752376 0.116147
H19   H     H_    0.574630 0.902637 0.856113 0.175639
C28   C     C_3   0.599679 0.105697 0.925630 -0.783847
H20   H     H_    0.542192 0.124734 0.978677 0.252723
H21   H     H_    0.654362 0.104952 0.009029 0.207050
H22   H     H_    0.613606 0.183113 0.880196 0.247693
O14   O     O_3   0.377878 0.073738 0.386702 -0.639935
C29   C     C_3   0.331520 0.121407 0.283632 0.040578
H23   H     H_    0.369511 0.131362 0.200004 0.161852
H24   H     H_    0.309931 0.215271 0.341025 0.156976
C30   C     C_3   0.254221 0.028172 0.199296 -0.867213
H25   H     H_    0.219193 0.996491 0.273628 0.263678
H26   H     H_    0.211201 0.074591 0.136613 0.221764
H27   H     H_    0.274545 0.943071 0.120592 0.228999
O15   O     O_3   0.453432 0.365613 0.815325 -0.640217
H28   H     H_    0.460437 0.293932 0.854618 0.341761
O16   O     O_3   0.586558 0.574473 0.162070 -0.552736
C31   C     C_3   0.665317 0.535786 0.119773 0.003437
H29   H     H_    0.662118 0.482044 0.001901 0.119003
H30   H     H_    0.690576 0.472401 0.179911 0.179791
C32   C     C_3   0.728206 0.654198 0.158592 -0.783186
H31   H     H_    0.734657 0.707997 0.276552 0.237477
H32   H     H_    0.791507 0.626716 0.131613 0.200679
H33   H     H_    0.705123 0.717510 0.096451 0.246764
O17   O     O_3   0.094769 0.453750 0.755078 -0.741597
H34   H     H_    0.156574 0.451368 0.755050 0.315055
O18   O     O_3   0.390170 0.381037 0.055633 -0.683464
H35   H     H_    0.360490 0.350043 0.122013 0.364069
O19   O     O_3   0.058699 0.312472 0.272860 -0.549957
C33   C     C_3   0.033732 0.182741 0.185144 0.132811
H36   H     H_    0.967885 0.148591 0.188377 0.198272
H37   H     H_    0.075334 0.116626 0.218181 0.137149
C34   C     C_3   0.042748 0.167689 0.028131 -0.802930
H38   H     H_    0.005276 0.235435 0.988944 0.269687
H39   H     H_    0.110643 0.188116 0.020744 0.254019
H40   H     H_    0.020028 0.068378 0.956648 0.204977
O20   O     O_3   0.051377 0.255125 0.485780 -0.634987
C35   C     C_3   0.135715 0.218618 0.496125 0.103148
H41   H     H_    0.176164 0.280619 0.596772 0.174180
H42   H     H_    0.168454 0.222423 0.404945 0.158146
C36   C     C_3   0.132794 0.084261 0.506521 -0.788794
H43   H     H_    0.094982 0.014821 0.406109 0.228262
H44   H     H_    0.198497 0.055817 0.521769 0.231268
H45   H     H_    0.102814 0.081891 0.601468 0.262959
O21   O     O_3   0.881338 0.307136 0.269315 -0.580682
C37   C     C_3   0.875914 0.378514 0.173315 0.119169
H46   H     H_    0.939499 0.412809 0.159548 0.239647
H47   H     H_    0.836310 0.457604 0.210689 0.128145
C38   C     C_3   0.829045 0.294588 0.024614 -0.829277
H48   H     H_    0.761393 0.272944 0.031627 0.237009
H49   H     H_    0.831430 0.345610 0.944088 0.225144
H50   H     H_    0.857943 0.203137 0.986653 0.255802
O22   O     O_3   0.063861 0.557629 0.295269 -0.732678
H51   H     H_    0.123860 0.585685 0.293935 0.343015
O23   O     O_3   0.955311 0.733477 0.558187 -0.574244
C39   C     C_3   0.891349 0.801761 0.510469 0.057691
H52   H     H_    0.827400 0.749893 0.494166 0.140789
H53   H     H_    0.902701 0.817527 0.407614 0.151402
C40   C     C_3   0.893151 0.931695 0.626396 -0.767429
H54   H     H_    0.956255 0.986802 0.644873 0.257531
H55   H     H_    0.842902 0.986277 0.590324 0.204215
H56   H     H_    0.881344 0.919235 0.730357 0.239198

loop_
_geom_bond_atom_site_label_1
_geom_bond_atom_site_label_2
_ccdc_geom_bond_type
C5    O22   S    
C2    C18   S    
C37   H47   S    
C23   H6    S    
C19   C20   S    
C3    C6    S    
O22   H51   S    
C1    O2    A    
C7    C8    T    
C40   H54   S    
C18   O17   S    
C7    C22   S    
C10   O12   S    
C39   H53   S    
O21   C37   S    
O20   C35   S    
Cu2   O8    S    
O23   C39   S    
C36   H45   S    
C29   H24   S    
C17   O8    A    
C27   H19   S    
C18   O9    S    
C38   H48   S    
C36   H43   S    
C5    C22   S    
C24   H9    S    
O14   C29   S    
C37   H46   S    
C9    C10   D    
C5    H5    S    
C27   H18   S    
C24   H10   S    
C16   O6    A    
C15   O15   S    
C23   H7    S    
C29   H23   S    
C14   N1    D    
C30   H27   S    
C19   O20   S    
C40   H55   S    
O11   C25   S    
C20   O21   S    
C26   H15   S    
Cu2   O4    S    
H3    N2    S    
C25   H12   S    
C28   H22   S    
C19   C22   S    
C1    C9    S    
O15   H28   S    
C30   H26   S    
C39   C40   S    
C33   H36   S    
C31   H30   S    
O16   C31   S    
C30   H25   S    
C20   H4    S    
C34   H40   S    
C2    O10   S    
O12   H17   S    
C6    C21   T    
C1    O1    A    
C17   C21   S    
C31   H29   S    
O13   C27   S    
C25   H13   S    
C28   H21   S    
C27   C28   S    
C36   H44   S    
C33   H37   S    
C11   C16   S    
C35   H41   S    
C8    C12   S    
Cu1   O3    S    
Cu2   O6    S    
C3    C20   S    
C12   O4    A    
C34   H39   S    
C38   H50   S    
O9    C23   S    
C35   H42   S    
Cu1   O5    S    
C32   H32   S    
C23   C24   S    
Cu2   N1    S    
N1    O18   S    
C11   O13   S    
Cu1   O7    S    
C29   C30   S    
C24   H8    S    
O17   H34   S    
C26   H14   S    
O10   H11   S    
C18   C22   S    
C4    O23   S    
C4    C5    S    
C10   C13   S    
C31   C32   S    
C4    H2    S    
C40   H56   S    
C15   N2    D    
C32   H33   S    
Cu2   O2    S    
C25   C26   S    
Cu1   O1    S    
C2    C3    S    
C9    O14   S    
C19   O19   S    
C39   H52   S    
C16   O5    A    
C33   C34   S    
C11   C13   D    
O19   C33   S    
C28   H20   S    
C37   C38   S    
C2    H1    S    
C17   O7    A    
C14   O16   S    
C34   H38   S    
C38   H49   S    
Cu1   Cu2   S    
C13   O11   S    
C35   C36   S    
O18   H35   S    
C32   H31   S    
C14   C15   S    
C12   O3    A    
C3    C4    S    
Cu1   N2    S    
C26   H16   S    
