data_mof_unit_34725.cif
_audit_creation_date              2012-12-10T19:10:33-0500
_audit_creation_method            fapswitch 2.2
_symmetry_space_group_name_H-M    P1
_symmetry_Int_Tables_number       1
_space_group_crystal_system       triclinic
_cell_length_a                    10.639908
_cell_length_b                    9.832327
_cell_length_c                    15.72648
_cell_angle_alpha                 89.278523
_cell_angle_beta                  89.008067
_cell_angle_gamma                 89.823923
_cell_volume                      1644.8428945

loop_
_atom_site_label
_atom_site_type_symbol
_atom_type_description
_atom_site_fract_x
_atom_site_fract_y
_atom_site_fract_z
_atom_type_partial_charge
C1    C     C_R   0.258276 0.500005 0.503698 0.873931
C2    C     C_3   0.928372 0.365813 0.544664 -0.469392
C3    C     C_3   0.077258 0.511412 0.411834 -0.402302
C4    C     C_3   0.121984 0.499945 0.504710 0.028342
C5    C     C_3   0.879128 0.500061 0.503523 0.008789
C6    C     C_R   0.500733 0.500706 0.338646 0.892258
C7    C     C_3   0.931921 0.518637 0.410066 0.818554
C8    C     C_3   0.385277 0.081124 0.458099 -0.354624
C9    C     C_3   0.392256 0.920842 0.450088 -0.379582
C10   C     C_3   0.607085 0.080718 0.446800 0.349432
C11   C     C_3   0.613790 0.918957 0.454191 0.326550
C12   C     C_3   0.638036 0.422537 0.946580 0.594965
C13   C     C_3   0.508612 0.076901 0.586333 -0.164686
C14   C     C_3   0.495122 0.916319 0.586631 -0.150767
C15   C     C_R   0.742152 0.499831 0.502907 0.872090
C16   C     C_R   0.500249 0.499223 0.661345 0.881043
C17   C     C_3   0.489765 0.644095 0.046782 -0.323758
C18   C     C_3   0.406252 0.405303 0.052485 -0.344898
C19   C     C_3   0.398426 0.412486 0.953370 0.240859
C20   C     C_3   0.507381 0.645174 0.948730 0.156980
C21   C     C_1   0.503871 0.497395 0.749928 -0.063543
C22   C     C_3   0.519096 0.496321 0.083071 -0.150011
C23   C     C_3   0.652589 0.440338 0.047426 -0.223244
C24   C     C_3   0.512788 0.495420 0.916622 -0.044021
C25   C     C_2   0.422853 0.140245 0.653597 0.985145
C26   C     C_2   0.381565 0.866123 0.639666 0.965718
C27   C     C_2   0.404536 0.260254 0.087483 1.005524
C28   C     C_2   0.554411 0.763434 0.088789 0.966611
C29   C     C_2   0.762380 0.533770 0.070811 0.887482
C30   C     C_2   0.694276 0.304903 0.088431 1.046731
C31   C     C_1   0.507922 0.496226 0.825039 0.140595
C32   C     C_1   0.512759 0.500229 0.174913 0.153114
C33   C     C_1   0.506531 0.501742 0.250073 -0.030808
C34   C     C_3   0.070611 0.621552 0.556789 -0.389225
C35   C     C_3   0.071468 0.366505 0.546086 -0.390438
C36   C     C_3   0.926860 0.617623 0.559836 -0.402602
H1    H     H_    0.891394 0.717582 0.537881 0.254365
H2    H     H_    0.619405 0.876726 0.388571 0.086050
H3    H     H_    0.605083 0.098672 0.609178 0.177842
H4    H     H_    0.578435 0.875369 0.620608 0.183242
H5    H     H_    0.388234 0.664818 0.059888 0.171166
H6    H     H_    0.317856 0.450365 0.079017 0.160001
H7    H     H_    0.402970 0.308616 0.926624 0.226097
H8    H     H_    0.596019 0.696719 0.929767 0.153110
H9    H     H_    0.101327 0.719465 0.526919 0.222080
H10   H     H_    0.107344 0.275850 0.511424 0.210405
H11   H     H_    0.107322 0.617589 0.622648 0.194193
H12   H     H_    0.898392 0.275477 0.509513 0.237719
H13   H     H_    0.102860 0.358307 0.613035 0.216628
H14   H     H_    0.893075 0.603180 0.626752 0.190254
H15   H     H_    0.890190 0.354066 0.610745 0.215160
H16   H     H_    0.422064 0.815750 0.923013 0.374536
H17   H     H_    0.259655 0.546126 0.959652 0.386801
H18   H     H_    0.811073 0.642853 0.356774 0.369500
H19   H     H_    0.919808 0.328853 0.371629 0.314032
H20   H     H_    0.255392 0.221398 0.686577 0.343082
H21   H     H_    0.193348 0.859521 0.657455 0.349383
H22   H     H_    0.781519 0.125271 0.423619 0.314046
H23   H     H_    0.118765 0.603652 0.380617 0.194622
H24   H     H_    0.793525 0.885065 0.455590 0.342266
H25   H     H_    0.444167 0.061343 0.070662 0.361117
H26   H     H_    0.678370 0.918330 0.079865 0.368908
H27   H     H_    0.945331 0.583650 0.052857 0.357297
H28   H     H_    0.816796 0.147463 0.084923 0.342641
H29   H     H_    0.747622 0.570638 0.901170 0.324226
H30   H     H_    0.636093 0.270985 0.866015 0.380379
H31   H     H_    0.113319 0.423055 0.375002 0.149429
H32   H     H_    0.373386 0.127601 0.393863 0.185302
H33   H     H_    0.401930 0.894693 0.381575 0.175979
H34   H     H_    0.298812 0.108903 0.493773 0.250970
H35   H     H_    0.302051 0.873358 0.469327 0.241665
H36   H     H_    0.593355 0.109040 0.378444 0.089227
N1    N     N_3   0.499750 0.138610 0.498180 -0.097045
N2    N     N_3   0.499750 0.861390 0.498180 -0.108673
O1    O     O_R   0.314910 0.616040 0.499980 -0.637009
O2    O     O_3   0.282340 0.465300 0.925661 -0.690444
O3    O     O_3   0.898263 0.648091 0.377968 -0.762681
O4    O     O_3   0.884157 0.418554 0.355463 -0.760240
O5    O     O_2   0.460125 0.148133 0.726585 -0.631367
O6    O     O_R   0.301663 0.184690 0.634819 -0.787687
O7    O     O_2   0.398726 0.814210 0.709649 -0.575296
O8    O     O_R   0.258570 0.892208 0.614174 -0.824594
O9    O     O_3   0.721123 0.136458 0.471931 -0.733779
O10   O     O_3   0.722544 0.878834 0.497293 -0.736372
O11   O     O_2   0.360764 0.238163 0.158762 -0.611430
O12   O     O_R   0.314910 0.383960 0.499980 -0.607794
O13   O     O_R   0.451411 0.151897 0.039462 -0.757598
O14   O     O_2   0.524394 0.793998 0.161541 -0.620250
O15   O     O_R   0.644546 0.841446 0.044587 -0.784996
O16   O     O_2   0.755567 0.604450 0.134132 -0.599857
O17   O     O_R   0.878973 0.521870 0.028801 -0.697498
O18   O     O_2   0.647891 0.263127 0.155428 -0.643253
O19   O     O_R   0.794941 0.233149 0.051751 -0.676487
O20   O     O_3   0.744463 0.470383 0.899962 -0.696061
O21   O     O_3   0.627844 0.282497 0.928517 -0.681600
O22   O     O_R   0.500120 0.616090 0.377110 -0.622104
O23   O     O_R   0.500120 0.383910 0.377110 -0.597933
O24   O     O_R   0.685320 0.616040 0.499960 -0.589227
O25   O     O_R   0.685320 0.383960 0.499960 -0.553237
O26   O     O_R   0.500110 0.615990 0.622830 -0.606043
O27   O     O_R   0.500110 0.384010 0.622830 -0.621410
O28   O     O_3   0.408970 0.718191 0.910271 -0.685774
Zn1   Zn    Zn3+2 0.500150 0.654960 0.499960 0.974318
Zn2   Zn    Zn3+2 0.500150 0.345040 0.499960 0.998890

loop_
_geom_bond_atom_site_label_1
_geom_bond_atom_site_label_2
_ccdc_geom_bond_type
C2    C35   S    
H26   O15   S    
C16   C21   S    
C25   O6    S    
O12   Zn2   S    
C21   C31   T    
C12   C23   S    
H16   O28   S    
C22   C32   S    
C14   N2    S    
C36   H1    S    
C9    H33   S    
H28   O19   S    
C30   O19   S    
C3    C7    S    
C18   H6    S    
C10   N1    S    
C20   O28   S    
O24   Zn1   S    
C5    C36   S    
C10   O9    S    
C17   C20   S    
C18   C19   S    
C27   O11   D    
H25   O13   S    
N1    Zn2   S    
C20   C24   S    
C8    C9    S    
C28   O14   D    
C12   O21   S    
C28   O15   S    
C7    O3    S    
H18   O3    S    
O25   Zn2   S    
C4    C35   S    
C26   O8    S    
C18   C22   S    
C13   C14   S    
O1    Zn1   S    
C12   O20   S    
C29   O16   D    
C20   H8    S    
C19   H7    S    
C22   C23   S    
C4    C34   S    
C5    C15   S    
C1    O1    A    
C23   C30   S    
C30   O18   D    
C2    H15   S    
C5    C7    S    
H19   O4    S    
C16   O26   A    
C2    H12   S    
O26   Zn1   S    
C11   H2    S    
C6    O23   A    
C35   H13   S    
C34   H9    S    
C14   C26   S    
C27   O13   S    
C7    O4    S    
H29   O20   S    
C13   N1    S    
C8    H32   S    
C26   O7    D    
C6    O22   A    
H17   O2    S    
C9    N2    S    
C15   O24   A    
C3    C4    S    
C23   C29   S    
C29   O17   S    
C36   H14   S    
C1    O12   A    
C19   O2    S    
C25   O5    D    
C17   C28   S    
C3    H31   S    
C18   C27   S    
C9    H35   S    
C15   O25   A    
C13   C25   S    
C11   N2    S    
C11   O10   S    
O27   Zn2   S    
C12   C24   S    
C8    H34   S    
C17   C22   S    
H20   O6    S    
C6    C33   S    
C1    C4    S    
C32   C33   T    
C19   C24   S    
C24   C31   S    
H22   O9    S    
H24   O10   S    
C8    N1    S    
C34   C36   S    
C17   H5    S    
C13   H3    S    
O23   Zn2   S    
C10   C11   S    
C14   H4    S    
C2    C5    S    
C16   O27   A    
O22   Zn1   S    
H27   O17   S    
H21   O8    S    
N2    Zn1   S    
C34   H11   S    
C35   H10   S    
C10   H36   S    
H30   O21   S    
C3    H23   S    
