data_mof_unit_15031.cif
_audit_creation_date              2012-12-10T21:06:21-0500
_audit_creation_method            fapswitch 2.2
_symmetry_space_group_name_H-M    P1
_symmetry_Int_Tables_number       1
_space_group_crystal_system       triclinic
_cell_length_a                    15.094098
_cell_length_b                    15.851075
_cell_length_c                    16.409429
_cell_angle_alpha                 89.733785
_cell_angle_beta                  97.552219
_cell_angle_gamma                 89.190114
_cell_volume                      3891.55247223

loop_
_atom_site_label
_atom_site_type_symbol
_atom_type_description
_atom_site_fract_x
_atom_site_fract_y
_atom_site_fract_z
_atom_type_partial_charge
C1    C     C_R   0.500733 0.339091 0.501886 0.885689
C2    C     C_1   0.498422 0.749058 0.500398 -0.109500
C3    C     C_R   0.962636 0.446842 0.550921 0.310169
C4    C     C_R   0.038192 0.557703 0.445177 0.255367
C5    C     C_R   0.904999 0.498972 0.496060 -0.363087
C6    C     C_R   0.094280 0.498742 0.494155 -0.378266
C7    C     C_R   0.942763 0.550729 0.439039 0.325421
C8    C     C_R   0.054755 0.438407 0.541348 0.251564
C9    C     C_1   0.806932 0.499514 0.498762 0.406301
C10   C     C_1   0.192695 0.499698 0.497241 0.345163
C11   C     C_R   0.513599 0.503539 0.655484 0.930243
C12   C     C_R   0.499500 0.660961 0.500215 0.945217
C13   C     C_R   0.486099 0.500047 0.344818 1.015509
C14   C     C_R   0.523246 0.513504 0.745849 -0.305636
C15   C     C_R   0.470302 0.487769 0.255771 -0.327861
C16   C     C_R   0.455121 0.555701 0.781982 -0.199402
C17   C     C_R   0.505993 0.414566 0.222447 -0.242487
C18   C     C_R   0.455129 0.550414 0.867514 0.360516
C19   C     C_R   0.474430 0.390905 0.141542 0.382463
C20   C     C_R   0.509328 0.487723 0.912293 0.040480
C21   C     C_R   0.414763 0.444923 0.092255 0.044991
C22   C     C_R   0.582022 0.451975 0.877529 0.260072
C23   C     C_R   0.499952 0.912916 0.503408 0.028652
C24   C     C_R   0.368318 0.508092 0.129386 0.329913
C25   C     C_R   0.595477 0.476391 0.797516 0.222916
C26   C     C_R   0.402448 0.536145 0.208461 0.250327
C27   C     C_R   0.572421 0.953131 0.549541 -0.049679
C28   C     C_R   0.428484 0.046845 0.463458 -0.053467
C29   C     C_R   0.581217 0.366716 0.269367 0.193569
C30   C     C_R   0.669195 0.392827 0.266166 -0.003193
C31   C     C_R   0.741069 0.348493 0.309885 -0.115247
C32   C     C_R   0.725599 0.277099 0.355936 -0.101194
C33   C     C_R   0.638239 0.250263 0.358626 -0.124507
C34   C     C_R   0.500752 0.087235 0.509325 0.029802
C35   C     C_R   0.566004 0.295621 0.316470 -0.091088
C36   C     C_R   0.386935 0.609014 0.731161 0.220020
C37   C     C_R   0.411861 0.683692 0.694337 -0.106893
C38   C     C_R   0.347582 0.733180 0.645990 -0.124428
C39   C     C_R   0.258582 0.707769 0.632949 -0.059159
C40   C     C_R   0.233503 0.633100 0.668740 -0.150026
C41   C     C_R   0.297359 0.583828 0.717778 -0.043864
C42   C     C_R   0.647424 0.086315 0.601548 0.122712
C43   C     C_R   0.632873 0.130949 0.672428 -0.165723
C44   C     C_R   0.703222 0.173033 0.718242 -0.091055
C45   C     C_R   0.427899 0.958758 0.460940 -0.046271
C46   C     C_R   0.788419 0.170831 0.693663 -0.003152
C47   C     C_R   0.803286 0.126850 0.622928 -0.095684
C48   C     C_R   0.733051 0.084670 0.576884 -0.166890
C49   C     C_R   0.351901 0.914855 0.413784 0.129736
C50   C     C_R   0.351733 0.898898 0.329760 -0.116836
C51   C     C_R   0.278196 0.860459 0.284847 -0.060073
C52   C     C_R   0.204665 0.838178 0.323547 0.020152
C53   C     C_R   0.204704 0.854116 0.407303 -0.062181
C54   C     C_R   0.278396 0.891693 0.452550 -0.207701
C55   C     C_R   0.646455 0.902399 0.595498 0.107239
C56   C     C_R   0.572480 0.041540 0.553055 -0.045648
C57   C     C_R   0.704428 0.854697 0.552866 -0.145865
C58   C     C_R   0.772138 0.804779 0.596073 -0.096666
C59   C     C_R   0.782536 0.802372 0.681959 -0.082876
C60   C     C_R   0.725309 0.849965 0.724765 -0.120014
C61   C     C_R   0.657367 0.899809 0.681774 -0.138737
C62   C     C_R   0.353854 0.096716 0.417656 0.114254
C63   C     C_R   0.365235 0.136792 0.343392 -0.166299
C64   C     C_R   0.295109 0.184147 0.300532 -0.089110
C65   C     C_R   0.213193 0.191013 0.331197 -0.134354
C66   C     C_R   0.201373 0.150763 0.404898 -0.097046
C67   C     C_1   0.498514 0.823718 0.501302 -0.032088
C68   C     C_R   0.271649 0.104202 0.448402 -0.080439
C69   C     C_1   0.502145 0.176449 0.508946 -0.035204
C70   C     C_1   0.502104 0.251084 0.506302 -0.135056
H1    H     H_    0.681891 0.447583 0.229948 0.179187
H2    H     H_    0.277335 0.525797 0.744775 0.189876
H3    H     H_    0.479639 0.161640 0.150919 0.385959
H4    H     H_    0.256524 0.664423 0.894603 0.394792
H5    H     H_    0.759693 0.286818 0.919062 0.376106
H6    H     H_    0.128220 0.532452 0.126430 0.400684
H7    H     H_    0.766238 0.537845 0.880992 0.348904
H8    H     H_    0.430675 0.716163 0.159087 0.374499
H9    H     H_    0.567188 0.132802 0.692216 0.158319
H10   H     H_    0.691645 0.207175 0.772855 0.195694
H11   H     H_    0.842833 0.203408 0.729291 0.171101
H12   H     H_    0.808741 0.369267 0.307771 0.162898
H13   H     H_    0.869214 0.125536 0.603754 0.166684
H14   H     H_    0.745185 0.050945 0.522079 0.138442
H15   H     H_    0.408051 0.916820 0.299168 0.145590
H16   H     H_    0.277880 0.848529 0.219946 0.193914
H17   H     H_    0.147621 0.808820 0.288579 0.199700
H18   H     H_    0.147602 0.837683 0.437281 0.184609
H19   H     H_    0.277672 0.904047 0.517321 0.130119
H20   H     H_    0.696756 0.855907 0.486309 0.159912
H21   H     H_    0.816396 0.767807 0.562986 0.178410
H22   H     H_    0.834861 0.763565 0.715331 0.162241
H23   H     H_    0.781268 0.242482 0.389405 0.149515
H24   H     H_    0.733351 0.847935 0.791263 0.156396
H25   H     H_    0.612844 0.935772 0.715514 0.146054
H26   H     H_    0.428285 0.131205 0.318959 0.153564
H27   H     H_    0.304096 0.215370 0.243483 0.193270
H28   H     H_    0.158903 0.227547 0.297899 0.147832
H29   H     H_    0.137921 0.156106 0.428594 0.157956
H30   H     H_    0.262112 0.073969 0.505855 0.138402
H31   H     H_    0.160974 0.318010 0.464371 0.328242
H32   H     H_    0.874872 0.659146 0.240882 0.390744
H33   H     H_    0.963607 0.340453 0.752842 0.389385
H34   H     H_    0.626661 0.194518 0.393749 0.139045
H35   H     H_    0.125564 0.547186 0.304618 0.363169
H36   H     H_    0.498487 0.275478 0.320330 0.140960
H37   H     H_    0.480782 0.703640 0.703504 0.132113
H38   H     H_    0.366795 0.791107 0.618409 0.135134
H39   H     H_    0.209096 0.745896 0.595044 0.156201
H40   H     H_    0.164636 0.613250 0.658268 0.162362
N1    N     N_2   0.499347 0.467855 0.995019 -0.060146
N2    N     N_2   0.420719 0.453725 0.006971 -0.010248
N3    N     N_1   0.270550 0.500020 0.500020 -0.052544
N4    N     N_1   0.729450 0.499980 0.499980 -0.050453
O1    O     O_R   0.573650 0.378020 0.500000 -0.607496
O2    O     O_2   0.594658 0.274575 0.106439 -0.225875
O3    O     O_3   0.458743 0.217032 0.169293 -0.615965
O4    O     O_2   0.428799 0.632037 0.007791 -0.267590
O5    O     O_2   0.412355 0.713911 0.880764 -0.310183
O6    O     O_3   0.286965 0.608575 0.901138 -0.483471
O7    O     O_2   0.682451 0.398164 0.015405 -0.254737
O8    O     O_2   0.585353 0.296175 0.936891 -0.218815
O9    O     O_3   0.731674 0.333016 0.883320 -0.481378
O10   O     O_2   0.249575 0.627250 0.062425 -0.163651
O11   O     O_2   0.231751 0.483451 0.008921 -0.225189
O12   O     O_R   0.426350 0.621980 0.500000 -0.582630
O13   O     O_3   0.187980 0.513909 0.153295 -0.536149
O14   O     O_2   0.720495 0.400488 0.722467 -0.182260
O15   O     O_2   0.714450 0.555331 0.716233 -0.285602
O16   O     O_3   0.782381 0.485991 0.852508 -0.426378
O17   O     O_2   0.278166 0.632163 0.268947 -0.167437
O18   O     O_2   0.433431 0.668053 0.314173 -0.349341
O19   O     O_3   0.367212 0.708473 0.166581 -0.481025
O20   O     O_2   0.168869 0.371290 0.664602 -0.205074
O21   O     O_2   0.061655 0.274379 0.590361 -0.244620
O22   O     O_3   0.195602 0.321835 0.519812 -0.543908
O23   O     O_R   0.426310 0.378020 0.499960 -0.589978
O24   O     O_2   0.784023 0.559952 0.339181 -0.347444
O25   O     O_2   0.847321 0.691614 0.395650 -0.283596
O26   O     O_3   0.916219 0.620459 0.275504 -0.450499
O27   O     O_2   0.870865 0.472440 0.675014 -0.214053
O28   O     O_2   0.854369 0.334929 0.607572 -0.312693
O29   O     O_3   0.997495 0.363358 0.710145 -0.439109
O30   O     O_2   0.031210 0.717434 0.385081 -0.241928
O31   O     O_2   0.179125 0.660939 0.434200 -0.328606
O32   O     O_3   0.099112 0.604628 0.296396 -0.426447
O33   O     O_R   0.573690 0.621980 0.500040 -0.605976
O34   O     O_R   0.581880 0.499230 0.616150 -0.540717
O35   O     O_R   0.418120 0.500770 0.383850 -0.585379
O36   O     O_R   0.434550 0.499230 0.616110 -0.620450
O37   O     O_R   0.565450 0.500770 0.383890 -0.604272
O38   O     O_2   0.447393 0.275143 0.021081 -0.211953
S1    S     S_3+6 0.495883 0.288123 0.105987 0.079960
S2    S     S_3+6 0.088334 0.638732 0.391426 0.068168
S3    S     S_3+6 0.396811 0.629057 0.917294 0.069488
S4    S     S_3+6 0.646541 0.368909 0.930618 0.102235
S5    S     S_3+6 0.258025 0.535239 0.084545 0.145915
S6    S     S_3+6 0.704748 0.479311 0.769351 0.129127
S7    S     S_3+6 0.369579 0.637181 0.242958 0.092698
S8    S     S_3+6 0.119890 0.349243 0.581908 0.079925
S9    S     S_3+6 0.869383 0.606952 0.361989 0.063752
S10   S     S_3+6 0.919282 0.402712 0.636983 0.099577
Zn1   Zn    Zn3+2 0.598370 0.500000 0.500020 1.091871
Zn2   Zn    Zn3+2 0.401630 0.500000 0.499980 1.070061

loop_
_geom_bond_atom_site_label_1
_geom_bond_atom_site_label_2
_ccdc_geom_bond_type
C66   C68   A    
C34   C56   A    
C23   C45   A    
O7    S4    D    
C33   H34   S    
C17   C29   S    
O20   S8    D    
N1    N2    D    
C2    C12   S    
C30   H1    S    
N4    Zn1   S    
O14   S6    D    
C22   S4    S    
C53   C54   A    
C7    S9    S    
C29   C30   A    
C31   H12   S    
H5    O9    S    
C9    N4    T    
C12   O33   A    
C36   C37   A    
C19   C21   A    
C24   C26   A    
C65   H28   S    
C37   H37   S    
C30   C31   A    
C11   C14   S    
C27   C55   S    
C11   O34   A    
C12   O12   A    
C43   H9    S    
C49   C54   A    
C46   H11   S    
C23   C67   S    
C49   C50   A    
C50   H15   S    
C42   C56   S    
C47   C48   A    
C22   C25   A    
C47   H13   S    
O24   S9    D    
C58   H21   S    
O13   S5    S    
O29   S10   S    
C18   C20   A    
C3    S10   S    
C59   H22   S    
C4    S2    S    
C28   C34   A    
C59   C60   A    
C38   H38   S    
C36   C41   A    
C4    C7    A    
O12   Zn2   S    
C51   H16   S    
O15   S6    D    
C44   C46   A    
C50   C51   A    
C39   H39   S    
O9    S4    S    
C28   C45   A    
O18   S7    D    
H3    O3    S    
C57   H20   S    
C51   C52   A    
O25   S9    D    
C13   O37   A    
C54   H19   S    
C4    C6    A    
C3    C8    A    
C39   C40   A    
C5    C7    A    
C26   S7    S    
C24   S5    S    
C17   C19   A    
C15   C26   A    
C6    C8    A    
C58   C59   A    
C63   H26   S    
O6    S3    S    
C48   H14   S    
C60   C61   A    
O19   S7    S    
C66   H29   S    
C42   C48   A    
C43   C44   A    
C68   H30   S    
C5    C9    S    
C37   C38   A    
C20   N1    S    
C11   O36   A    
C31   C32   A    
O32   S2    S    
C44   H10   S    
O10   S5    D    
C62   C63   A    
C45   C49   S    
O4    S3    D    
O35   Zn2   S    
H32   O26   S    
O17   S7    D    
C34   C69   S    
O2    S1    D    
C10   N3    T    
C41   H2    S    
O31   S2    D    
C64   H27   S    
C20   C22   A    
C2    C67   T    
C23   C27   A    
C55   C57   A    
O3    S1    S    
C19   S1    S    
C14   C16   A    
C42   C43   A    
C8    S8    S    
C21   N2    S    
C1    O23   A    
C52   C53   A    
H31   O22   S    
C15   C17   A    
O30   S2    D    
C46   C47   A    
C40   C41   A    
O5    S3    D    
O21   S8    D    
C27   C56   A    
O34   Zn1   S    
O8    S4    D    
C52   H17   S    
C3    C5    A    
H33   O29   S    
O28   S10   D    
O23   Zn2   S    
C40   H40   S    
C61   H25   S    
H4    O6    S    
C29   C35   A    
O37   Zn1   S    
C1    C70   S    
C62   C68   A    
O16   S6    S    
C64   C65   A    
C13   C15   S    
O26   S9    S    
C13   O35   A    
C35   H36   S    
O33   Zn1   S    
C32   C33   A    
N3    Zn2   S    
C57   C58   A    
C38   C39   A    
H35   O32   S    
C55   C61   A    
C33   C35   A    
C32   H23   S    
C53   H18   S    
O11   S5    D    
H7    O16   S    
C14   C25   A    
O1    Zn1   S    
C69   C70   T    
H8    O19   S    
C6    C10   S    
C63   C64   A    
O22   S8    S    
O27   S10   D    
O38   S1    D    
C16   C18   A    
C65   C66   A    
C21   C24   A    
C25   S6    S    
H6    O13   S    
C1    O1    A    
C16   C36   S    
C18   S3    S    
C60   H24   S    
O36   Zn2   S    
C28   C62   S    
