data_mof_unit_27237.cif
_audit_creation_date              2012-12-10T18:43:09-0500
_audit_creation_method            fapswitch 2.2
_symmetry_space_group_name_H-M    P1
_symmetry_Int_Tables_number       1
_space_group_crystal_system       triclinic
_cell_length_a                    10.703732
_cell_length_b                    9.857407
_cell_length_c                    10.670452
_cell_angle_alpha                 85.476066
_cell_angle_beta                  90.241672
_cell_angle_gamma                 89.935394
_cell_volume                      1122.33171044

loop_
_atom_site_label
_atom_site_type_symbol
_atom_type_description
_atom_site_fract_x
_atom_site_fract_y
_atom_site_fract_z
_atom_type_partial_charge
C1    C     C_R   0.259953 0.499984 0.500038 0.879692
C2    C     C_R   0.936253 0.377722 0.529997 -0.206624
C3    C     C_R   0.872477 0.499840 0.500514 -0.008847
C4    C     C_R   0.127463 0.499937 0.500355 -0.023465
C5    C     C_R   0.935714 0.622031 0.471285 -0.210483
C6    C     C_R   0.063632 0.622076 0.471391 -0.205894
C7    C     C_R   0.577959 0.065600 0.577894 -0.136985
C8    C     C_R   0.422615 0.078861 0.421488 -0.114310
C9    C     C_R   0.578537 0.921471 0.577966 0.167773
C10   C     C_R   0.422638 0.934719 0.420941 0.149356
C11   C     C_3   0.209046 0.466587 0.834914 -0.339046
C12   C     C_R   0.740032 0.499880 0.500230 0.830155
C13   C     C_3   0.209402 0.530379 0.164220 -0.348200
C14   C     C_3   0.706022 0.396856 0.879803 -0.291670
C15   C     C_3   0.704472 0.606254 0.120801 -0.290109
C16   C     C_R   0.501274 0.506280 0.262361 0.858149
C17   C     C_R   0.501099 0.493691 0.737634 0.860857
C18   C     C_2   0.393946 0.505667 0.930931 0.386639
C19   C     C_2   0.394052 0.492961 0.068386 0.386387
C20   C     C_2   0.498707 0.471575 0.871510 0.278945
C21   C     C_2   0.498299 0.528591 0.128468 0.281422
C22   C     C_R   0.064231 0.377736 0.529722 -0.212882
H1    H     H_    0.113300 0.282907 0.553467 0.159526
H2    H     H_    0.170073 0.587876 0.079242 0.202476
H3    H     H_    0.252846 0.602107 0.226942 0.165855
H4    H     H_    0.130417 0.479693 0.215940 0.198623
H5    H     H_    0.733095 0.504857 0.855936 0.158541
H6    H     H_    0.710662 0.338170 0.795246 0.168808
H7    H     H_    0.775741 0.352042 0.948309 0.181760
H8    H     H_    0.733109 0.498561 0.144336 0.157412
H9    H     H_    0.708967 0.664649 0.205569 0.176965
H10   H     H_    0.773119 0.652199 0.052442 0.180016
H11   H     H_    0.753301 0.874555 0.637615 0.152151
H12   H     H_    0.887617 0.282898 0.553939 0.152127
H13   H     H_    0.643801 0.864438 0.751598 0.185007
H14   H     H_    0.250734 0.899768 0.353357 0.149630
H15   H     H_    0.365440 0.905879 0.245037 0.182052
H16   H     H_    0.886707 0.716909 0.447529 0.156226
H17   H     H_    0.112126 0.716930 0.447853 0.159038
H18   H     H_    0.640194 0.115397 0.639964 0.131181
H19   H     H_    0.360826 0.139221 0.358805 0.163156
H20   H     H_    0.170842 0.409113 0.920038 0.201106
H21   H     H_    0.252584 0.394946 0.772407 0.158960
H22   H     H_    0.129212 0.516572 0.783144 0.199347
N1    N     N_R   0.500000 0.857200 0.500000 -0.070627
N2    N     N_R   0.500000 0.142810 0.500000 -0.090317
N3    N     N_3   0.662220 0.842686 0.659138 -0.397384
N4    N     N_3   0.342456 0.869661 0.336752 -0.413473
O1    O     O_R   0.316770 0.614620 0.499990 -0.598198
O2    O     O_3   0.294735 0.429638 0.132237 -0.638674
O3    O     O_3   0.586355 0.385603 0.935346 -0.626709
O4    O     O_3   0.584296 0.616227 0.065220 -0.628671
O5    O     O_R   0.683230 0.614620 0.500010 -0.615998
O6    O     O_R   0.316800 0.385290 0.500000 -0.623158
O7    O     O_R   0.683200 0.385290 0.500000 -0.631844
O8    O     O_R   0.500000 0.614630 0.319080 -0.613569
O9    O     O_R   0.500000 0.614630 0.680920 -0.575066
O10   O     O_R   0.500030 0.385300 0.319080 -0.595114
O11   O     O_R   0.499970 0.385300 0.680920 -0.629429
O12   O     O_3   0.293873 0.568036 0.866460 -0.631089
Zn1   Zn    Zn3+2 0.500000 0.653120 0.500000 0.990661
Zn2   Zn    Zn3+2 0.500000 0.346880 0.500000 0.957835

loop_
_geom_bond_atom_site_label_1
_geom_bond_atom_site_label_2
_ccdc_geom_bond_type
O10   Zn2   S    
C13   O2    S    
C1    O6    A    
C16   O8    A    
C15   H9    S    
C16   C21   S    
C14   H5    S    
C4    C22   A    
C14   O3    S    
C7    H18   S    
C1    C4    S    
H13   N3    S    
C2    H12   S    
C10   N1    A    
C2    C3    A    
C11   H22   S    
C16   O10   A    
C15   O4    S    
C8    H19   S    
H15   N4    S    
C9    N1    A    
C19   O2    S    
C13   H3    S    
O5    Zn1   S    
C17   O11   A    
C18   O12   S    
C2    C22   A    
C19   C21   D    
N2    Zn2   S    
C9    N3    S    
C20   O3    S    
C18   C20   D    
C22   H1    S    
C10   N4    S    
C5    C6    A    
H11   N3    S    
C8    N2    A    
C13   H4    S    
C12   O7    A    
O1    Zn1   S    
C8    C10   A    
C14   H7    S    
C11   O12   S    
C7    N2    A    
C15   H10   S    
H14   N4    S    
C5    H16   S    
O7    Zn2   S    
C15   H8    S    
C4    C6    A    
C18   C19   S    
N1    Zn1   S    
O9    Zn1   S    
C7    C9    A    
O8    Zn1   S    
O11   Zn2   S    
C3    C12   S    
O6    Zn2   S    
C14   H6    S    
C6    H17   S    
C1    O1    A    
C17   C20   S    
C21   O4    S    
C11   H20   S    
C12   O5    A    
C13   H2    S    
C17   O9    A    
C3    C5    A    
C11   H21   S    
