data_mof_unit_55431.cif
_audit_creation_date              2012-12-10T17:48:45-0500
_audit_creation_method            fapswitch 2.2
_symmetry_space_group_name_H-M    P1
_symmetry_Int_Tables_number       1
_space_group_crystal_system       triclinic
_cell_length_a                    15.732025
_cell_length_b                    10.729355
_cell_length_c                    9.949647
_cell_angle_alpha                 88.437312
_cell_angle_beta                  89.463379
_cell_angle_gamma                 93.523039
_cell_volume                      1675.5455981

loop_
_atom_site_label
_atom_site_type_symbol
_atom_type_description
_atom_site_fract_x
_atom_site_fract_y
_atom_site_fract_z
_atom_type_partial_charge
C1    C     C_R   0.503858 0.259877 0.502774 0.885858
C2    C     C_R   0.457709 0.033232 0.872630 -0.170357
C3    C     C_R   0.415379 0.917727 0.854007 -0.153440
C4    C     C_R   0.338454 0.499668 0.500580 0.907747
C5    C     C_R   0.416544 0.865053 0.727730 -0.156795
C6    C     C_R   0.459714 0.928828 0.618032 0.091817
C7    C     C_R   0.486769 0.054507 0.630418 0.098184
C8    C     C_R   0.505980 0.125622 0.509617 -0.134408
C9    C     C_R   0.515076 0.066556 0.387116 -0.227220
C10   C     C_R   0.505376 0.939232 0.382256 -0.217782
C11   C     C_R   0.480251 0.869873 0.497773 -0.120190
C12   C     C_3   0.948034 0.459758 0.639856 -0.407107
C13   C     C_R   0.384786 0.341115 0.153744 -0.137215
C14   C     C_R   0.323191 0.264788 0.095651 -0.265468
C15   C     C_R   0.318875 0.261367 0.958784 -0.278365
C16   C     C_R   0.491891 0.738304 0.498825 0.860878
C17   C     C_R   0.377302 0.333175 0.876142 0.471950
C18   C     C_R   0.440844 0.419342 0.932928 0.083814
C19   C     C_R   0.442374 0.420895 0.077629 0.099913
C20   C     C_R   0.554823 0.575935 0.067973 -0.115387
C21   C     C_R   0.554875 0.575873 0.925310 -0.119916
C22   C     C_R   0.661572 0.500410 0.499380 0.900027
C23   C     C_3   0.917386 0.498130 0.498083 0.315250
C24   C     C_3   0.046140 0.459853 0.640714 -0.511609
C25   C     C_3   0.045983 0.402326 0.396375 0.302959
C26   C     C_3   0.947504 0.404102 0.395143 -0.442751
C27   C     C_1   0.750546 0.499572 0.498209 -0.189592
C28   C     C_3   0.082573 0.497566 0.499226 0.330086
C29   C     C_3   0.956933 0.630077 0.459559 -0.402263
C30   C     C_3   0.054996 0.629995 0.460860 -0.365098
C31   C     C_1   0.825902 0.498786 0.497820 -0.103810
C32   C     C_1   0.174119 0.498033 0.501156 -0.066252
C33   C     C_1   0.249492 0.498764 0.501595 -0.178459
C34   C     C_R   0.493603 0.101187 0.762434 -0.125772
H1    H     H_    0.920161 0.364953 0.669356 0.173084
H2    H     H_    0.519544 0.895210 0.288571 0.169767
H3    H     H_    0.599777 0.638321 0.118733 0.139884
H4    H     H_    0.065629 0.365285 0.671383 0.170821
H5    H     H_    0.384634 0.333705 0.259756 0.222090
H6    H     H_    0.279210 0.206021 0.157629 0.169817
H7    H     H_    0.270703 0.198004 0.916230 0.146076
H8    H     H_    0.599808 0.638162 0.869393 0.148377
H9    H     H_    0.063980 0.306964 0.428348 0.066348
H10   H     H_    0.918992 0.308718 0.420507 0.131231
H11   H     H_    0.925161 0.430115 0.292852 0.192753
H12   H     H_    0.071817 0.526404 0.716415 0.197389
H13   H     H_    0.080642 0.698646 0.534448 0.151224
H14   H     H_    0.081166 0.660516 0.360138 0.208285
H15   H     H_    0.935396 0.699446 0.531712 0.166441
H16   H     H_    0.326049 0.249956 0.720605 0.306806
H17   H     H_    0.067793 0.356882 0.212300 0.325496
H18   H     H_    0.926407 0.525866 0.715527 0.183113
H19   H     H_    0.935639 0.659277 0.357689 0.175820
H20   H     H_    0.531493 0.118541 0.294604 0.173273
H21   H     H_    0.529173 0.186978 0.784867 0.169620
H22   H     H_    0.461802 0.071183 0.972264 0.144581
H23   H     H_    0.384514 0.866848 0.938290 0.143759
H24   H     H_    0.383926 0.774171 0.716791 0.155100
N1    N     N_R   0.499210 0.498800 0.142780 -0.110762
N2    N     N_R   0.499180 0.498720 0.857170 -0.106280
O1    O     O_R   0.500000 0.316780 0.614690 -0.568353
O2    O     O_3   0.079824 0.431700 0.267208 -0.769370
O3    O     O_R   0.499990 0.316750 0.385360 -0.652276
O4    O     O_R   0.377150 0.500020 0.614720 -0.557848
O5    O     O_R   0.377140 0.499990 0.385380 -0.634859
O6    O     O_R   0.500010 0.683250 0.614640 -0.625658
O7    O     O_R   0.500000 0.683220 0.385310 -0.620538
O8    O     O_R   0.622860 0.500010 0.614620 -0.618880
O9    O     O_R   0.622850 0.499980 0.385280 -0.612548
O10   O     O_3   0.372731 0.312559 0.741924 -0.723146
Zn1   Zn    Zn3+2 0.500010 0.500020 0.653130 0.971422
Zn2   Zn    Zn3+2 0.499990 0.499980 0.346870 0.938714

loop_
_geom_bond_atom_site_label_1
_geom_bond_atom_site_label_2
_ccdc_geom_bond_type
C23   C26   S    
O9    Zn2   S    
C24   H4    S    
C23   C29   S    
C6    C7    A    
C1    C8    S    
C9    C10   A    
C4    O4    A    
C22   O9    A    
O6    Zn1   S    
N2    Zn1   S    
N1    Zn2   S    
C22   C27   S    
C24   H12   S    
C32   C33   T    
O1    Zn1   S    
C28   C30   S    
C2    C3    A    
H16   O10   S    
C3    C5    A    
C26   H10   S    
C34   H21   S    
C16   O7    A    
C29   H15   S    
C13   C14   A    
O3    Zn2   S    
C20   N1    A    
C20   H3    S    
C12   C23   S    
C25   H9    S    
C29   C30   S    
H17   O2    S    
C29   H19   S    
C5    H24   S    
O8    Zn1   S    
C1    O3    A    
C30   H14   S    
C12   H18   S    
C14   H6    S    
C10   H2    S    
C17   C18   A    
C25   O2    S    
C4    C33   S    
C5    C6    A    
C2    C34   A    
C7    C34   A    
C12   H1    S    
C13   H5    S    
C16   O6    A    
C10   C11   A    
C13   C19   A    
C27   C31   T    
C21   H8    S    
O5    Zn2   S    
C3    H23   S    
C30   H13   S    
C28   C32   S    
C20   C21   A    
C15   H7    S    
C21   N2    A    
O7    Zn2   S    
C11   C16   S    
O4    Zn1   S    
C18   N2    A    
C6    C11   A    
C15   C17   A    
C7    C8    A    
C12   C24   S    
C4    O5    A    
C18   C19   A    
C2    H22   S    
C9    H20   S    
C22   O8    A    
C26   H11   S    
C19   N1    A    
C25   C26   S    
C14   C15   A    
C17   O10   S    
C24   C28   S    
C23   C31   S    
C8    C9    A    
C25   C28   S    
C1    O1    A    
