data_mof_unit_11233.cif
_audit_creation_date              2012-12-11T14:50:49-0500
_audit_creation_method            fapswitch 2.2
_symmetry_space_group_name_H-M    P1
_symmetry_Int_Tables_number       1
_space_group_crystal_system       triclinic
_cell_length_a                    11.020013
_cell_length_b                    10.880978
_cell_length_c                    18.790898
_cell_angle_alpha                 90.111385
_cell_angle_beta                  89.762935
_cell_angle_gamma                 60.302152
_cell_volume                      1957.1952435

loop_
_atom_site_label
_atom_site_type_symbol
_atom_type_description
_atom_site_fract_x
_atom_site_fract_y
_atom_site_fract_z
_atom_type_partial_charge
C1    C     C_R   0.239356 0.645501 0.611180 0.596454
C2    C     C_R   0.562680 0.238604 0.797013 -0.126029
C3    C     C_R   0.543476 0.250873 0.724625 -0.053463
C4    C     C_R   0.654194 0.623489 0.600149 0.607896
C5    C     C_R   0.656648 0.189220 0.677548 0.003909
C6    C     C_R   0.205241 0.545851 0.724991 0.219235
C7    C     C_R   0.210073 0.542419 0.800293 0.225513
C8    C     C_R   0.199090 0.659901 0.838066 -0.060467
C9    C     C_R   0.216551 0.762551 0.801243 0.211157
C10   C     C_R   0.203304 0.771716 0.727151 0.229775
C11   C     C_R   0.205163 0.658953 0.688235 -0.018673
C12   C     C_3   0.681882 0.573444 0.802085 -0.278294
C13   C     C_R   0.779723 0.575022 0.285934 -0.146645
C14   C     C_R   0.785209 0.564908 0.212855 0.244878
C15   C     C_R   0.669233 0.665589 0.172058 0.054430
C16   C     C_R   0.626997 0.229413 0.603186 0.558911
C17   C     C_R   0.541547 0.757000 0.206976 0.162480
C18   C     C_R   0.535186 0.752179 0.280956 -0.087151
C19   C     C_R   0.654493 0.661826 0.320332 -0.038804
C20   C     C_R   0.589278 0.106561 0.292941 0.210181
C21   C     C_R   0.590923 0.091817 0.219759 -0.158399
C22   C     C_R   0.646931 0.155922 0.175826 -0.024953
C23   C     C_3   0.717533 0.694505 0.807360 0.092392
C24   C     C_R   0.699768 0.238761 0.204779 0.218255
C25   C     C_R   0.702527 0.249108 0.277984 -0.086439
C26   C     C_R   0.646288 0.184831 0.321890 0.024349
C27   C     C_R   0.077060 0.816085 0.310801 -0.050135
C28   C     C_R   0.218876 0.650338 0.402311 0.536205
C29   C     C_R   0.036994 0.841739 0.240792 0.227541
C30   C     C_R   0.050334 0.728759 0.196585 0.016978
C31   C     C_R   0.096929 0.594885 0.226806 -0.160076
C32   C     C_R   0.140504 0.570321 0.297222 -0.160465
C33   C     C_R   0.136923 0.680009 0.338014 -0.018873
C34   C     C_3   0.675313 0.655071 0.673923 -0.003759
C35   C     C_R   0.704099 0.101220 0.895999 0.570383
C36   C     C_R   0.749536 0.708661 0.882850 0.674185
C37   C     C_R   0.123403 0.703187 0.907018 0.582061
C38   C     C_R   0.673795 0.107737 0.103381 0.503429
C39   C     C_R   0.697587 0.688629 0.098215 0.528655
C40   C     C_R   0.642022 0.624853 0.392920 0.546666
C41   C     C_R   0.026783 0.747447 0.119447 0.532262
C42   C     C_R   0.616753 0.230730 0.394761 0.573837
C43   C     C_3   0.588327 0.834133 0.776517 0.423512
C44   C     C_3   0.555350 0.802932 0.699985 0.071427
C45   C     C_3   0.818400 0.649974 0.681413 -0.248092
C46   C     C_3   0.850523 0.657554 0.761815 0.390147
C47   C     C_3   0.676391 0.536209 0.722581 0.385772
C48   C     C_R   0.792290 0.114681 0.704158 -0.092178
C49   C     C_R   0.813217 0.101659 0.777871 0.223790
C50   C     C_R   0.695778 0.158192 0.824673 0.020191
Cr1   Cr    Cr6+3 0.392930 0.397900 0.502230 1.095214
Cr2   Cr    Cr6+3 0.398240 0.708600 0.501260 1.093176
Cr3   Cr    Cr6+3 0.708800 0.393470 0.496460 1.066213
Cr4   Cr    Cr6+3 0.937620 0.938540 0.007640 1.068961
Cr5   Cr    Cr6+3 0.625150 0.937450 0.994520 1.082429
Cr6   Cr    Cr6+3 0.937990 0.625080 0.001190 1.095894
H1    H     H_    0.186886 0.463589 0.317712 0.153945
H2    H     H_    0.199320 0.368929 0.717670 0.384236
H3    H     H_    0.254311 0.423051 0.883862 0.320392
H4    H     H_    0.292216 0.815228 0.880569 0.349306
H5    H     H_    0.396680 0.969175 0.803488 0.387064
H6    H     H_    0.184657 0.961450 0.725277 0.393338
H7    H     H_    0.871530 0.503629 0.316095 0.134819
H8    H     H_    0.968041 0.390859 0.217223 0.328679
H9    H     H_    0.426935 0.811615 0.122257 0.345985
H10   H     H_    0.435119 0.814928 0.307240 0.177549
H11   H     H_    0.476443 0.017196 0.307663 0.330773
H12   H     H_    0.670289 0.942767 0.734696 0.341720
H13   H     H_    0.553603 0.024802 0.197408 0.170713
H14   H     H_    0.719816 0.313790 0.114236 0.333942
H15   H     H_    0.741289 0.314984 0.300203 0.171782
H16   H     H_    0.071362 0.902334 0.342421 0.166884
H17   H     H_    0.458830 0.795519 0.703122 0.216283
H18   H     H_    0.935129 0.996125 0.177403 0.365845
H19   H     H_    0.110272 0.506344 0.194772 0.178043
H20   H     H_    0.605632 0.897427 0.624801 0.315551
H21   H     H_    0.945817 0.762475 0.733638 0.326365
H22   H     H_    0.817650 0.737545 0.650935 0.056784
H23   H     H_    0.803183 0.336400 0.741006 0.332360
H24   H     H_    0.758945 0.477951 0.831370 0.135447
H25   H     H_    0.581110 0.606402 0.829990 0.125051
H26   H     H_    0.477343 0.593692 0.734928 0.284326
H27   H     H_    0.957081 0.447699 0.765339 0.348001
H28   H     H_    0.903992 0.552159 0.656752 0.206061
H29   H     H_    0.881257 0.072340 0.668279 0.172433
H30   H     H_    0.952112 0.088655 0.843271 0.354630
H31   H     H_    0.472841 0.282240 0.831674 0.157213
H32   H     H_    0.439358 0.310698 0.705041 0.197840
O1    O     O_R   0.507430 0.255570 0.581420 -0.491482
O2    O     O_R   0.837200 0.593290 0.915250 -0.497718
O3    O     O_R   0.065330 0.635370 0.931590 -0.462674
O4    O     O_R   0.280190 0.527390 0.578910 -0.454718
O5    O     O_R   0.068300 0.828790 0.091860 -0.486577
O6    O     O_R   0.798730 0.057480 0.079370 -0.534671
O7    O     O_R   0.584680 0.080480 0.076790 -0.509840
O8    O     O_R   0.626790 0.809640 0.067050 -0.517338
O9    O     O_R   0.816010 0.596460 0.076500 -0.445166
O10   O     O_R   0.045680 0.638310 0.081070 -0.502234
O11   O     O_3   0.833590 0.833690 0.001120 -0.312551
O12   O     O_R   0.524460 0.695920 0.424060 -0.501912
O13   O     O_R   0.260310 0.739740 0.584580 -0.451956
O14   O     O_R   0.532250 0.695150 0.573830 -0.467216
O15   O     O_R   0.744930 0.503430 0.576380 -0.454902
O16   O     O_R   0.699250 0.276390 0.571950 -0.462917
O17   O     O_R   0.499020 0.256400 0.419850 -0.455913
O18   O     O_R   0.272400 0.528160 0.429140 -0.509397
O19   O     O_R   0.251910 0.740570 0.423020 -0.529299
O20   O     O_3   0.616233 0.947127 0.777648 -0.622068
O21   O     O_3   0.795867 0.406525 0.705602 -0.656619
O22   O     O_3   0.962831 0.528582 0.785162 -0.599801
O23   O     O_R   0.736530 0.504260 0.414810 -0.534316
O24   O     O_3   0.948287 0.034451 0.801793 -0.641906
O25   O     O_3   0.193823 0.443968 0.685940 -0.678164
O26   O     O_3   0.217748 0.427186 0.835304 -0.662276
O27   O     O_3   0.237975 0.860835 0.837009 -0.658171
O28   O     O_3   0.469584 0.873635 0.819135 -0.664866
O29   O     O_3   0.191646 0.888440 0.691415 -0.649320
O30   O     O_3   0.903667 0.456423 0.180824 -0.626711
O31   O     O_3   0.420591 0.847472 0.171373 -0.669437
O32   O     O_3   0.531914 0.046957 0.336946 -0.675450
O33   O     O_3   0.751195 0.308274 0.164007 -0.646201
O34   O     O_R   0.691460 0.277160 0.422180 -0.536924
O35   O     O_3   0.997952 0.975700 0.217477 -0.661439
O36   O     O_3   0.521860 0.916100 0.652699 -0.672628
O37   O     O_3   0.887624 0.762651 0.773796 -0.659532
O38   O     O_3   0.559248 0.519844 0.709059 -0.687505
O39   O     O_3   0.499990 0.499990 0.499980 -0.282333
O40   O     O_R   0.089490 0.825610 0.930610 -0.469048
O41   O     O_R   0.818370 0.054540 0.929880 -0.499993
O42   O     O_R   0.605870 0.077310 0.915530 -0.470224
O43   O     O_R   0.646440 0.806700 0.917570 -0.445800

loop_
_geom_bond_atom_site_label_1
_geom_bond_atom_site_label_2
_ccdc_geom_bond_type
H23   O21   S    
C27   C29   A    
C46   O37   S    
C1    C11   S    
Cr6   O10   S    
C23   C43   S    
C7    C8    A    
C45   C46   S    
C27   C33   A    
C12   C23   S    
Cr2   O14   S    
Cr6   O9    S    
C7    O26   S    
Cr3   O34   S    
H3    O26   S    
C30   C31   A    
Cr1   O4    S    
C39   O9    A    
C28   O19   A    
C22   C38   S    
C4    O15   A    
C12   H24   S    
H8    O30   S    
C18   C19   A    
H26   O38   S    
H6    O29   S    
Cr3   O39   S    
C16   O16   A    
Cr6   O3    S    
C41   O5    A    
Cr2   O19   S    
C28   O18   A    
C8    C9    A    
C14   O30   S    
C4    O14   A    
C38   O7    A    
H2    O25   S    
C30   C41   S    
C45   H22   S    
C25   H15   S    
C2    C50   A    
H11   O32   S    
C35   O41   A    
C37   O40   A    
Cr3   O23   S    
Cr6   O2    S    
H18   O35   S    
C16   O1    A    
C23   C46   S    
C13   C14   A    
C32   H1    S    
C35   C50   S    
C12   C47   S    
Cr2   O39   S    
C40   O23   A    
C5    C48   A    
C4    C34   S    
Cr2   O13   S    
C13   C19   A    
C9    O27   S    
C34   C44   S    
C24   C25   A    
Cr5   O7    S    
C10   C11   A    
C36   O43   A    
C6    C11   A    
C37   O3    A    
C25   C26   A    
C47   O21   S    
Cr4   O40   S    
Cr2   O12   S    
C21   H13   S    
H20   O36   S    
H30   O24   S    
C43   C44   S    
C6    O25   S    
C29   C30   A    
C43   O28   S    
C31   H19   S    
C31   C32   A    
C13   H7    S    
Cr1   O17   S    
Cr5   O42   S    
C38   O6    A    
H5    O28   S    
C17   C18   A    
H9    O31   S    
H27   O22   S    
C2    H31   S    
C34   C45   S    
C35   O42   A    
C15   C39   S    
C49   O24   S    
C48   C49   A    
C28   C33   S    
C23   C36   S    
C1    O4    A    
Cr5   O43   S    
C46   O22   S    
C22   C24   A    
Cr4   O11   S    
C45   H28   S    
C8    C37   S    
C1    O13   A    
C20   O32   S    
H21   O37   S    
C42   O34   A    
C47   O38   S    
C9    C10   A    
C36   O2    A    
C15   C17   A    
Cr4   O41   S    
C3    H32   S    
C48   H29   S    
Cr5   O8    S    
C3    C5    A    
C40   O12   A    
C6    C7    A    
C18   H10   S    
H12   O20   S    
Cr4   O5    S    
Cr1   O39   S    
C32   C33   A    
C2    C3    A    
C5    C16   S    
C10   O29   S    
Cr1   O1    S    
H14   O33   S    
C20   C26   A    
Cr3   O15   S    
Cr1   O18   S    
C29   O35   S    
C24   O33   S    
C44   O36   S    
C12   H25   S    
C43   O20   S    
C26   C42   S    
C44   H17   S    
C42   O17   A    
C39   O8    A    
Cr4   O6    S    
C19   C40   S    
C17   O31   S    
C20   C21   A    
C49   C50   A    
Cr5   O11   S    
C14   C15   A    
H4    O27   S    
C34   C47   S    
Cr3   O16   S    
Cr6   O11   S    
C21   C22   A    
C41   O10   A    
C27   H16   S    
