data_mof_unit_66259.cif
_audit_creation_date              2012-12-10T18:10:00-0500
_audit_creation_method            fapswitch 2.2
_symmetry_space_group_name_H-M    P1
_symmetry_Int_Tables_number       1
_space_group_crystal_system       triclinic
_cell_length_a                    18.379746
_cell_length_b                    18.380397
_cell_length_c                    31.991849
_cell_angle_alpha                 89.999823
_cell_angle_beta                  90.008185
_cell_angle_gamma                 89.999464
_cell_volume                      10807.7111647

loop_
_atom_site_label
_atom_site_type_symbol
_atom_type_description
_atom_site_fract_x
_atom_site_fract_y
_atom_site_fract_z
_atom_type_partial_charge
C1    C     C_R   0.639860 0.500018 0.999998 0.841697
C2    C     C_R   0.360140 0.500019 0.000002 0.841687
C3    C     C_R   0.139860 0.000018 0.499997 0.841689
C4    C     C_R   0.860140 0.000019 0.500003 0.841676
C5    C     C_3   0.512553 0.568892 0.736252 -0.269223
C6    C     C_3   0.487972 0.568991 0.263747 -0.269218
C7    C     C_3   0.009352 0.069426 0.236254 -0.269217
C8    C     C_3   0.991281 0.069512 0.763745 -0.269217
C9    C     C_1   0.499837 0.500133 0.837188 -0.026932
C10   C     C_1   0.500167 0.500133 0.162813 -0.026935
C11   C     C_1   0.999811 0.000136 0.337186 -0.026947
C12   C     C_1   0.000194 0.000135 0.662814 -0.026949
C13   C     C_1   0.500009 0.500560 0.662819 0.036664
C14   C     C_1   0.499992 0.500562 0.337181 0.036668
C15   C     C_1   0.999999 0.000577 0.162818 0.036686
C16   C     C_1   0.000003 0.000579 0.837182 0.036691
C17   C     C_1   0.717322 0.500048 0.999994 -0.174885
C18   C     C_1   0.282678 0.500049 0.000006 -0.174903
C19   C     C_1   0.217322 0.000048 0.499993 -0.174906
C20   C     C_1   0.782678 0.000049 0.500007 -0.174926
C21   C     C_1   0.782564 0.500038 0.999993 -0.173545
C22   C     C_1   0.217436 0.500039 0.000007 -0.173562
C23   C     C_1   0.282564 0.000038 0.499993 -0.173555
C24   C     C_1   0.717436 0.000039 0.500007 -0.173575
C25   C     C_R   0.500000 0.360017 0.500000 0.846353
C26   C     C_R   0.000000 0.860017 1.000000 0.846323
C27   C     C_R   0.500004 0.499892 0.580231 0.816240
C28   C     C_R   0.499996 0.499892 0.419769 0.816233
C29   C     C_R   0.000004 0.999894 0.080231 0.816190
C30   C     C_R   0.999996 0.999894 0.919769 0.816183
C31   C     C_R   0.500000 0.639714 0.500000 0.838158
C32   C     C_R   1.000000 0.139714 0.000000 0.838094
C33   C     C_R   0.000000 0.639932 1.000000 0.846055
C34   C     C_R   0.500000 0.139932 0.500000 0.846042
C35   C     C_R   0.860026 0.500012 0.999997 0.845705
C36   C     C_R   0.139974 0.500013 0.000003 0.845701
C37   C     C_R   0.360026 0.000013 0.499997 0.845684
C38   C     C_R   0.639973 0.000013 0.500003 0.845680
C39   C     C_R   0.499970 0.500008 0.919770 0.820251
C40   C     C_R   0.500030 0.500008 0.080230 0.820247
C41   C     C_R   0.999967 0.000008 0.419770 0.820233
C42   C     C_R   0.000033 0.000008 0.580230 0.820230
C43   C     C_R   1.000000 0.360010 0.000000 0.844748
C44   C     C_R   0.500000 0.860010 0.500000 0.844716
C45   C     C_1   0.500001 0.282586 0.500000 -0.166822
C46   C     C_1   0.000001 0.782586 1.000000 -0.166873
C47   C     C_1   0.000001 0.717364 1.000000 -0.169016
C48   C     C_1   0.500001 0.217364 0.500000 -0.168941
C49   C     C_1   0.499999 0.717227 0.500000 -0.172367
C50   C     C_1   0.999999 0.217227 0.000000 -0.172367
C51   C     C_1   0.999999 0.282498 0.000000 -0.173336
C52   C     C_1   0.499999 0.782498 0.500000 -0.173343
C53   C     C_3   0.551367 0.456830 0.736511 0.469091
C54   C     C_3   0.563630 0.477649 0.263546 0.473038
C55   C     C_3   0.436199 0.478132 0.736457 0.473038
C56   C     C_3   0.448305 0.457229 0.263489 0.469094
C57   C     C_3   0.053310 0.959280 0.236514 0.469093
C58   C     C_3   0.062483 0.974661 0.763556 0.473041
C59   C     C_3   0.937287 0.975228 0.236446 0.473036
C60   C     C_3   0.946322 0.959772 0.763486 0.469093
C61   C     C_3   0.565326 0.524053 0.764250 -0.206533
C62   C     C_3   0.553142 0.545485 0.235809 -0.210101
C63   C     C_3   0.447208 0.545887 0.764192 -0.210108
C64   C     C_3   0.434861 0.524556 0.235749 -0.206540
C65   C     C_3   0.064133 0.027074 0.264257 -0.206556
C66   C     C_3   0.055263 0.042916 0.735815 -0.210090
C67   C     C_3   0.945132 0.043416 0.264186 -0.210089
C68   C     C_3   0.936118 0.027662 0.735742 -0.206553
C69   C     C_1   0.499894 0.500039 0.874883 -0.175149
C70   C     C_1   0.500109 0.500039 0.125117 -0.175151
C71   C     C_1   0.999878 0.000040 0.374882 -0.175160
C72   C     C_1   0.000125 0.000039 0.625118 -0.175161
C73   C     C_1   0.500009 0.500193 0.625121 -0.150397
C74   C     C_1   0.499991 0.500193 0.374879 -0.150391
C75   C     C_1   0.000008 0.000201 0.125120 -0.150364
C76   C     C_1   0.999992 0.000202 0.874880 -0.150358
C77   C     C_3   0.487149 0.431704 0.763989 -0.340590
C78   C     C_3   0.512330 0.431612 0.236012 -0.340586
C79   C     C_3   0.990318 0.931204 0.263984 -0.340587
C80   C     C_3   0.009057 0.931122 0.736018 -0.340587
C81   C     C_3   0.499821 0.500237 0.791351 0.062244
C82   C     C_3   0.500184 0.500238 0.208649 0.062242
C83   C     C_3   0.999792 0.000246 0.291350 0.062251
C84   C     C_3   0.000214 0.000247 0.708650 0.062248
C85   C     C_3   0.500013 0.501091 0.708696 0.072049
C86   C     C_3   0.499992 0.501096 0.291305 0.072036
C87   C     C_3   0.999977 0.001119 0.208694 0.071996
C88   C     C_3   0.000031 0.001123 0.791306 0.071988
Cu1   Cu    Cu3+1 0.500000 0.427500 0.000000 0.962522
Cu2   Cu    Cu3+1 0.000000 0.927500 0.500000 0.962523
Cu3   Cu    Cu3+1 0.500000 0.572500 0.000000 0.969724
Cu4   Cu    Cu3+1 0.000000 0.072500 0.500000 0.969695
Cu5   Cu    Cu3+1 0.572520 0.499840 0.500000 0.977772
Cu6   Cu    Cu3+1 0.427480 0.499840 0.500000 0.977832
Cu7   Cu    Cu3+1 0.072520 0.999840 0.000000 0.977844
Cu8   Cu    Cu3+1 0.927480 0.999840 0.000000 0.977916
Cu9   Cu    Cu3+1 0.000000 0.500000 0.958560 0.963514
Cu10  Cu    Cu3+1 0.000000 0.500000 0.041440 0.963531
Cu11  Cu    Cu3+1 0.500000 0.000000 0.458560 0.963608
Cu12  Cu    Cu3+1 0.500000 1.000000 0.541440 0.963628
H1    H     H_    0.618758 0.542609 0.776379 0.139462
H2    H     H_    0.597190 0.581244 0.223917 0.142541
H3    H     H_    0.403435 0.581984 0.776084 0.142570
H4    H     H_    0.381575 0.543523 0.223616 0.139459
H5    H     H_    0.116636 0.048093 0.276401 0.139462
H6    H     H_    0.100974 0.076524 0.723923 0.142412
H7    H     H_    0.899730 0.077441 0.276078 0.142431
H8    H     H_    0.883811 0.049161 0.723595 0.139465
H9    H     H_    0.522869 0.624716 0.724417 0.164493
H10   H     H_    0.478081 0.624891 0.275584 0.164521
H11   H     H_    0.017083 0.125663 0.224414 0.164635
H12   H     H_    0.984061 0.125817 0.775587 0.164655
H13   H     H_    0.477524 0.375709 0.775705 0.138943
H14   H     H_    0.521529 0.375543 0.224296 0.138939
H15   H     H_    0.983279 0.874820 0.275699 0.138946
H16   H     H_    0.015584 0.874675 0.724302 0.138945
O1    O     O_R   0.605840 0.438770 0.000000 -0.582851
O2    O     O_R   0.394160 0.438770 0.000000 -0.582850
O3    O     O_R   0.105840 0.938770 0.500000 -0.582853
O4    O     O_R   0.894160 0.938770 0.500000 -0.582851
O5    O     O_R   1.000000 0.394210 0.965010 -0.584428
O6    O     O_R   0.000000 0.394210 0.034990 -0.584428
O7    O     O_R   0.500000 0.894210 0.465010 -0.584428
O8    O     O_R   0.500000 0.894210 0.534990 -0.584428
O9    O     O_R   0.605760 0.561230 0.000000 -0.580961
O10   O     O_R   0.394240 0.561230 0.000000 -0.580968
O11   O     O_R   0.105760 0.061230 0.500000 -0.580964
O12   O     O_R   0.894240 0.061230 0.500000 -0.580974
O13   O     O_R   0.500000 0.438780 0.939540 -0.582599
O14   O     O_R   0.500000 0.438780 0.060460 -0.582599
O15   O     O_R   1.000000 0.938780 0.439540 -0.582596
O16   O     O_R   0.000000 0.938780 0.560460 -0.582596
O17   O     O_R   0.500000 0.561230 0.939540 -0.578864
O18   O     O_R   0.500000 0.561230 0.060460 -0.578860
O19   O     O_R   1.000000 0.061230 0.439540 -0.578849
O20   O     O_R   1.000000 0.061230 0.560460 -0.578845
O21   O     O_R   0.561200 0.394070 0.500000 -0.580395
O22   O     O_R   0.438800 0.394070 0.500000 -0.580395
O23   O     O_R   0.061200 0.894070 0.000000 -0.580360
O24   O     O_R   0.938800 0.894070 0.000000 -0.580364
O25   O     O_R   0.561230 0.499860 0.560460 -0.579066
O26   O     O_R   0.561230 0.499860 0.439540 -0.576248
O27   O     O_R   0.438770 0.499860 0.560460 -0.576213
O28   O     O_R   0.438770 0.499860 0.439540 -0.579020
O29   O     O_R   0.061230 0.999860 0.060460 -0.578777
O30   O     O_R   0.061230 0.999860 0.939540 -0.576479
O31   O     O_R   0.938770 0.999860 0.060460 -0.576435
O32   O     O_R   0.938770 0.999860 0.939540 -0.578722
O33   O     O_R   0.561270 0.605640 0.500000 -0.582535
O34   O     O_R   0.438730 0.605640 0.500000 -0.582517
O35   O     O_R   0.061270 0.105640 0.000000 -0.582553
O36   O     O_R   0.938730 0.105640 0.000000 -0.582532
O37   O     O_R   1.000000 0.605780 0.965000 -0.583078
O38   O     O_R   1.000000 0.605780 0.035000 -0.583063
O39   O     O_R   0.500000 0.105780 0.465000 -0.583033
O40   O     O_R   0.500000 0.105780 0.535000 -0.583019
O41   O     O_R   0.894200 0.500000 0.965010 -0.584010
O42   O     O_R   0.894200 0.500000 0.034990 -0.584866
O43   O     O_R   0.105800 0.500000 0.965010 -0.584873
O44   O     O_R   0.105800 0.500000 0.034990 -0.584013
O45   O     O_R   0.394200 0.000000 0.465010 -0.584061
O46   O     O_R   0.394200 0.000000 0.534990 -0.584805
O47   O     O_R   0.605800 0.000000 0.465010 -0.584814
O48   O     O_R   0.605800 0.000000 0.534990 -0.584065
O49   O     O_3   0.605059 0.410750 0.719408 -0.605869
C89   C     C_3   0.647722 0.378978 0.751391 0.058291
H17   H     H_    0.649111 0.319306 0.745904 0.164659
H18   H     H_    0.625984 0.387004 0.783664 0.130212
C90   C     C_3   0.725375 0.408562 0.748918 -0.335931
H19   H     H_    0.748332 0.396872 0.717481 0.232605
H20   H     H_    0.724678 0.468479 0.753433 0.212387
C91   C     C_3   0.774112 0.374247 0.782130 -0.917763
H21   H     H_    0.753033 0.386635 0.813887 0.258454
H22   H     H_    0.830016 0.396642 0.779377 0.258878
H23   H     H_    0.776592 0.314324 0.777830 0.256260
O50   O     O_3   0.630587 0.454885 0.280712 -0.605423
C92   C     C_3   0.678612 0.431372 0.248897 0.058599
H24   H     H_    0.731740 0.458848 0.253922 0.163569
H25   H     H_    0.660931 0.445577 0.216505 0.128841
C93   C     C_3   0.689792 0.349127 0.252368 -0.332471
H26   H     H_    0.711407 0.335768 0.283903 0.232027
H27   H     H_    0.636807 0.320890 0.248422 0.215371
C94   C     C_3   0.742849 0.321464 0.219305 -0.917339
H28   H     H_    0.721502 0.332813 0.187476 0.258776
H29   H     H_    0.749974 0.261781 0.222804 0.259617
H30   H     H_    0.796700 0.348119 0.223056 0.256577
O51   O     O_3   0.369067 0.455881 0.719293 -0.605413
C95   C     C_3   0.320862 0.432739 0.751109 0.058578
H31   H     H_    0.267941 0.460612 0.746079 0.163539
H32   H     H_    0.338645 0.446822 0.783500 0.128839
C96   C     C_3   0.309059 0.350579 0.747646 -0.332387
H33   H     H_    0.287336 0.337374 0.716113 0.232027
H34   H     H_    0.361829 0.321943 0.751591 0.215373
C97   C     C_3   0.255802 0.323324 0.780716 -0.917395
H35   H     H_    0.277240 0.334519 0.812542 0.258764
H36   H     H_    0.248229 0.263695 0.777223 0.259601
H37   H     H_    0.202151 0.350379 0.776966 0.256567
O52   O     O_3   0.394265 0.411559 0.280591 -0.605861
C98   C     C_3   0.351364 0.380122 0.248605 0.058302
H38   H     H_    0.349511 0.320463 0.254091 0.164662
H39   H     H_    0.373171 0.387978 0.216333 0.130204
C99   C     C_3   0.273945 0.410312 0.251073 -0.335947
H40   H     H_    0.250891 0.398793 0.282507 0.232607
H41   H     H_    0.275112 0.470224 0.246563 0.212370
C100  C     C_3   0.224956 0.376388 0.217852 -0.917758
H42   H     H_    0.246142 0.388623 0.186100 0.258448
H43   H     H_    0.169227 0.399216 0.220602 0.258879
H44   H     H_    0.222013 0.316485 0.222146 0.256267
O53   O     O_3   0.109074 0.915725 0.219420 -0.605802
C101  C     C_3   0.153163 0.886012 0.251416 0.058387
H45   H     H_    0.157377 0.826473 0.245932 0.164673
H46   H     H_    0.131038 0.893000 0.283683 0.130155
C102  C     C_3   0.229322 0.919245 0.248963 -0.336068
H47   H     H_    0.252851 0.908598 0.217543 0.232587
H48   H     H_    0.225779 0.979071 0.253439 0.212296
C103  C     C_3   0.279567 0.887335 0.282222 -0.917692
H49   H     H_    0.257876 0.898787 0.313958 0.258430
H50   H     H_    0.334355 0.912335 0.279478 0.258860
H51   H     H_    0.284867 0.827585 0.277967 0.256294
O54   O     O_3   0.128262 0.948727 0.780736 -0.605462
C104  C     C_3   0.175111 0.922925 0.748931 0.058762
H52   H     H_    0.229470 0.947890 0.753930 0.163706
H53   H     H_    0.158099 0.937872 0.716530 0.128855
C105  C     C_3   0.182406 0.840257 0.752458 -0.332943
H54   H     H_    0.203324 0.825962 0.784013 0.232011
H55   H     H_    0.128156 0.814535 0.748502 0.215364
C106  C     C_3   0.234155 0.810077 0.719439 -0.916999
H56   H     H_    0.213404 0.822351 0.687593 0.258842
H57   H     H_    0.238474 0.750134 0.722980 0.259650
H58   H     H_    0.289188 0.834193 0.723200 0.256638
O55   O     O_3   0.871272 0.949896 0.219268 -0.605454
C107  C     C_3   0.824190 0.924526 0.251075 0.058735
H59   H     H_    0.770057 0.949975 0.246072 0.163683
H60   H     H_    0.841333 0.939331 0.283475 0.128851
C108  C     C_3   0.816153 0.841924 0.247558 -0.332856
H61   H     H_    0.795098 0.827807 0.216007 0.232014
H62   H     H_    0.870171 0.815717 0.251511 0.215366
C109  C     C_3   0.764145 0.812218 0.280585 -0.917061
H63   H     H_    0.785013 0.824316 0.312428 0.258830
H64   H     H_    0.759290 0.752315 0.277051 0.259649
H65   H     H_    0.709329 0.836825 0.276827 0.256626
O56   O     O_3   0.890163 0.916727 0.780578 -0.605788
C110  C     C_3   0.845807 0.887425 0.748580 0.058407
H66   H     H_    0.841039 0.827929 0.754064 0.164676
H67   H     H_    0.868002 0.894206 0.716314 0.130143
C111  C     C_3   0.769961 0.921367 0.751028 -0.336100
H68   H     H_    0.746326 0.910931 0.782444 0.232582
H69   H     H_    0.774061 0.981159 0.746558 0.212279
C112  C     C_3   0.719433 0.889935 0.717761 -0.917674
H70   H     H_    0.741239 0.901196 0.686028 0.258427
H71   H     H_    0.664878 0.915441 0.720503 0.258856
H72   H     H_    0.713581 0.830236 0.722009 0.256299

loop_
_geom_bond_atom_site_label_1
_geom_bond_atom_site_label_2
_ccdc_geom_bond_type
C15   C75   T    
Cu4   O11   S    
C111  H69   S    
C8    C66   S    
Cu5   Cu6   S    
Cu3   O10   S    
C79   H15   S    
C2    C18   S    
C6    H10   S    
C90   H19   S    
C57   C79   S    
Cu5   O33   S    
Cu7   Cu8   S    
Cu7   O29   S    
C103  H51   S    
C16   C88   S    
C80   C84   S    
C59   O55   S    
C105  H54   S    
C35   O41   A    
Cu9   Cu10  S    
C60   C88   S    
Cu1   O13   S    
C78   H14   S    
C100  H42   S    
C91   H21   S    
C67   C83   S    
C102  C103  S    
C109  H65   S    
C5    C63   S    
C112  H70   S    
O49   C89   S    
C40   C70   S    
C22   C36   S    
C63   C81   S    
C95   C96   S    
Cu6   O27   S    
C14   C74   T    
C95   H32   S    
C1    O9    A    
C104  C105  S    
C26   O24   A    
Cu2   O4    S    
C8    H12   S    
C101  H45   S    
C29   O29   A    
C66   C84   S    
C31   O33   A    
C33   O38   A    
C11   C71   T    
C65   C83   S    
C97   H37   S    
C25   C45   S    
C6    C64   S    
C34   O39   A    
Cu8   O36   S    
C32   O35   A    
C56   C78   S    
C12   C84   S    
C27   O25   A    
C42   O20   A    
C54   O50   S    
C105  H55   S    
C3    O11   A    
Cu9   O5    S    
C36   O43   A    
C59   C67   S    
Cu11  O45   S    
Cu7   O35   S    
C56   C86   S    
C58   C66   S    
C110  H66   S    
C7    C87   S    
Cu10  O42   S    
C91   H22   S    
C110  H67   S    
C99   C100  S    
C55   C63   S    
C66   H6    S    
C98   C99   S    
C27   O27   A    
C108  H61   S    
C56   C64   S    
C3    C19   S    
O52   C98   S    
C28   O28   A    
Cu9   O37   S    
Cu1   Cu3   S    
C25   O21   A    
C43   O5    A    
C56   O52   S    
C93   C94   S    
C58   C80   S    
C41   C71   S    
C5    C85   S    
C44   C52   S    
C38   O48   A    
C97   H35   S    
C12   C72   T    
C28   C74   S    
C98   H38   S    
C16   C76   T    
C89   H18   S    
C53   C85   S    
C108  H62   S    
Cu4   O20   S    
Cu7   O30   S    
C58   O54   S    
C31   C49   S    
C77   H13   S    
Cu4   O12   S    
C65   H5    S    
O54   C104  S    
C93   H27   S    
C30   O30   A    
C109  H64   S    
C102  H48   S    
C2    O2    A    
Cu2   Cu4   S    
Cu8   O32   S    
C57   O53   S    
C112  H71   S    
C99   H40   S    
C4    O12   A    
C96   H33   S    
C68   C84   S    
C20   C24   T    
C3    O3    A    
C103  H49   S    
C14   C86   S    
O53   C101  S    
C26   O23   A    
C109  H63   S    
C94   H30   S    
C59   C79   S    
C54   C86   S    
C31   O34   A    
C36   O44   A    
C111  H68   S    
C54   C62   S    
C92   H25   S    
C102  H47   S    
C40   O18   A    
C10   C82   S    
C107  C108  S    
C17   C21   T    
Cu1   O14   S    
C57   C87   S    
Cu11  O39   S    
C95   H31   S    
C8    C88   S    
Cu6   O22   S    
Cu9   O41   S    
C61   C81   S    
C55   C85   S    
C19   C23   T    
C94   H28   S    
C96   H34   S    
Cu8   O24   S    
C104  H52   S    
C110  C111  S    
C7    C65   S    
C94   H29   S    
C30   C76   S    
C78   C82   S    
C24   C38   S    
C106  H56   S    
C32   O36   A    
C77   C81   S    
C92   C93   S    
C32   C50   S    
C60   O56   S    
C61   H1    S    
C107  H60   S    
C97   H36   S    
C39   C69   S    
C5    C61   S    
C50   C51   T    
C1    O1    A    
C30   O32   A    
C43   O6    A    
C64   C82   S    
C99   H41   S    
Cu3   O17   S    
Cu11  O47   S    
Cu2   O15   S    
C2    O10   A    
C67   H7    S    
C63   H3    S    
C38   O47   A    
C106  H57   S    
Cu10  O44   S    
Cu1   O1    S    
C101  H46   S    
C53   C77   S    
C33   C47   S    
C108  C109  S    
C54   C78   S    
Cu4   O19   S    
C28   O26   A    
C37   O45   A    
C53   C61   S    
C105  C106  S    
Cu9   O43   S    
C41   O19   A    
Cu5   O25   S    
C93   H26   S    
Cu11  O7    S    
C90   H20   S    
C45   C48   T    
C53   O49   S    
Cu10  O6    S    
Cu8   O31   S    
C40   O14   A    
C46   C47   T    
C60   C80   S    
C112  H72   S    
Cu3   O9    S    
O56   C110  S    
C18   C22   T    
C1    C17   S    
C10   C70   T    
C64   H4    S    
C49   C52   T    
C13   C73   T    
C39   O13   A    
Cu12  O48   S    
C29   O31   A    
Cu12  O46   S    
C55   O51   S    
C91   H23   S    
C8    C68   S    
C29   C75   S    
C34   O40   A    
Cu6   O34   S    
C101  C102  S    
C39   O17   A    
C44   O7    A    
Cu7   O23   S    
Cu2   O16   S    
C6    C86   S    
Cu11  Cu12  S    
C11   C83   S    
Cu2   O3    S    
C6    C62   S    
O50   C92   S    
C21   C35   S    
C41   O15   A    
C35   O42   A    
Cu6   O28   S    
O51   C95   S    
C104  H53   S    
C23   C37   S    
C79   C83   S    
Cu10  O38   S    
C9    C69   T    
Cu12  O40   S    
C89   H17   S    
Cu3   O18   S    
C5    H9    S    
C43   C51   S    
C55   C77   S    
C107  H59   S    
C90   C91   S    
C7    H11   S    
C25   O22   A    
C33   O37   A    
C57   C65   S    
C62   C82   S    
C59   C87   S    
C96   C97   S    
Cu5   O21   S    
C26   C46   S    
C7    C67   S    
C4    C20   S    
C106  H58   S    
C34   C48   S    
Cu1   O2    S    
C60   C68   S    
C89   C90   S    
C92   H24   S    
C15   C87   S    
C13   C85   S    
O55   C107  S    
C98   H39   S    
C44   O8    A    
C4    O4    A    
C42   O16   A    
C100  H44   S    
C68   H8    S    
C80   H16   S    
Cu12  O8    S    
C42   C72   S    
C27   C73   S    
C100  H43   S    
C58   C88   S    
Cu5   O26   S    
C103  H50   S    
C9    C81   S    
C37   O46   A    
C62   H2    S    
C111  C112  S    
