data_mof_unit_23813.cif
_audit_creation_date              2012-12-11T17:45:15-0500
_audit_creation_method            fapswitch 2.2
_symmetry_space_group_name_H-M    P1
_symmetry_Int_Tables_number       1
_space_group_crystal_system       triclinic
_cell_length_a                    15.036013
_cell_length_b                    15.046712
_cell_length_c                    15.194448
_cell_angle_alpha                 110.968523
_cell_angle_beta                  108.684128
_cell_angle_gamma                 109.088247
_cell_volume                      2634.64988294

loop_
_atom_site_label
_atom_site_type_symbol
_atom_type_description
_atom_site_fract_x
_atom_site_fract_y
_atom_site_fract_z
_atom_type_partial_charge
C1    C     C_R   0.918531 0.200855 0.003899 -0.129180
C2    C     C_R   0.704381 0.195835 0.793727 -0.130411
C3    C     C_R   0.774611 0.588686 0.057751 -0.150640
C4    C     C_R   0.313723 0.752918 0.224392 -0.053544
C5    C     C_R   0.987903 0.405886 0.693494 -0.150581
C6    C     C_R   0.672908 0.494965 0.988114 0.008800
C7    C     C_R   0.036765 0.496647 0.687344 0.047733
C8    C     C_R   0.700735 0.132124 0.699397 0.065627
C9    C     C_R   0.955171 0.781562 0.957086 0.034299
C10   C     C_R   0.596165 0.290993 0.176203 -0.236565
C11   C     C_R   0.697188 0.373006 0.269034 0.003944
C12   C     C_R   0.321027 0.778234 0.325153 -0.003595
C13   C     C_R   0.773097 0.342450 0.312101 0.086882
C14   C     C_R   0.743734 0.230748 0.263310 -0.218688
C15   C     C_R   0.642787 0.150749 0.171408 -0.096718
C16   C     C_R   0.203949 0.406789 0.898239 -0.137913
C17   C     C_R   0.569371 0.180917 0.127566 -0.058669
C18   C     C_R   0.914286 0.419502 0.499100 -0.223967
C19   C     C_R   0.018621 0.495248 0.588909 0.063871
C20   C     C_R   0.094781 0.577723 0.586967 0.010605
C21   C     C_R   0.064639 0.582129 0.494106 -0.230459
C22   C     C_R   0.961532 0.505295 0.403792 0.130933
C23   C     C_R   0.290530 0.495849 0.918311 -0.147004
C24   C     C_R   0.884194 0.424099 0.405810 0.079463
C25   C     C_R   0.240289 0.766974 0.740566 -0.180265
C26   C     C_R   0.349858 0.844976 0.812907 -0.075247
C27   C     C_R   0.428312 0.813730 0.817817 -0.127081
C28   C     C_R   0.997754 0.591692 0.299680 -0.151994
C29   C     C_R   0.397033 0.703948 0.752191 -0.136840
C30   C     C_R   0.287261 0.625065 0.682086 -0.146088
C31   C     C_R   0.208202 0.656273 0.675294 0.101893
C32   C     C_R   0.193456 0.985205 0.476953 -0.111218
C33   C     C_R   0.284684 0.979025 0.478411 -0.113261
C34   C     C_R   0.947254 0.501111 0.304985 0.053886
C35   C     C_R   0.322953 0.924125 0.524695 0.103078
C36   C     C_R   0.271368 0.879094 0.572773 -0.206151
C37   C     C_R   0.179247 0.884103 0.569692 -0.141547
C38   C     C_R   0.140403 0.937140 0.521961 -0.109616
C39   C     C_R   0.514724 0.992593 0.617649 -0.229918
C40   C     C_R   0.290440 0.588956 0.982096 0.008425
C41   C     C_R   0.612621 0.019541 0.616963 0.055582
C42   C     C_R   0.615208 0.948355 0.528052 0.027946
C43   C     C_R   0.517469 0.861201 0.436458 -0.236756
C44   C     C_R   0.418980 0.849004 0.430750 0.082097
C45   C     C_R   0.685076 0.404414 0.955585 -0.131965
C46   C     C_R   0.418031 0.915118 0.524010 0.026998
C47   C     C_R   0.733078 0.000227 0.451197 -0.180963
C48   C     C_R   0.835127 0.038691 0.459348 -0.135430
C49   C     C_R   0.918968 0.040769 0.535751 -0.106469
C50   C     C_R   0.901107 0.005489 0.605061 -0.120014
C51   C     C_R   0.800357 0.970452 0.600034 -0.132354
C52   C     C_R   0.914565 0.408690 0.211406 -0.145354
C53   C     C_R   0.716102 0.968934 0.523758 0.116016
C54   C     C_3   0.473772 0.383766 0.856628 -0.386542
C55   C     C_3   0.366695 0.386348 0.832207 -0.136481
C56   C     C_R   0.079362 0.589593 0.785065 -0.107951
C57   C     C_3   0.551320 0.500355 0.059379 -0.427309
C58   C     C_3   0.573657 0.588712 0.948281 -0.361274
C59   C     C_3   0.569722 0.491572 0.963278 0.347194
C60   C     C_3   0.389916 0.492602 0.928444 0.316428
C61   C     C_3   0.442625 0.494575 0.036230 -0.381151
C62   C     C_3   0.471644 0.594353 0.937168 -0.423141
C63   C     C_R   0.233797 0.080636 0.837287 -0.121500
C64   C     C_R   0.217931 0.741384 0.310247 -0.125698
C65   C     C_R   0.129798 0.019120 0.818211 -0.196696
C66   C     C_R   0.101665 0.054486 0.898993 0.114495
C67   C     C_R   0.790611 0.197111 0.698812 -0.131183
C68   C     C_R   0.181876 0.148924 0.001125 -0.109843
C69   C     C_R   0.285641 0.209922 0.019756 -0.116579
C70   C     C_R   0.311378 0.176094 0.937688 -0.121494
C71   C     C_R   0.966525 0.882073 0.862151 -0.197177
C72   C     C_R   0.916721 0.844050 0.915387 0.064713
C73   C     C_R   0.850847 0.885959 0.942391 0.026386
C74   C     C_R   0.845541 0.966517 0.920670 -0.222231
C75   C     C_R   0.929597 0.029554 0.911778 0.048984
C76   C     C_R   0.006932 0.201686 0.909845 -0.125057
C77   C     C_R   0.993129 0.986867 0.882146 -0.001595
C78   C     C_R   0.935450 0.750695 0.027828 -0.150822
C79   C     C_R   0.698696 0.840715 0.980795 -0.172793
C80   C     C_R   0.662235 0.861656 0.055739 -0.146285
C81   C     C_R   0.734453 0.912718 0.166064 -0.101370
C82   C     C_R   0.844547 0.948733 0.202317 -0.119811
C83   C     C_R   0.882309 0.935062 0.128359 -0.170190
C84   C     C_R   0.809130 0.876464 0.016224 0.114145
C85   C     C_R   0.955232 0.141745 0.945396 0.048142
C86   C     C_2   0.717089 0.487331 0.318845 0.477750
C87   C     C_2   0.309996 0.376507 0.723804 0.484708
C88   C     C_2   0.327924 0.691432 0.979104 0.393277
C89   C     C_R   0.031471 0.754320 0.942040 -0.067463
H1    H     H_    0.864666 0.173384 0.033139 0.095596
H2    H     H_    0.536849 0.312058 0.142314 0.099290
H3    H     H_    0.379248 0.768311 0.206478 0.124010
H4    H     H_    0.800354 0.205856 0.295253 0.122333
H5    H     H_    0.621653 0.065270 0.133859 0.117710
H6    H     H_    0.854236 0.358982 0.502673 0.135404
H7    H     H_    0.125252 0.641830 0.490298 0.131337
H8    H     H_    0.374014 0.930049 0.863045 0.107734
H9    H     H_    0.513221 0.874870 0.871747 0.105864
H10   H     H_    0.457719 0.679889 0.754594 0.128130
H11   H     H_    0.069145 0.940801 0.519832 0.111811
H12   H     H_    0.127679 0.673665 0.810093 0.118679
H13   H     H_    0.163437 0.026539 0.440280 0.112564
H14   H     H_    0.324633 0.015461 0.442315 0.120636
H15   H     H_    0.300586 0.837139 0.608966 0.144783
H16   H     H_    0.137509 0.846644 0.603862 0.124542
H17   H     H_    0.509985 0.043831 0.685121 0.125278
H18   H     H_    0.518570 0.808477 0.366532 0.122465
H19   H     H_    0.669668 0.001935 0.393568 0.119929
H20   H     H_    0.850075 0.070294 0.408886 0.104761
H21   H     H_    0.998167 0.071427 0.542422 0.095151
H22   H     H_    0.966273 0.008507 0.664797 0.111976
H23   H     H_    0.819617 0.174797 0.643037 0.125529
H24   H     H_    0.025255 0.676173 0.356032 0.124144
H25   H     H_    0.789043 0.947980 0.657472 0.122441
H26   H     H_    0.464533 0.311741 0.865807 0.121740
H27   H     H_    0.311098 0.312414 0.827249 0.077159
H28   H     H_    0.388438 0.419671 0.031116 0.165312
H29   H     H_    0.644424 0.667511 0.019158 0.168399
H30   H     H_    0.581101 0.579276 0.875285 0.181960
H31   H     H_    0.435309 0.600263 0.864990 0.167038
H32   H     H_    0.496529 0.669361 0.011481 0.149987
H33   H     H_    0.617316 0.579224 0.135347 0.168259
H34   H     H_    0.881059 0.758221 0.056396 0.121062
H35   H     H_    0.455462 0.566576 0.105794 0.160502
H36   H     H_    0.391830 0.223031 0.952274 0.097740
H37   H     H_    0.254900 0.054053 0.774777 0.127566
H38   H     H_    0.164168 0.175070 0.066576 0.115035
H39   H     H_    0.346321 0.282994 0.098193 0.106825
H40   H     H_    0.007225 0.845531 0.828509 0.120952
H41   H     H_    0.791216 0.994921 0.934963 0.126304
H42   H     H_    0.869684 0.323535 0.186698 0.111068
H43   H     H_    0.642347 0.802536 0.895666 0.113006
H44   H     H_    0.578006 0.838554 0.028297 0.115486
H45   H     H_    0.070714 0.769575 0.897162 0.092900
H46   H     H_    0.705050 0.926049 0.223179 0.109795
H47   H     H_    0.901546 0.990444 0.287836 0.107789
H48   H     H_    0.968728 0.970674 0.158298 0.120626
H49   H     H_    0.028899 0.173957 0.848287 0.107279
H50   H     H_    0.624710 0.318389 0.909710 0.092348
H51   H     H_    0.662807 0.507711 0.274260 0.000475
H52   H     H_    0.180360 0.792748 0.734743 0.111121
H53   H     H_    0.264139 0.540747 0.630036 0.140612
H54   H     H_    0.174406 0.320692 0.846101 0.098543
H55   H     H_    0.491602 0.371891 0.789014 0.200298
H56   H     H_    0.658622 0.168413 0.829994 0.084722
H57   H     H_    0.226154 0.357394 0.691018 -0.002330
H58   H     H_    0.552100 0.432287 0.072179 0.145193
H59   H     H_    0.362507 0.700620 0.928553 0.041915
H60   H     H_    0.071569 0.943786 0.740783 0.113127
H61   H     H_    0.192449 0.737409 0.367540 0.126627
H62   H     H_    0.794013 0.670631 0.111657 0.098462
H63   H     H_    0.951658 0.320254 0.633383 0.101636
H64   H     H_    0.491032 0.118785 0.056316 0.111434
N1    N     N_R   0.947080 0.293830 0.002870 -0.042124
N2    N     N_R   0.153670 0.443180 0.946090 -0.045865
N3    N     N_R   0.002360 0.556820 0.208890 -0.045276
N4    N     N_R   0.210070 0.556820 0.002870 -0.042852
N5    N     N_R   0.945960 0.443180 0.152110 -0.039003
N6    N     N_R   0.151710 0.706170 0.208890 -0.051532
N7    N     N_R   0.004320 0.293830 0.946090 -0.043312
N8    N     N_R   0.789930 0.443180 0.997130 -0.033964
N9    N     N_R   0.054040 0.556820 0.847890 -0.038383
N10   N     N_R   0.848290 0.293830 0.791110 -0.043099
N11   N     N_R   0.995680 0.706170 0.053910 -0.046699
N12   N     N_R   0.052920 0.706170 0.997130 -0.031265
N13   N     N_R   0.791050 0.293830 0.847890 -0.039547
N14   N     N_R   0.846330 0.556820 0.053910 -0.034228
N15   N     N_R   0.997640 0.443180 0.791110 -0.041679
N16   N     N_R   0.208950 0.706170 0.152110 -0.022182
Ni1   Ni    Ni4+2 0.869690 0.369690 0.000000 0.207507
Ni2   Ni    Ni4+2 0.130310 0.630310 0.000000 0.284568
Ni3   Ni    Ni4+2 0.000970 0.369690 0.869780 0.205745
Ni4   Ni    Ni4+2 0.999030 0.630310 0.130220 0.218949
O1    O     O_2   0.791034 0.559052 0.410571 -0.584030
O2    O     O_2   0.356231 0.390989 0.673014 -0.595713
O3    O     O_2   0.315145 0.765603 0.029160 -0.602284

loop_
_geom_bond_atom_site_label_1
_geom_bond_atom_site_label_2
_ccdc_geom_bond_type
N12   Ni2   S    
C39   H17   S    
C66   C68   A    
C63   C65   A    
C27   H9    S    
C58   C62   S    
C1    H1    S    
C87   H57   S    
C27   C29   A    
C41   C42   A    
C54   H55   S    
C35   C36   A    
C9    C72   S    
C45   H50   S    
C3    C6    A    
C17   H64   S    
C15   H5    S    
C81   C82   A    
C3    N14   A    
C39   C41   A    
C2    H56   S    
C78   N11   A    
C82   H47   S    
C14   H4    S    
C26   C27   A    
C29   C30   A    
C5    H63   S    
C61   H35   S    
C18   C24   A    
N11   N12   A    
C6    C45   A    
C56   H12   S    
C28   H24   S    
C42   C53   S    
C30   C31   A    
C12   C64   A    
C57   C59   S    
N2    N4    A    
C55   H27   S    
C10   C17   A    
C23   C40   A    
C56   N9    A    
C58   H29   S    
N1    Ni1   S    
C83   H48   S    
C60   C62   S    
C18   C19   A    
C73   C74   A    
C5    N15   A    
C45   N8    A    
C58   H30   S    
C13   C14   A    
C57   H33   S    
N2    Ni3   S    
C75   C85   S    
N9    Ni2   S    
C83   C84   A    
C69   H39   S    
C68   C69   A    
C32   C38   A    
C4    C12   A    
C2    N13   A    
C73   C84   S    
C62   H31   S    
C86   H51   S    
C47   C53   A    
C48   H20   S    
C28   C34   A    
C21   C22   A    
C52   N5    A    
C18   H6    S    
N16   Ni2   S    
C1    N1    A    
C7    C56   A    
C6    C59   S    
C44   C46   A    
C81   H46   S    
C54   C59   S    
C1    C85   A    
C23   C60   S    
C22   C34   S    
C25   H52   S    
N3    Ni4   S    
C51   H25   S    
C4    N16   A    
C29   H10   S    
C61   H28   S    
C40   N4    A    
C16   H54   S    
C8    C41   S    
N7    Ni3   S    
C72   C73   A    
C38   H11   S    
C74   C75   A    
C9    C89   A    
C5    C7    A    
N5    Ni1   S    
C25   C26   A    
C82   C83   A    
C80   H44   S    
C13   C24   S    
C64   H61   S    
C60   C61   S    
C86   O1    D    
C43   C44   A    
C37   H16   S    
C37   C38   A    
C78   H34   S    
C71   H40   S    
C47   C48   A    
C63   C70   A    
C54   H26   S    
N10   N13   A    
C16   N2    A    
C50   C51   A    
C88   H59   S    
N11   Ni4   S    
C43   H18   S    
N10   Ni3   S    
C75   C77   A    
C68   H38   S    
C89   N12   A    
N8    N14   A    
C39   C46   A    
N9    N15   A    
N8    Ni1   S    
C70   H36   S    
C48   C49   A    
C10   H2    S    
C47   H19   S    
C16   C23   A    
C7    C19   S    
C57   H58   S    
C32   H13   S    
C42   C43   A    
C71   C77   A    
C15   C17   A    
C66   C77   S    
C54   C55   S    
C76   N7    A    
C89   H45   S    
N6    N16   A    
C33   H14   S    
C52   H42   S    
C34   C52   A    
C25   C31   A    
C2    C8    A    
C80   C81   A    
C88   O3    D    
C57   C61   S    
C21   H7    S    
C76   H49   S    
C87   O2    D    
C3    H62   S    
C30   H53   S    
N14   Ni4   S    
C36   H15   S    
C32   C33   A    
C40   C88   S    
C19   C20   A    
C74   H41   S    
C58   C59   S    
C71   C72   A    
C12   C44   S    
N4    Ni2   S    
C11   C13   A    
C79   C84   A    
C79   H43   S    
C64   N6    A    
N3    N5    A    
C50   H22   S    
C33   C35   A    
N13   Ni1   S    
C22   C24   A    
C9    C78   A    
C65   C66   A    
C55   C87   S    
C69   C70   A    
C63   H37   S    
C10   C11   A    
C26   H8    S    
N1    N7    A    
C79   C80   A    
C67   N10   A    
C67   H23   S    
N15   Ni3   S    
C20   C21   A    
C8    C67   A    
C36   C37   A    
C49   C50   A    
N6    Ni4   S    
C28   N3    A    
C65   H60   S    
C14   C15   A    
C11   C86   S    
C51   C53   A    
C55   C60   S    
C35   C46   S    
C76   C85   A    
C62   H32   S    
C49   H21   S    
C4    H3    S    
C20   C31   S    
