data_mof_unit_28959.cif
_audit_creation_date              2012-12-10T19:48:04-0500
_audit_creation_method            fapswitch 2.2
_symmetry_space_group_name_H-M    P1
_symmetry_Int_Tables_number       1
_space_group_crystal_system       triclinic
_cell_length_a                    15.011903
_cell_length_b                    14.11196
_cell_length_c                    10.626099
_cell_angle_alpha                 90.003028
_cell_angle_beta                  89.964012
_cell_angle_gamma                 89.999816
_cell_volume                      2251.11072882

loop_
_atom_site_label
_atom_site_type_symbol
_atom_type_description
_atom_site_fract_x
_atom_site_fract_y
_atom_site_fract_z
_atom_type_partial_charge
C1    C     C_R   0.327674 0.499991 0.499906 0.862012
C2    C     C_R   0.534560 0.795448 0.599905 0.004372
C3    C     C_R   0.565514 0.204663 0.561681 0.014487
C4    C     C_R   0.465440 0.795442 0.400094 0.004424
C5    C     C_R   0.500000 0.053424 0.500000 0.136700
C6    C     C_R   0.500000 0.946682 0.499999 0.144532
C7    C     C_R   0.513706 0.499975 0.260285 0.895957
C8    C     C_R   0.486289 0.499982 0.739712 0.895951
C9    C     C_R   0.549901 0.674106 0.109946 -0.136940
C10   C     C_R   0.450580 0.325479 0.889601 -0.122517
C11   C     C_R   0.450183 0.674143 0.890081 -0.136955
C12   C     C_R   0.672327 0.499990 0.500112 0.862026
C13   C     C_R   0.549300 0.325439 0.110362 -0.122534
C14   C     C_R   0.526533 0.759810 0.053662 -0.170582
C15   C     C_R   0.473753 0.239788 0.946037 -0.162366
C16   C     C_R   0.473595 0.759829 0.946385 -0.170617
C17   C     C_R   0.526075 0.239767 0.053906 -0.162414
C18   C     C_R   0.479948 0.586823 0.940714 0.092753
C19   C     C_R   0.519888 0.412826 0.059407 0.084807
C20   C     C_R   0.520089 0.586807 0.059295 0.092724
C21   C     C_R   0.480043 0.412842 0.940576 0.084791
C22   C     C_R   0.472082 0.499876 0.875638 -0.266941
C23   C     C_R   0.048092 0.499828 0.500285 0.116686
C24   C     C_R   0.527905 0.499855 0.124357 -0.266941
C25   C     C_R   0.094046 0.579374 0.544562 -0.178880
C26   C     C_R   0.905866 0.420282 0.544257 -0.181435
C27   C     C_R   0.905990 0.579427 0.455978 -0.178846
C28   C     C_R   0.094105 0.420297 0.456013 -0.181403
C29   C     C_R   0.186005 0.579653 0.543793 -0.200978
C30   C     C_R   0.813909 0.420093 0.543505 -0.193638
C31   C     C_R   0.814032 0.579694 0.456585 -0.200962
C32   C     C_R   0.186062 0.420117 0.456612 -0.193654
C33   C     C_R   0.231954 0.499931 0.500091 -0.022805
C34   C     C_R   0.951912 0.499846 0.500187 0.116682
C35   C     C_R   0.768048 0.499932 0.500062 -0.022836
C36   C     C_R   0.432981 0.105238 0.437603 -0.287925
C37   C     C_R   0.534601 0.894864 0.602294 -0.287390
C38   C     C_R   0.567020 0.105242 0.562397 -0.287920
C39   C     C_R   0.465400 0.894857 0.397705 -0.287398
C40   C     C_R   0.434486 0.204660 0.438318 0.014458
H1    H     H_    0.591949 0.676651 0.192576 0.148429
H2    H     H_    0.778791 0.358343 0.578350 0.145950
H3    H     H_    0.779009 0.641455 0.421650 0.150748
H4    H     H_    0.221155 0.358397 0.421608 0.145925
H5    H     H_    0.378850 0.069614 0.389927 0.133787
H6    H     H_    0.560609 0.930464 0.684616 0.131701
H7    H     H_    0.621151 0.069620 0.610071 0.133783
H8    H     H_    0.439393 0.930452 0.315382 0.131703
H9    H     H_    0.382889 0.243746 0.389841 0.127884
H10   H     H_    0.562035 0.756554 0.678466 0.143764
H11   H     H_    0.617111 0.243752 0.610158 0.127872
H12   H     H_    0.408732 0.322846 0.806781 0.152198
H13   H     H_    0.437967 0.756543 0.321532 0.143773
H14   H     H_    0.547185 0.173396 0.095360 0.135891
H15   H     H_    0.452306 0.826196 0.905103 0.134172
H16   H     H_    0.452605 0.173434 0.904567 0.135896
H17   H     H_    0.547857 0.826161 0.094959 0.134183
H18   H     H_    0.408136 0.676720 0.807453 0.148434
H19   H     H_    0.591153 0.322769 0.193174 0.152221
H20   H     H_    0.058826 0.640644 0.580643 0.131207
H21   H     H_    0.941008 0.358950 0.580229 0.130085
H22   H     H_    0.941236 0.640724 0.420040 0.131211
H23   H     H_    0.058939 0.358999 0.419979 0.130095
H24   H     H_    0.221053 0.641387 0.578766 0.150723
N1    N     N_R   0.500000 0.252470 0.500000 -0.096841
N2    N     N_R   0.500000 0.747530 0.500000 -0.096311
O1    O     O_R   0.369060 0.579480 0.500010 -0.623515
O2    O     O_R   0.630940 0.420520 0.499990 -0.634351
O3    O     O_R   0.630940 0.579480 0.499990 -0.623525
O4    O     O_R   0.369060 0.420520 0.500010 -0.634344
O5    O     O_R   0.499990 0.579480 0.316780 -0.625721
O6    O     O_R   0.500010 0.420520 0.683220 -0.616943
O7    O     O_R   0.500010 0.579480 0.683220 -0.625737
O8    O     O_R   0.499990 0.420520 0.316780 -0.616964
Zn1   Zn    Zn3+2 0.500000 0.606140 0.500000 0.932651
Zn2   Zn    Zn3+2 0.500000 0.393860 0.500000 0.931479

loop_
_geom_bond_atom_site_label_1
_geom_bond_atom_site_label_2
_ccdc_geom_bond_type
C4    N2    A    
C12   O3    A    
C11   C18   A    
C4    H13   S    
O6    Zn2   S    
C10   H12   S    
C1    C33   S    
C12   O2    A    
N1    Zn2   S    
C31   H3    S    
C30   C35   A    
C19   C21   A    
C26   H21   S    
C10   C15   A    
C7    O5    A    
C5    C6    S    
C40   H9    S    
C5    C36   A    
C29   C33   A    
C2    H10   S    
C26   C34   A    
C20   C24   A    
C3    C38   A    
C8    C22   S    
C25   H20   S    
C11   H18   S    
C29   H24   S    
C27   C34   A    
C5    C38   A    
O7    Zn1   S    
C3    N1    A    
C7    O8    A    
C10   C21   A    
C25   C29   A    
C8    O6    A    
C13   C19   A    
C27   C31   A    
C36   C40   A    
C3    H11   S    
C9    C14   A    
C27   H22   S    
C11   C16   A    
C9    C20   A    
C4    C39   A    
C28   C32   A    
C23   C34   S    
C32   H4    S    
C6    C37   A    
C36   H5    S    
C23   C28   A    
C12   C35   S    
C38   H7    S    
O8    Zn2   S    
C26   C30   A    
C40   N1    A    
O4    Zn2   S    
C31   C35   A    
O1    Zn1   S    
C15   C17   A    
C14   H17   S    
C14   C16   A    
C18   C22   A    
C2    N2    A    
C13   H19   S    
O2    Zn2   S    
C9    H1    S    
C1    O4    A    
C13   C17   A    
C32   C33   A    
C19   C24   A    
C16   H15   S    
C15   H16   S    
O5    Zn1   S    
C2    C37   A    
N2    Zn1   S    
C8    O7    A    
C1    O1    A    
O3    Zn1   S    
C18   C20   A    
C23   C25   A    
C28   H23   S    
C6    C39   A    
C30   H2    S    
C37   H6    S    
C21   C22   A    
C17   H14   S    
C7    C24   S    
C39   H8    S    
