data_mof_unit_30677.cif
_audit_creation_date              2012-10-26T20:33:01-0400
_audit_creation_method            fapswitch 2.2
_symmetry_space_group_name_H-M    P1
_symmetry_Int_Tables_number       1
_space_group_crystal_system       triclinic
_cell_length_a                    27.800674
_cell_length_b                    10.813743
_cell_length_c                    9.528415
_cell_angle_alpha                 89.962068
_cell_angle_beta                  90.082769
_cell_angle_gamma                 90.351621
_cell_volume                      2864.46360784

loop_
_atom_site_label
_atom_site_type_symbol
_atom_type_description
_atom_site_fract_x
_atom_site_fract_y
_atom_site_fract_z
_atom_type_partial_charge
C1    C     C_R   0.500693 0.262373 0.499770 0.569576
C2    C     C_R   0.974052 0.391480 0.438150 0.017531
C3    C     C_R   0.974131 0.596867 0.551714 0.017652
C4    C     C_R   0.407434 0.499605 0.499901 0.561480
C5    C     C_R   0.948831 0.494024 0.494398 0.034008
C6    C     C_R   0.947039 0.294404 0.376141 -0.141982
C7    C     C_R   0.897099 0.295915 0.374219 -0.113060
C8    C     C_R   0.871990 0.394245 0.433451 0.022826
C9    C     C_R   0.897669 0.493682 0.493409 -0.028646
C10   C     C_R   0.872054 0.592654 0.552649 0.020086
C11   C     C_R   0.821564 0.590180 0.551314 0.425703
C12   C     C_R   0.278751 0.495141 0.372251 -0.053789
C13   C     C_R   0.821503 0.395926 0.433118 0.378671
C14   C     C_R   0.721038 0.406692 0.574443 -0.052226
C15   C     C_R   0.670652 0.405160 0.579774 0.109640
C16   C     C_R   0.500493 0.737339 0.499802 0.577634
C17   C     C_R   0.669715 0.577430 0.414152 -0.157035
C18   C     C_R   0.719950 0.577596 0.408506 0.181006
C19   C     C_R   0.745736 0.492569 0.490831 0.231044
C20   C     C_R   0.025140 0.389571 0.444705 0.017568
C21   C     C_R   0.050454 0.494679 0.496441 0.034087
C22   C     C_R   0.025244 0.599448 0.547188 0.017572
C23   C     C_R   0.253502 0.496457 0.499319 0.239709
C24   C     C_R   0.052063 0.285421 0.402112 -0.141547
C25   C     C_R   0.102242 0.703706 0.589712 -0.111007
C26   C     C_R   0.947168 0.693516 0.612818 -0.141367
C27   C     C_R   0.897222 0.691268 0.612958 -0.115037
C28   C     C_R   0.592306 0.497292 0.500041 0.547173
C29   C     C_R   0.052296 0.703948 0.590876 -0.141313
C30   C     C_R   0.470349 0.062675 0.587251 -0.047810
C31   C     C_R   0.500396 0.128852 0.496517 0.008446
C32   C     C_R   0.526333 0.063731 0.392403 0.105475
C33   C     C_R   0.525747 0.934176 0.393568 -0.142195
C34   C     C_R   0.101617 0.495028 0.497427 -0.026968
C35   C     C_R   0.499936 0.870067 0.497064 -0.031463
C36   C     C_R   0.470585 0.935603 0.587922 0.044207
C37   C     C_3   0.463595 0.926832 0.742519 0.276547
C38   C     C_3   0.462788 0.068456 0.743047 0.029226
C39   C     C_R   0.521817 0.593798 0.073685 0.125811
C40   C     C_R   0.177709 0.392886 0.453374 0.398256
C41   C     C_R   0.473518 0.416321 0.074412 -0.018859
C42   C     C_R   0.473695 0.416056 0.925314 -0.035549
C43   C     C_R   0.521493 0.594387 0.926291 0.225961
C44   C     C_3   0.572956 0.633420 0.920419 0.224150
C45   C     C_R   0.127209 0.390725 0.451294 0.024995
C46   C     C_3   0.573453 0.631551 0.079862 -0.235254
C47   C     C_R   0.177823 0.598343 0.544053 0.400279
C48   C     C_R   0.278751 0.498646 0.626603 -0.052139
C49   C     C_R   0.328907 0.499608 0.626962 -0.124227
C50   C     C_R   0.328902 0.496206 0.372287 -0.140305
C51   C     C_3   0.759910 0.614041 0.188017 -0.281889
C52   C     C_3   0.538889 0.127054 0.152748 -0.277114
C53   C     C_3   0.403967 0.119574 0.925442 -0.273412
C54   C     C_3   0.656094 0.303557 0.804794 -0.283880
C55   C     C_R   0.102005 0.286349 0.405191 -0.111195
C56   C     C_R   0.127325 0.599698 0.544504 0.023843
C57   C     C_R   0.354458 0.498563 0.499716 0.011090
C58   C     C_R   0.644908 0.492749 0.499202 -0.001209
Cu1   Cu    Cu3+1 0.500000 0.499980 0.640670 1.002989
Cu2   Cu    Cu3+1 0.500000 0.500020 0.359330 0.961085
F1    F     F_    0.419926 0.871127 0.773948 -0.618972
F2    F     F_    0.577878 0.751746 0.866691 -0.646129
H1    H     H_    0.347592 0.495199 0.272640 0.135339
H2    H     H_    0.494754 0.886320 0.799036 0.157019
H3    H     H_    0.493294 0.112721 0.800258 0.103427
H4    H     H_    0.452571 0.347799 0.130450 0.112348
H5    H     H_    0.453064 0.347463 0.868813 0.151124
H6    H     H_    0.597008 0.564758 0.871002 0.129364
H7    H     H_    0.596948 0.558093 0.123467 0.104205
H8    H     H_    0.578385 0.724431 0.127856 0.151385
H9    H     H_    0.120827 0.204240 0.371109 0.169180
H10   H     H_    0.741463 0.339339 0.633367 0.143493
H11   H     H_    0.878205 0.219129 0.325651 0.167384
H12   H     H_    0.259440 0.499285 0.725228 0.134711
H13   H     H_    0.963299 0.216256 0.325398 0.110805
H14   H     H_    0.035729 0.200097 0.367950 0.110314
H15   H     H_    0.347606 0.501182 0.726757 0.144909
H16   H     H_    0.726467 0.746585 0.308981 0.258668
H17   H     H_    0.780181 0.685916 0.129021 0.157549
H18   H     H_    0.728217 0.584868 0.124612 0.138357
H19   H     H_    0.783974 0.533778 0.204107 0.184109
H20   H     H_    0.591911 0.099337 0.301270 0.253753
H21   H     H_    0.540260 0.032272 0.107911 0.142852
H22   H     H_    0.561536 0.189495 0.087593 0.139761
H23   H     H_    0.121163 0.786082 0.624496 0.169501
H24   H     H_    0.501322 0.160712 0.149345 0.153525
H25   H     H_    0.388019 0.093572 0.713550 0.303035
H26   H     H_    0.372743 0.181058 0.943314 0.139832
H27   H     H_    0.434563 0.153886 0.989491 0.103736
H28   H     H_    0.394276 0.024679 0.960225 0.218958
H29   H     H_    0.611245 0.292145 0.629425 0.267073
H30   H     H_    0.635022 0.226642 0.852232 0.145793
H31   H     H_    0.645425 0.391333 0.855693 0.131810
H32   H     H_    0.694735 0.286091 0.825529 0.157894
H33   H     H_    0.963464 0.771841 0.664264 0.110870
H34   H     H_    0.649877 0.643725 0.351677 0.111263
H35   H     H_    0.878369 0.767729 0.660951 0.165615
H36   H     H_    0.036073 0.789050 0.624410 0.110314
H37   H     H_    0.547303 0.884112 0.318101 0.127529
H38   H     H_    0.259439 0.493744 0.273469 0.134995
N1    N     N_R   0.201897 0.495829 0.499042 -0.398707
N2    N     N_R   0.797399 0.493206 0.491109 -0.386424
N3    N     N_R   0.500300 0.500930 0.147930 -0.237924
N4    N     N_R   0.500310 0.500890 0.852020 -0.262721
N5    N     N_2   0.744448 0.664071 0.321134 -0.476993
N6    N     N_2   0.556554 0.127288 0.295587 -0.489356
N7    N     N_2   0.416146 0.120198 0.777872 -0.486133
N8    N     N_2   0.646671 0.308833 0.655494 -0.506260
O1    O     O_R   0.500000 0.319640 0.618810 -0.523634
O2    O     O_R   0.569730 0.499960 0.618810 -0.501613
O3    O     O_R   0.569740 0.500000 0.381220 -0.507861
O4    O     O_2   0.202472 0.292660 0.410996 -0.492138
O5    O     O_2   0.796650 0.301671 0.374255 -0.508070
O6    O     O_2   0.202698 0.698981 0.587196 -0.482693
O7    O     O_2   0.796774 0.683493 0.610523 -0.481630
O8    O     O_R   0.500010 0.319680 0.381230 -0.478880
O9    O     O_R   0.430260 0.500000 0.618780 -0.488338
O10   O     O_R   0.430270 0.500040 0.381190 -0.506790
O11   O     O_R   0.499990 0.680320 0.618770 -0.448626
O12   O     O_R   0.500000 0.680360 0.381190 -0.506754

loop_
_geom_bond_atom_site_label_1
_geom_bond_atom_site_label_2
_ccdc_geom_bond_type
C10   C27   A    
C47   O6    S    
C34   C56   A    
C8    C13   A    
C47   N1    A    
C22   C29   A    
C41   C42   A    
C35   C36   A    
C25   C56   A    
C6    H13   S    
C40   O4    S    
C24   C55   A    
C5    C9    A    
C12   C23   A    
C26   C27   A    
C29   H36   S    
H16   N5    S    
Cu1   N4    S    
C36   C37   S    
C16   O12   A    
C16   C35   S    
C30   C31   A    
C19   N2    S    
C1    C31   S    
Cu1   O2    S    
C49   C57   A    
C30   C38   S    
C18   C19   A    
C38   N7    S    
C52   H22   S    
C43   N4    A    
C46   H7    S    
C1    O1    A    
C40   N1    A    
C51   H18   S    
C13   O5    S    
C20   C24   A    
C8    C9    A    
C54   H31   S    
C30   C36   A    
C4    C57   S    
Cu2   O10   S    
C1    O8    A    
C11   N2    A    
Cu2   N3    S    
C11   O7    S    
C9    C10   A    
C51   H19   S    
C17   C58   A    
C52   N6    S    
Cu1   Cu2   S    
Cu1   O9    S    
C32   N6    S    
C21   C22   A    
C50   H1    S    
C4    O10   A    
C2    C6    A    
Cu1   O1    S    
C14   C19   A    
C44   C46   S    
C28   O3    A    
C25   C29   A    
C40   C45   A    
C46   H8    S    
C2    C20   A    
C48   H12   S    
C7    C8    A    
C7    H11   S    
C16   O11   A    
C17   H34   S    
C24   H14   S    
C39   C43   A    
C21   C34   A    
C44   F2    S    
C41   N3    A    
C33   H37   S    
C15   N8    S    
C52   H21   S    
C43   C44   S    
C54   H30   S    
C37   C38   S    
C54   H32   S    
C53   N7    S    
C37   F1    S    
C31   C32   A    
C38   H3    S    
C51   N5    S    
C25   H23   S    
C17   C18   A    
C34   C45   A    
C41   H4    S    
C39   C46   S    
C48   C49   A    
C53   H27   S    
C42   H5    S    
C15   C58   A    
C4    O9    A    
C44   H6    S    
C2    C5    A    
C37   H2    S    
C26   H33   S    
C27   H35   S    
Cu1   O11   S    
C23   C48   A    
C50   C57   A    
C14   H10   S    
H29   N8    S    
C3    C26   A    
C3    C5    A    
C42   N4    A    
C12   C50   A    
C39   N3    A    
C6    C7    A    
C28   C58   S    
C54   N8    S    
C28   O2    A    
C32   C33   A    
C52   H24   S    
C18   N5    S    
Cu2   O3    S    
C23   N1    S    
C33   C35   A    
C49   H15   S    
Cu2   O12   S    
C53   H26   S    
H20   N6    S    
C51   H17   S    
C12   H38   S    
Cu2   O8    S    
C10   C11   A    
H25   N7    S    
C20   C21   A    
C45   C55   A    
C53   H28   S    
C14   C15   A    
C3    C22   A    
C13   N2    A    
C55   H9    S    
C47   C56   A    
