data_mof_unit_52696.cif
_audit_creation_date              2012-12-10T20:31:07-0500
_audit_creation_method            fapswitch 2.2
_symmetry_space_group_name_H-M    P1
_symmetry_Int_Tables_number       1
_space_group_crystal_system       triclinic
_cell_length_a                    15.027664
_cell_length_b                    10.762594
_cell_length_c                    9.984718
_cell_angle_alpha                 89.213864
_cell_angle_beta                  88.966617
_cell_angle_gamma                 89.583986
_cell_volume                      1614.44044678

loop_
_atom_site_label
_atom_site_type_symbol
_atom_type_description
_atom_site_fract_x
_atom_site_fract_y
_atom_site_fract_z
_atom_type_partial_charge
C1    C     C_R   0.495870 0.260758 0.500532 0.890560
C2    C     C_R   0.186450 0.389122 0.466822 0.333891
C3    C     C_R   0.231554 0.496601 0.502415 -0.238584
C4    C     C_R   0.327298 0.496691 0.500976 1.013066
C5    C     C_R   0.186958 0.609240 0.521506 0.354332
C6    C     C_R   0.485841 0.060599 0.617854 0.074461
C7    C     C_R   0.483016 0.129298 0.499392 -0.210942
C8    C     C_R   0.471458 0.067631 0.377310 -0.051282
C9    C     C_R   0.493229 0.941632 0.371895 -0.056749
C10   C     C_R   0.498652 0.872927 0.494123 -0.259577
C11   C     C_R   0.488239 0.933908 0.615498 0.200228
C12   C     C_R   0.906548 0.618449 0.514370 -0.083129
C13   C     C_3   0.545992 0.927401 0.736438 -0.203891
C14   C     C_3   0.543835 0.068630 0.737186 -0.545680
C15   C     C_R   0.422724 0.513812 0.072977 0.099966
C16   C     C_R   0.502767 0.739844 0.498300 0.876288
C17   C     C_R   0.576713 0.514912 0.070587 0.406782
C18   C     C_R   0.576609 0.514392 0.927632 -0.112584
C19   C     C_R   0.422488 0.507522 0.932451 0.173590
C20   C     C_3   0.342049 0.425753 0.936818 -0.258940
C21   C     C_3   0.339453 0.441930 0.088839 -0.440831
C22   C     C_R   0.672892 0.498199 0.498025 0.920613
C23   C     C_R   0.957171 0.300918 0.385171 -0.270317
C24   C     C_R   0.812657 0.613693 0.525709 -0.190658
C25   C     C_R   0.768928 0.503978 0.489695 -0.232868
C26   C     C_R   0.815306 0.402935 0.433632 0.442624
C27   C     C_R   0.908456 0.403105 0.433457 -0.030044
C28   C     C_R   0.953887 0.509038 0.478555 -0.024966
C29   C     C_2   0.758443 0.720183 0.576329 0.563374
C30   C     C_2   0.519543 0.890362 0.240419 0.444911
C31   C     C_2   0.500736 0.869579 0.857558 0.518934
C32   C     C_3   0.667188 0.670685 0.141202 0.143184
C33   C     C_3   0.763796 0.702555 0.104325 -0.394962
C34   C     C_R   0.048931 0.305430 0.373206 0.461515
C35   C     C_3   0.774502 0.842174 0.078595 -0.820196
C36   C     C_2   0.657952 0.554195 0.860505 0.534611
C37   C     C_2   0.362318 0.294148 0.899108 0.428037
C38   C     C_3   0.767511 0.298713 0.247943 0.035533
C39   C     C_3   0.684728 0.230326 0.202540 -0.224959
C40   C     C_3   0.688844 0.203753 0.052710 -0.910271
C41   C     C_3   0.135372 0.269829 0.184126 0.184163
C42   C     C_3   0.080339 0.254445 0.057848 -0.409506
C43   C     C_3   0.082919 0.121118 0.008087 -0.788223
C44   C     C_3   0.209065 0.180129 0.519189 0.127966
C45   C     C_R   0.094674 0.398706 0.441920 -0.099987
C46   C     C_3   0.262988 0.173748 0.646791 -0.434370
C47   C     C_3   0.263234 0.042979 0.708444 -0.793399
C48   C     C_3   0.212435 0.773473 0.378792 0.066163
C49   C     C_3   0.292561 0.838918 0.317102 -0.377164
C50   C     C_3   0.269771 0.900243 0.183004 -0.925251
C51   C     C_2   0.088817 0.818107 0.647987 0.429740
C52   C     C_3   0.891238 0.877703 0.401907 0.106235
C53   C     C_3   0.969842 0.919998 0.312314 -0.352499
C54   C     C_3   0.008756 0.814097 0.228260 -0.963403
C55   C     C_2   0.428454 0.130905 0.261654 0.450210
C56   C     C_R   0.047225 0.505713 0.485403 -0.080616
C57   C     C_R   0.093394 0.610470 0.531489 -0.174342
C58   C     C_R   0.045765 0.718382 0.569955 -0.111046
C59   C     C_R   0.955409 0.728254 0.538877 0.576506
H1    H     H_    0.613179 0.887952 0.714906 0.194766
H2    H     H_    0.533755 0.871771 0.952432 0.096433
H3    H     H_    0.653437 0.701836 0.245036 0.170908
H4    H     H_    0.622548 0.724701 0.073590 0.148353
H5    H     H_    0.807884 0.671087 0.186296 0.192277
H6    H     H_    0.785300 0.652780 0.012669 0.247748
H7    H     H_    0.728409 0.874795 0.999532 0.298267
H8    H     H_    0.843150 0.862704 0.042960 0.257389
H9    H     H_    0.760629 0.894500 0.171785 0.258231
H10   H     H_    0.716264 0.494212 0.856916 0.034035
H11   H     H_    0.409178 0.274846 0.818943 0.104176
H12   H     H_    0.508535 0.108708 0.825390 0.224344
H13   H     H_    0.826262 0.247821 0.207927 0.128289
H14   H     H_    0.768560 0.393326 0.201852 0.187457
H15   H     H_    0.678304 0.140966 0.258916 0.250654
H16   H     H_    0.625086 0.287991 0.224058 0.267955
H17   H     H_    0.697113 0.291425 0.994161 0.240823
H18   H     H_    0.626172 0.158907 0.022425 0.306743
H19   H     H_    0.745331 0.140077 0.029256 0.263076
H20   H     H_    0.201035 0.223355 0.169952 0.205127
H21   H     H_    0.150183 0.370573 0.194778 0.079877
H22   H     H_    0.010265 0.283214 0.078299 0.211444
H23   H     H_    0.609526 0.110976 0.712689 0.221526
H24   H     H_    0.107833 0.316115 0.977225 0.193802
H25   H     H_    0.152392 0.092564 0.983531 0.277276
H26   H     H_    0.042587 0.114023 0.916452 0.265680
H27   H     H_    0.055250 0.057350 0.085695 0.271731
H28   H     H_    0.221774 0.095266 0.459528 0.179715
H29   H     H_    0.137165 0.179126 0.547616 0.173767
H30   H     H_    0.332046 0.202126 0.623785 0.227420
H31   H     H_    0.233898 0.240347 0.719706 0.224295
H32   H     H_    0.196632 0.021673 0.751733 0.276525
H33   H     H_    0.312559 0.036335 0.789408 0.306750
H34   H     H_    0.283916 0.467382 0.885033 0.153354
H35   H     H_    0.281790 0.972527 0.632447 0.258512
H36   H     H_    0.159389 0.843977 0.395248 0.175500
H37   H     H_    0.189607 0.704603 0.304030 0.138609
H38   H     H_    0.315193 0.910793 0.387048 0.217244
H39   H     H_    0.346184 0.769233 0.300987 0.244907
H40   H     H_    0.242929 0.830744 0.113391 0.267219
H41   H     H_    0.330518 0.940605 0.135910 0.303465
H42   H     H_    0.219863 0.975580 0.198339 0.274244
H43   H     H_    0.151632 0.800092 0.696566 0.110001
H44   H     H_    0.844055 0.957285 0.410439 0.151982
H45   H     H_    0.283297 0.501823 0.123618 0.172732
H46   H     H_    0.853112 0.803193 0.353753 0.107654
H47   H     H_    0.945762 0.993654 0.242543 0.193901
H48   H     H_    0.022441 0.961354 0.374111 0.265984
H49   H     H_    0.030055 0.734958 0.291904 0.255320
H50   H     H_    0.067292 0.847624 0.169410 0.262523
H51   H     H_    0.959058 0.779416 0.157734 0.270379
H52   H     H_    0.371999 0.191362 0.281208 0.094910
H53   H     H_    0.348832 0.356465 0.149743 0.235354
H54   H     H_    0.925270 0.217188 0.353356 0.181747
H55   H     H_    0.695086 0.742630 0.531287 -0.013715
H56   H     H_    0.483145 0.815623 0.195421 0.070052
N1    N     N_R   0.499390 0.499140 0.142800 -0.154418
N2    N     N_R   0.499390 0.499180 0.857150 -0.159407
O1    O     O_R   0.500010 0.316790 0.614690 -0.645092
O2    O     O_2   0.582809 0.935391 0.179403 -0.620723
O3    O     O_2   0.428168 0.819856 0.850685 -0.577106
O4    O     O_3   0.654742 0.540384 0.135659 -0.668126
O5    O     O_2   0.661512 0.659737 0.815752 -0.585137
O6    O     O_2   0.324008 0.208279 0.955957 -0.592412
O7    O     O_3   0.768372 0.300454 0.390160 -0.650894
O8    O     O_3   0.091964 0.214929 0.297738 -0.647415
O9    O     O_3   0.235820 0.282844 0.437803 -0.673451
O10   O     O_3   0.235036 0.718197 0.503815 -0.656562
O11   O     O_2   0.053934 0.919937 0.662651 -0.558622
O12   O     O_R   0.500000 0.316760 0.385350 -0.636952
O13   O     O_3   0.917483 0.846153 0.533909 -0.550201
O14   O     O_2   0.455649 0.118439 0.146709 -0.554152
O15   O     O_R   0.367850 0.499990 0.614680 -0.634394
O16   O     O_R   0.367840 0.499950 0.385340 -0.624086
O17   O     O_R   0.500000 0.683240 0.614650 -0.543399
O18   O     O_R   0.499990 0.683210 0.385310 -0.679135
O19   O     O_R   0.632160 0.500050 0.614660 -0.621974
O20   O     O_R   0.632150 0.500010 0.385320 -0.578110
O21   O     O_2   0.782191 0.780411 0.671934 -0.500594
Zn1   Zn    Zn3+2 0.500010 0.500020 0.653130 0.989786
Zn2   Zn    Zn3+2 0.499990 0.499980 0.346870 0.957593

loop_
_geom_bond_atom_site_label_1
_geom_bond_atom_site_label_2
_ccdc_geom_bond_type
C29   H55   S    
C52   H44   S    
C48   H36   S    
C47   H33   S    
C31   H2    S    
C19   C20   S    
C20   H34   S    
C16   O17   A    
C41   H21   S    
C28   C56   A    
C33   H6    S    
C7    C8    A    
C4    O15   A    
C46   H30   S    
C53   C54   S    
C36   H10   S    
O15   Zn1   S    
C15   C19   A    
C29   O21   D    
C22   O20   A    
C44   O9    S    
C50   H40   S    
C12   C28   A    
C51   O11   D    
C1    O12   A    
C34   O8    S    
C38   C39   S    
C6    C14   S    
C30   O2    D    
C56   C57   A    
C54   H51   S    
C41   C42   S    
C39   H15   S    
C24   C29   S    
C49   H39   S    
C37   O6    D    
C21   H45   S    
C53   H47   S    
C45   C56   A    
C13   H1    S    
C8    C9    A    
C22   C25   S    
C23   C27   A    
C44   H28   S    
C9    C10   A    
C13   C14   S    
C43   H25   S    
C12   C59   A    
N2    Zn1   S    
C42   H22   S    
C26   O7    S    
O19   Zn1   S    
C8    C55   S    
C44   C46   S    
C30   H56   S    
C2    C45   A    
O18   Zn2   S    
C31   O3    D    
O20   Zn2   S    
C38   H13   S    
C43   H26   S    
C41   O8    S    
C24   C25   A    
C6    C11   A    
C51   C58   S    
C35   H7    S    
C58   C59   A    
C14   H12   S    
C40   H17   S    
C54   H50   S    
C22   O19   A    
C51   H43   S    
C36   O5    D    
C23   H54   S    
C53   H48   S    
C35   H8    S    
C23   C34   A    
C5    O10   S    
C17   C18   A    
C26   C27   A    
C34   C45   A    
C18   N2    A    
C9    C30   S    
C50   H42   S    
C2    O9    S    
C17   O4    S    
C48   C49   S    
C52   H46   S    
C39   H16   S    
C40   H19   S    
C42   C43   S    
C14   H23   S    
O1    Zn1   S    
O17   Zn1   S    
C21   H53   S    
C52   C53   S    
C59   O13   S    
C46   C47   S    
C48   H37   S    
C55   H52   S    
C1    C7    S    
C43   H27   S    
C47   H32   S    
C32   O4    S    
C13   C31   S    
C42   H24   S    
C32   H4    S    
C3    C5    A    
C41   H20   S    
C6    C7    A    
C46   H31   S    
C54   H49   S    
C12   C24   A    
C55   O14   D    
C5    C57   A    
C52   O13   S    
C32   C33   S    
C2    C3    A    
C25   C26   A    
C32   H3    S    
C10   C16   S    
C48   O10   S    
C20   C37   S    
C11   C13   S    
C57   C58   A    
O12   Zn2   S    
C35   H9    S    
C33   H5    S    
C33   C35   S    
C47   H35   S    
C44   H29   S    
C1    O1    A    
C40   H18   S    
C50   H41   S    
C10   C11   A    
C49   H38   S    
C39   C40   S    
C15   C21   S    
C20   C21   S    
C19   N2    A    
O16   Zn2   S    
C49   C50   S    
C27   C28   A    
C15   N1    A    
C37   H11   S    
C16   O18   A    
C18   C36   S    
C38   O7    S    
C3    C4    S    
C17   N1    A    
C4    O16   A    
N1    Zn2   S    
C38   H14   S    
