data_mof_unit_33343.cif
_audit_creation_date              2012-12-11T15:41:25-0500
_audit_creation_method            fapswitch 2.2
_symmetry_space_group_name_H-M    P1
_symmetry_Int_Tables_number       1
_space_group_crystal_system       triclinic
_cell_length_a                    19.03973
_cell_length_b                    11.01555
_cell_length_c                    18.869336
_cell_angle_alpha                 89.847377
_cell_angle_beta                  90.489172
_cell_angle_gamma                 89.927939
_cell_volume                      3957.36277378

loop_
_atom_site_label
_atom_site_type_symbol
_atom_type_description
_atom_site_fract_x
_atom_site_fract_y
_atom_site_fract_z
_atom_type_partial_charge
C1    C     C_R   0.727411 0.956440 0.853815 0.555103
C2    C     C_R   0.311401 0.429473 0.034239 0.087398
C3    C     C_R   0.761251 0.862193 0.353789 0.576880
C4    C     C_2   0.525539 0.165317 0.925942 0.505669
C5    C     C_2   0.490717 0.176180 0.076291 0.432823
C6    C     C_2   0.024564 0.674809 0.927583 0.451091
C7    C     C_2   0.977544 0.674917 0.073080 0.433248
C8    C     C_2   0.472888 0.084118 0.033124 -0.100965
C9    C     C_2   0.475517 0.098305 0.955800 -0.101643
C10   C     C_2   0.999580 0.574965 0.039560 -0.124338
C11   C     C_2   0.004790 0.574274 0.962098 -0.127391
C12   C     C_R   0.761539 0.426936 0.071804 0.003501
C13   C     C_R   0.189816 0.942063 0.964671 0.143969
C14   C     C_R   0.239116 0.425393 0.928274 -0.000935
C15   C     C_R   0.257334 0.919278 0.073589 0.000242
C16   C     C_R   0.754190 0.906816 0.920743 0.015755
C17   C     C_R   0.802645 0.948986 0.037318 0.155437
C18   C     C_R   0.812674 0.415419 0.954130 -0.181509
C19   C     C_R   0.186546 0.396739 0.043866 -0.173807
C20   C     C_R   0.309632 0.871571 0.960565 -0.188757
C21   C     C_R   0.748928 0.756278 0.014919 -0.152175
C22   C     C_R   0.820580 0.420343 0.027228 -0.117432
C23   C     C_R   0.180446 0.399649 0.970801 -0.158001
C24   C     C_R   0.312768 0.871177 0.033674 -0.177139
C25   C     C_R   0.273883 0.958248 0.145396 0.550693
C26   C     C_R   0.737444 0.789235 0.943671 -0.137745
C27   C     C_3   0.631002 0.496146 0.050782 -0.168884
C28   C     C_3   0.356384 0.539231 0.956095 -0.199302
C29   C     C_3   0.154484 0.067302 0.039614 -0.202349
C30   C     C_3   0.784296 0.111939 0.984362 -0.216113
C31   C     C_3   0.624173 0.495171 0.970495 0.313555
C32   C     C_3   0.362552 0.532287 0.036094 0.272521
C33   C     C_3   0.148994 0.057772 0.959671 0.269489
C34   C     C_3   0.794471 0.076925 0.061689 0.257056
C35   C     C_R   0.745563 0.413518 0.923522 -0.046467
C36   C     C_R   0.225471 0.459277 0.855065 0.552765
C37   C     C_R   0.252141 0.412573 0.076676 -0.025362
C38   C     C_R   0.248094 0.907399 0.924703 -0.033371
C39   C     C_R   0.774410 0.841519 0.064100 0.006386
C40   C     C_R   0.477395 0.168786 0.432981 0.064875
C41   C     C_R   0.491184 0.175566 0.579342 -0.020878
C42   C     C_R   0.977395 0.668784 0.432981 0.064015
C43   C     C_R   0.991184 0.675565 0.579342 -0.021332
C44   C     C_R   0.486245 0.277817 0.467628 0.038818
C45   C     C_R   0.491530 0.282713 0.539261 0.081068
C46   C     C_R   0.986247 0.777815 0.467627 0.038451
C47   C     C_R   0.774203 0.458547 0.145318 0.552859
C48   C     C_R   0.991531 0.782712 0.539261 0.080987
C49   C     C_R   0.467981 0.068163 0.547330 -0.168893
C50   C     C_R   0.460805 0.064920 0.473362 -0.104505
C51   C     C_R   0.967980 0.568163 0.547330 -0.168639
C52   C     C_R   0.960804 0.564919 0.473362 -0.104913
C53   C     C_R   0.531385 0.177064 0.850751 0.553168
C54   C     C_R   0.468116 0.178454 0.148924 0.559013
C55   C     C_R   0.034272 0.678394 0.852276 0.553516
C56   C     C_R   0.966524 0.678428 0.148147 0.549342
C57   C     C_3   0.538443 0.375026 0.454464 0.312181
C58   C     C_R   0.694686 0.419144 0.041382 -0.042649
C59   C     C_3   0.545475 0.381737 0.533919 0.374869
C60   C     C_3   0.038447 0.875022 0.454464 0.311963
C61   C     C_3   0.045477 0.881735 0.533919 0.375137
C62   C     C_R   0.762598 0.439850 0.430208 0.003668
C63   C     C_R   0.238756 0.433895 0.571714 -0.050031
C64   C     C_R   0.262600 0.939855 0.430210 0.004047
C65   C     C_R   0.738758 0.933889 0.571716 -0.049480
C66   C     C_R   0.816400 0.384217 0.468489 -0.157464
C67   C     C_R   0.180213 0.433625 0.526374 -0.121325
C68   C     C_R   0.316402 0.884220 0.468491 -0.156176
C69   C     C_R   0.304791 0.438051 0.961010 -0.044055
C70   C     C_R   0.680215 0.933618 0.526377 -0.120894
C71   C     C_R   0.814269 0.374440 0.540869 -0.042520
C72   C     C_R   0.186580 0.426388 0.454088 0.001935
C73   C     C_R   0.314271 0.874441 0.540871 -0.042463
C74   C     C_R   0.686581 0.926380 0.454091 0.003184
C75   C     C_R   0.709566 0.496183 0.543173 0.346042
C76   C     C_R   0.311980 0.439868 0.467094 0.338907
C77   C     C_R   0.209568 0.996187 0.543175 0.345883
C78   C     C_R   0.811981 0.939863 0.467095 0.337279
C79   C     C_R   0.711041 0.503471 0.468742 0.399637
C80   C     C_R   0.195153 0.951616 0.038028 -0.000434
C81   C     C_R   0.305281 0.445178 0.541046 0.357523
C82   C     C_R   0.211044 0.003477 0.468744 0.399921
C83   C     C_R   0.805282 0.945173 0.541047 0.357569
C84   C     C_3   0.849192 0.262762 0.458529 -0.160593
C85   C     C_3   0.114930 0.358807 0.526326 -0.146662
C86   C     C_3   0.349193 0.762764 0.458532 -0.162139
C87   C     C_3   0.614933 0.858799 0.526332 -0.147809
C88   C     C_3   0.846916 0.250740 0.538335 0.341436
C89   C     C_3   0.120779 0.354674 0.446164 0.281250
C90   C     C_3   0.346917 0.750741 0.538337 0.341678
C91   C     C_R   0.792823 0.980778 0.966973 0.011659
C92   C     C_3   0.620780 0.854665 0.446170 0.281702
C93   C     C_R   0.756845 0.419029 0.578859 -0.056846
C94   C     C_R   0.252407 0.416940 0.423418 -0.053695
C95   C     C_R   0.256845 0.919030 0.578861 -0.057572
C96   C     C_R   0.752408 0.916934 0.423420 -0.054298
C97   C     C_R   0.737919 0.364604 0.852482 0.545897
C98   C     C_R   0.261632 0.364736 0.147712 0.539958
C99   C     C_R   0.238329 0.863818 0.852703 0.543330
C100  C     C_R   0.776031 0.813609 0.140105 0.539964
C101  C     C_R   0.726675 0.957773 0.646376 0.588618
C102  C     C_R   0.686833 0.412353 0.968340 0.122403
C103  C     C_R   0.274061 0.960485 0.354769 0.597091
C104  C     C_R   0.226674 0.457776 0.646375 0.590955
C105  C     C_R   0.774059 0.460481 0.354767 0.599877
C106  C     C_R   0.528068 0.177195 0.646216 0.525600
C107  C     C_R   0.465008 0.176133 0.358047 0.615771
C108  C     C_R   0.028067 0.677195 0.646217 0.528554
C109  C     C_R   0.965007 0.676133 0.358047 0.613177
C110  C     C_R   0.740262 0.363706 0.647072 0.544520
C111  C     C_R   0.261251 0.362192 0.353791 0.567370
C112  C     C_R   0.240262 0.863705 0.647072 0.545327
Cr1   Cr    Cr6+3 0.769260 0.163750 0.750730 1.121609
Cr2   Cr    Cr6+3 0.385810 0.322400 0.252290 1.130598
Cr3   Cr    Cr6+3 0.114190 0.822400 0.747710 1.177901
Cr4   Cr    Cr6+3 0.885810 0.822400 0.252290 1.147932
Cr5   Cr    Cr6+3 0.230740 0.163750 0.249270 1.091199
Cr6   Cr    Cr6+3 0.269260 0.663750 0.750730 1.095231
Cr7   Cr    Cr6+3 0.730740 0.663750 0.249270 1.087674
Cr8   Cr    Cr6+3 0.612640 0.009910 0.748780 1.064026
Cr9   Cr    Cr6+3 0.387360 0.009910 0.251220 1.060924
Cr10  Cr    Cr6+3 0.112640 0.509910 0.748780 1.061741
Cr11  Cr    Cr6+3 0.887360 0.509910 0.251220 1.075016
Cr12  Cr    Cr6+3 0.614190 0.322400 0.747710 1.155055
F1    F     F_    0.598211 0.329865 0.422467 -0.644948
F2    F     F_    0.363489 0.458947 0.582287 -0.536594
F3    F     F_    0.159187 0.064127 0.434520 -0.607871
F4    F     F_    0.863491 0.958944 0.582287 -0.534481
F5    F     F_    0.913228 0.249380 0.568982 -0.547476
F6    F     F_    0.069508 0.421368 0.411565 -0.628679
F7    F     F_    0.413228 0.749378 0.568986 -0.549589
F8    F     F_    0.569507 0.921356 0.411572 -0.627482
F9    F     F_    0.508933 0.285886 0.049155 -0.521475
F10   F     F_    0.584546 0.195490 0.963195 -0.587831
F11   F     F_    0.949362 0.770321 0.036273 -0.559880
F12   F     F_    0.520381 0.490183 0.560728 -0.481117
F13   F     F_    0.051443 0.771797 0.963501 -0.536704
F14   F     F_    0.563359 0.438871 0.947570 -0.517269
F15   F     F_    0.428419 0.494645 0.058505 -0.547367
F16   F     F_    0.080811 0.037477 0.936653 -0.533895
F17   F     F_    0.856510 0.121875 0.089892 -0.580766
F18   F     F_    0.098215 0.829860 0.422469 -0.646183
F19   F     F_    0.020383 0.990182 0.560727 -0.478931
F20   F     F_    0.658543 0.554804 0.579287 -0.583213
F21   F     F_    0.377009 0.449763 0.439165 -0.611119
F22   F     F_    0.158545 0.054808 0.579288 -0.581510
F23   F     F_    0.877010 0.949760 0.439166 -0.610315
F24   F     F_    0.659182 0.564116 0.434517 -0.608253
H1    H     H_    0.813761 0.198396 0.430434 0.129389
H2    H     H_    0.435626 0.054287 0.923369 0.045903
H3    H     H_    0.011700 0.492312 0.068746 0.084146
H4    H     H_    0.993895 0.490605 0.933741 0.079520
H5    H     H_    0.016065 0.957522 0.428826 0.239063
H6    H     H_    0.097870 0.853990 0.554275 0.145488
H7    H     H_    0.516060 0.457525 0.428827 0.238363
H8    H     H_    0.597868 0.353991 0.554274 0.146565
H9    H     H_    0.903306 0.268807 0.437184 0.213752
H10   H     H_    0.069231 0.409990 0.545533 0.188469
H11   H     H_    0.403308 0.768806 0.437187 0.212744
H12   H     H_    0.122830 0.269091 0.552022 0.225189
H13   H     H_    0.569234 0.909983 0.545539 0.188389
H14   H     H_    0.859143 0.408833 0.921593 0.149363
H15   H     H_    0.140064 0.377303 0.074636 0.151930
H16   H     H_    0.355279 0.839615 0.932196 0.150644
H17   H     H_    0.736098 0.666338 0.032055 0.103179
H18   H     H_    0.873504 0.424843 0.048489 0.166639
H19   H     H_    0.128322 0.388943 0.948239 0.161433
H20   H     H_    0.361694 0.842462 0.058143 0.152441
H21   H     H_    0.712824 0.725863 0.907575 0.123471
H22   H     H_    0.186903 0.145343 0.057196 0.112680
H23   H     H_    0.313761 0.698398 0.430436 0.126336
H24   H     H_    0.730702 0.146579 0.972009 0.143289
H25   H     H_    0.641008 0.587147 0.073497 0.096570
H26   H     H_    0.332117 0.624867 0.936994 0.117327
H27   H     H_    0.588824 0.446359 0.078489 0.268861
H28   H     H_    0.404976 0.511528 0.928128 0.218783
H29   H     H_    0.103398 0.056883 0.067039 0.214223
H30   H     H_    0.828153 0.166624 0.962731 0.201361
H31   H     H_    0.632827 0.584611 0.945037 0.080124
H32   H     H_    0.342717 0.613527 0.064445 0.103279
H33   H     H_    0.176452 0.131106 0.930284 0.098141
H34   H     H_    0.622834 0.769084 0.552029 0.224442
H35   H     H_    0.747683 0.092230 0.095401 0.128546
H36   H     H_    0.461540 0.985940 0.578105 0.191693
H37   H     H_    0.445895 0.981059 0.447906 0.202340
H38   H     H_    0.961538 0.485940 0.578105 0.192517
H39   H     H_    0.945894 0.481058 0.447906 0.202284
H40   H     H_    0.811460 0.178539 0.557404 0.153074
H41   H     H_    0.127372 0.263093 0.424255 0.235955
H42   H     H_    0.311459 0.678540 0.557406 0.153583
H43   H     H_    0.627374 0.763084 0.424261 0.235316
H44   H     H_    0.447659 0.003552 0.053998 0.084732
O1    O     O_R   0.784290 0.290360 0.830540 -0.518101
O2    O     O_R   0.456020 0.282110 0.333230 -0.477983
O3    O     O_R   0.043980 0.782110 0.666770 -0.475120
O4    O     O_R   0.956020 0.782110 0.333230 -0.477515
O5    O     O_R   0.679070 0.374030 0.674430 -0.455420
O6    O     O_R   0.320930 0.374030 0.325570 -0.450417
O7    O     O_R   0.179070 0.874030 0.674430 -0.453146
O8    O     O_R   0.820930 0.874030 0.325570 -0.442459
O9    O     O_3   0.665360 0.165350 0.749070 -0.298209
O10   O     O_3   0.334640 0.165350 0.250930 -0.306979
O11   O     O_3   0.165360 0.665350 0.749070 -0.304302
O12   O     O_R   0.215710 0.290360 0.169460 -0.527598
O13   O     O_3   0.834640 0.665350 0.250930 -0.332042
O14   O     O_R   0.762610 0.041070 0.825230 -0.487407
O15   O     O_R   0.237390 0.041070 0.174770 -0.501463
O16   O     O_R   0.262610 0.541070 0.825230 -0.500323
O17   O     O_R   0.737390 0.541070 0.174770 -0.527791
O18   O     O_R   0.667390 0.924160 0.829970 -0.504764
O19   O     O_R   0.332610 0.924160 0.170030 -0.521505
O20   O     O_R   0.167390 0.424160 0.829970 -0.512660
O21   O     O_R   0.832610 0.424160 0.170030 -0.482305
O22   O     O_R   0.553980 0.081420 0.821780 -0.531972
O23   O     O_R   0.284290 0.790360 0.830540 -0.531979
O24   O     O_R   0.446020 0.081420 0.178220 -0.544954
O25   O     O_R   0.053980 0.581420 0.821780 -0.552744
O26   O     O_R   0.946020 0.581420 0.178220 -0.547314
O27   O     O_R   0.543210 0.283170 0.826740 -0.436974
O28   O     O_R   0.456790 0.283170 0.173260 -0.427607
O29   O     O_R   0.043210 0.783170 0.826740 -0.418312
O30   O     O_R   0.956790 0.783170 0.173260 -0.447512
O31   O     O_R   0.678350 0.375000 0.822720 -0.469164
O32   O     O_R   0.321650 0.375000 0.177280 -0.476198
O33   O     O_R   0.178350 0.875000 0.822720 -0.458845
O34   O     O_R   0.715710 0.790360 0.169460 -0.513091
O35   O     O_R   0.821650 0.875000 0.177280 -0.452817
O36   O     O_R   0.785060 0.289300 0.670580 -0.496390
O37   O     O_R   0.214940 0.289300 0.329420 -0.497638
O38   O     O_R   0.285060 0.789300 0.670580 -0.497194
O39   O     O_R   0.714940 0.789300 0.329420 -0.494677
O40   O     O_R   0.763330 0.040090 0.676940 -0.453793
O41   O     O_R   0.236670 0.040090 0.323060 -0.430242
O42   O     O_R   0.263330 0.540090 0.676940 -0.453713
O43   O     O_R   0.736670 0.540090 0.323060 -0.431236
O44   O     O_R   0.668160 0.923110 0.670000 -0.506551
O45   O     O_R   0.554690 0.080440 0.673480 -0.511927
O46   O     O_R   0.331840 0.923110 0.330000 -0.527439
O47   O     O_R   0.168160 0.423110 0.670000 -0.501071
O48   O     O_R   0.831840 0.423110 0.330000 -0.521710
O49   O     O_R   0.445310 0.080440 0.326520 -0.487605
O50   O     O_R   0.054690 0.580440 0.673480 -0.508397
O51   O     O_R   0.945310 0.580440 0.326520 -0.488174
O52   O     O_R   0.543980 0.282110 0.666770 -0.478371

loop_
_geom_bond_atom_site_label_1
_geom_bond_atom_site_label_2
_ccdc_geom_bond_type
C53   O27   A    
C7    C10   D    
C56   O30   A    
C21   C26   A    
C34   F17   S    
C53   O22   A    
Cr10  O25   S    
C29   C33   S    
C4    C53   S    
C64   C103  S    
C68   C86   S    
C59   F12   S    
C19   C23   A    
Cr6   O11   S    
C17   C91   A    
C15   C80   A    
C65   C101  S    
C83   F4    S    
C35   C102  A    
C28   H26   S    
C61   H6    S    
C27   H25   S    
C87   H34   S    
C56   O26   A    
C48   C61   S    
C112  O38   A    
C12   C58   A    
Cr10  O50   S    
C62   C105  S    
Cr9   O49   S    
C57   H7    S    
C63   C81   A    
C88   F5    S    
C98   O12   A    
C24   H20   S    
C42   C109  S    
Cr6   O38   S    
C73   C90   S    
Cr3   O33   S    
C35   C97   S    
C95   C112  S    
C111  O6    A    
C36   O16   A    
Cr4   O8    S    
C38   C99   S    
C15   C25   S    
C109  O51   A    
C33   F16   S    
C74   C92   S    
C65   C70   A    
C20   H16   S    
C12   C22   A    
C94   C111  S    
C21   H17   S    
Cr11  O13   S    
C109  O4    A    
C2    C32   S    
C67   C72   A    
C17   C39   A    
C97   O1    A    
C25   O19   A    
Cr6   O42   S    
C60   H5    S    
C3    C96   S    
C19   C37   A    
C60   F18   S    
C41   C49   A    
C104  O47   A    
C78   C83   A    
C61   F19   S    
C20   C24   A    
C26   H21   S    
C78   C96   A    
C8    C9    S    
C106  O45   A    
Cr3   O11   S    
C70   C74   A    
Cr2   O10   S    
Cr6   O23   S    
Cr7   O13   S    
C52   H39   S    
Cr1   O9    S    
C29   H22   S    
Cr12  O52   S    
Cr5   O12   S    
C18   C35   A    
C6    C55   S    
C112  O7    A    
Cr4   O13   S    
C92   H43   S    
Cr7   O39   S    
Cr8   O45   S    
C55   O29   A    
C76   C94   A    
C84   H1    S    
C104  O42   A    
Cr12  O27   S    
C103  O41   A    
C29   H29   S    
C87   C92   S    
C110  O5    A    
Cr8   O18   S    
Cr8   O9    S    
C105  O43   A    
C7    C56   S    
C12   C47   S    
C70   C87   S    
Cr11  O51   S    
C37   C98   S    
C46   C48   A    
C16   C26   A    
C82   F3    S    
C63   C67   A    
C9    H2    S    
C67   C85   S    
Cr7   O17   S    
C41   C106  S    
C62   C66   A    
Cr4   O35   S    
C27   C31   S    
C86   H23   S    
C31   C102  S    
C74   C96   A    
C5    C54   S    
C28   C32   S    
C32   F15   S    
C55   O25   A    
C86   C90   S    
C3    O39   A    
C6    C11   D    
C30   C34   S    
C63   C104  S    
Cr1   O36   S    
C68   C73   A    
Cr3   O7    S    
Cr12  O5    S    
C77   C95   A    
C89   F6    S    
C97   O31   A    
C31   H31   S    
C60   C61   S    
C108  O3    A    
C65   C83   A    
Cr4   O4    S    
C14   C23   A    
C100  O35   A    
Cr6   O16   S    
Cr9   O24   S    
C66   C71   A    
C13   C33   S    
C106  O52   A    
C10   H3    S    
C5    C8    D    
C49   H36   S    
C20   C38   A    
C54   O24   A    
Cr10  O47   S    
C21   C39   A    
Cr12  O31   S    
Cr5   O41   S    
C44   C57   S    
C84   H9    S    
C43   C48   A    
C30   H24   S    
C101  O44   A    
C3    O8    A    
C30   H30   S    
C34   H35   S    
C1    C16   S    
C19   H15   S    
C41   C45   A    
C31   F14   S    
C100  O34   A    
C1    O14   A    
C64   C82   A    
C13   C38   A    
C99   O33   A    
C78   F23   S    
C36   O20   A    
C5    F9    S    
C23   H19   S    
C90   F7    S    
Cr7   O43   S    
C15   C24   A    
C87   H13   S    
Cr11  O26   S    
C40   C44   A    
C76   F21   S    
C10   C11   S    
C40   C107  S    
C42   C46   A    
C111  O37   A    
C14   C69   A    
Cr10  O20   S    
Cr10  O11   S    
C75   C79   A    
C17   C34   S    
C73   C95   A    
C27   H27   S    
Cr5   O10   S    
C2    C69   A    
C64   C68   A    
C7    F11   S    
C44   C45   A    
C75   C93   A    
Cr1   O40   S    
C4    F10   S    
Cr11  O48   S    
C86   H11   S    
C107  O49   A    
Cr3   O3    S    
C45   C59   S    
C85   C89   S    
Cr2   O2    S    
C81   F2    S    
C46   C60   S    
C1    O18   A    
C18   C22   A    
Cr1   O1    S    
Cr2   O6    S    
Cr3   O29   S    
C47   O17   A    
C28   H28   S    
C84   C88   S    
Cr2   O28   S    
C30   C91   S    
Cr5   O15   S    
C27   C58   S    
C76   C81   A    
Cr9   O10   S    
C33   H33   S    
C59   H8    S    
C85   H12   S    
C54   O28   A    
C79   F24   S    
C71   C93   A    
C28   C69   S    
C98   O32   A    
C92   F8    S    
C93   C110  S    
Cr12  O9    S    
Cr1   O14   S    
C6    F13   S    
Cr11  O21   S    
C72   C94   A    
C51   C52   A    
C51   H38   S    
C110  O36   A    
Cr8   O44   S    
C57   F1    S    
C14   C36   S    
C72   C89   S    
C18   H14   S    
C2    C37   A    
C43   C51   A    
C39   C100  S    
C29   C80   S    
C99   O23   A    
C77   C82   A    
C8    H44   S    
C103  O46   A    
C40   C50   A    
C58   C102  A    
C47   O21   A    
Cr5   O37   S    
C105  O48   A    
C101  O40   A    
C43   C108  S    
Cr9   O19   S    
Cr4   O30   S    
C62   C79   A    
C13   C80   A    
C57   C59   S    
C75   F20   S    
C66   C84   S    
C71   C88   S    
C22   H18   S    
C11   H4    S    
C88   H40   S    
C90   H42   S    
C16   C91   A    
C49   C50   A    
C85   H10   S    
C108  O50   A    
C89   H41   S    
C32   H32   S    
Cr2   O32   S    
C4    C9    D    
C25   O15   A    
C50   H37   S    
Cr8   O22   S    
C77   F22   S    
C107  O2    A    
Cr9   O46   S    
Cr7   O34   S    
C42   C52   A    
