data_mof_unit_19320.cif
_audit_creation_date              2012-12-11T14:14:04-0500
_audit_creation_method            fapswitch 2.2
_symmetry_space_group_name_H-M    P1
_symmetry_Int_Tables_number       1
_space_group_crystal_system       triclinic
_cell_length_a                    17.152267
_cell_length_b                    7.253584
_cell_length_c                    16.993135
_cell_angle_alpha                 89.04645
_cell_angle_beta                  99.174239
_cell_angle_gamma                 88.959548
_cell_volume                      2086.41006232

loop_
_atom_site_label
_atom_site_type_symbol
_atom_type_description
_atom_site_fract_x
_atom_site_fract_y
_atom_site_fract_z
_atom_type_partial_charge
O1    O     O_R   0.414560 0.494370 0.416770 -0.533485
O2    O     O_R   0.585440 0.994370 0.583230 -0.528323
O3    O     O_R   0.578370 0.819590 0.429320 -0.511942
O4    O     O_R   0.421630 0.319590 0.570680 -0.524007
C1    C     C_R   0.603895 0.654906 0.413336 0.735340
C2    C     C_R   0.396768 0.155459 0.587183 0.729351
O5    O     O_R   0.414740 0.823790 0.407360 -0.535825
O6    O     O_R   0.585260 0.323790 0.592640 -0.511657
O7    O     O_R   0.420650 0.998510 0.561120 -0.549711
O8    O     O_R   0.579350 0.498510 0.438880 -0.558724
C3    C     C_R   0.390335 0.656901 0.384032 0.841090
C4    C     C_R   0.611347 0.151929 0.615560 0.777059
O9    O     O_3   0.502130 0.662240 0.550470 -0.372017
O10   O     O_3   0.497870 0.162240 0.449530 -0.379432
V1    V     V_3+5 0.499600 0.935390 0.490640 1.601099
V2    V     V_3+5 0.500400 0.435390 0.509360 1.597263
C5    C     C_2   0.752830 0.185272 0.819924 -0.163357
C6    C     C_2   0.209621 0.750551 0.221674 -0.189876
C7    C     C_2   0.828857 0.137546 0.814244 -0.231313
C8    C     C_2   0.165201 0.604884 0.193948 -0.244329
C9    C     C_2   0.693135 0.238083 0.748069 -0.100830
C10   C     C_2   0.262180 0.740021 0.300188 -0.117122
C11   C     C_2   0.675825 0.120627 0.685635 -0.206047
C12   C     C_2   0.333662 0.650494 0.308943 -0.155775
C13   C     C_R   0.334693 0.145333 0.638838 -0.130999
C14   C     C_R   0.666771 0.642435 0.362241 -0.126766
C15   C     C_R   0.168406 0.124091 0.864688 -0.172107
C16   C     C_R   0.832784 0.623968 0.135753 -0.164377
C17   C     C_R   0.301650 0.221098 0.849977 -0.090810
C18   C     C_R   0.697556 0.717810 0.146994 -0.094225
C19   C     C_R   0.241348 0.200498 0.896867 -0.080897
C20   C     C_R   0.756773 0.682828 0.099992 -0.064497
C21   C     C_R   0.153633 0.083652 0.782585 -0.054188
C22   C     C_R   0.849123 0.593985 0.219054 -0.046697
C23   C     C_R   0.216319 0.089091 0.735999 0.112322
C24   C     C_R   0.785859 0.594247 0.264940 0.123278
C25   C     C_R   0.291639 0.155653 0.770368 -0.011987
C26   C     C_R   0.709671 0.665050 0.229878 -0.006303
C27   C     C_R   0.353626 0.159419 0.722842 -0.044393
C28   C     C_R   0.648880 0.679238 0.278924 -0.062714
C29   C     C_R   0.257312 0.100638 0.604589 -0.145087
C30   C     C_R   0.742258 0.572091 0.395707 -0.157773
C31   C     C_R   0.205133 0.035925 0.654655 0.010180
C32   C     C_R   0.797145 0.525139 0.345092 0.012116
O11   O     O_R   0.920750 0.773600 0.061260 -0.531944
O12   O     O_R   0.079250 0.273600 0.938740 -0.528570
O13   O     O_R   0.085340 0.439850 0.092570 -0.531370
O14   O     O_R   0.914660 0.939850 0.907430 -0.536536
C33   C     C_R   0.109484 0.606287 0.116971 0.701043
C34   C     C_R   0.889307 0.111744 0.885429 0.700448
O15   O     O_R   0.921720 0.444130 0.070790 -0.537583
O16   O     O_R   0.078280 0.944130 0.929210 -0.542396
O17   O     O_R   0.914480 0.269530 0.916840 -0.536084
O18   O     O_R   0.085520 0.769530 0.083160 -0.534502
C35   C     C_R   0.896695 0.612859 0.086255 0.660591
C36   C     C_R   0.104143 0.112582 0.914421 0.667110
O19   O     O_3   0.997840 0.601520 0.949550 -0.377183
O20   O     O_3   0.002160 0.101520 0.050450 -0.372362
V3    V     V_3+5 0.000400 0.328340 0.009360 1.530395
V4    V     V_3+5 0.999600 0.828340 0.990640 1.507304
C37   C     C_1   0.727626 0.193906 0.897367 0.342127
N1    N     N_1   0.707541 0.201145 0.959133 -0.323310
C38   C     C_1   0.209164 0.921842 0.177210 0.396601
N2    N     N_1   0.208571 0.059228 0.141697 -0.311913
C39   C     C_2   0.069731 0.069983 0.744339 0.483244
H1    H     H_    0.027618 0.998010 0.774316 0.029956
O21   O     O_2   0.046289 0.146897 0.680254 -0.484437
C40   C     C_2   0.933619 0.587048 0.257687 0.472134
H2    H     H_    0.978437 0.524066 0.227817 0.020466
O22   O     O_2   0.954378 0.659301 0.321830 -0.497581
C41   C     C_1   0.857697 0.155649 0.738980 0.329087
N3    N     N_1   0.879572 0.170971 0.678278 -0.211485
C42   C     C_1   0.167787 0.438856 0.243565 0.400071
N4    N     N_1   0.169763 0.307350 0.283404 -0.320435
C43   C     C_2   0.653406 0.420283 0.751471 0.509095
H3    H     H_    0.628428 0.456410 0.804079 0.070636
O23   O     O_2   0.653905 0.536590 0.698962 -0.511515
C44   C     C_2   0.228850 0.818726 0.368080 0.399575
H4    H     H_    0.180757 0.919721 0.356406 0.123371
O24   O     O_2   0.251038 0.764515 0.436540 -0.551171
C45   C     C_2   0.714930 0.933454 0.691366 0.480657
H5    H     H_    0.731665 0.863611 0.748719 0.084357
O25   O     O_2   0.730237 0.857659 0.631838 -0.489254
C46   C     C_2   0.359732 0.549226 0.241613 0.394401
H6    H     H_    0.326095 0.558570 0.181958 0.097615
O26   O     O_2   0.419566 0.452280 0.252353 -0.520273
C47   C     C_2   0.437940 0.158100 0.761220 0.336000
H7    H     H_    0.456058 0.080969 0.816598 0.082468
O27   O     O_2   0.487241 0.245634 0.733003 -0.548068
C48   C     C_2   0.564878 0.712677 0.243326 0.399391
H8    H     H_    0.538502 0.630134 0.193778 0.096438
O28   O     O_2   0.525355 0.834851 0.267340 -0.510567
C49   C     C_2   0.231573 0.123191 0.516969 0.460791
H9    H     H_    0.274573 0.131694 0.476744 0.039946
O29   O     O_2   0.161797 0.143673 0.488905 -0.498906
C50   C     C_2   0.762466 0.543128 0.483803 0.435672
H10   H     H_    0.717936 0.502977 0.519030 0.078871
O30   O     O_2   0.828794 0.573046 0.518659 -0.475365
C51   C     C_1   0.369566 0.329178 0.882204 0.319871
N5    N     N_1   0.423334 0.415791 0.908173 -0.301474
C52   C     C_1   0.627792 0.820388 0.108830 0.331713
N6    N     N_1   0.572613 0.902783 0.077811 -0.284516
C53   C     C_2   0.151021 0.884483 0.624912 0.498397
H11   H     H_    0.130204 0.869142 0.561822 0.137298
O31   O     O_2   0.133325 0.766419 0.670642 -0.521645
C54   C     C_2   0.856463 0.374362 0.371885 0.463302
H12   H     H_    0.882504 0.355910 0.433894 0.140987
O32   O     O_2   0.873961 0.261694 0.324640 -0.518682
C55   C     C_1   0.252742 0.273028 0.976971 0.355170
N7    N     N_1   0.262416 0.333839 0.040209 -0.328374
C56   C     C_1   0.740266 0.713511 0.014058 0.351244
N8    N     N_1   0.727209 0.737156 0.945653 -0.361845

loop_
_geom_bond_atom_site_label_1
_geom_bond_atom_site_label_2
_ccdc_geom_bond_type
C18   C20   A    
C47   H7    S    
O11   V4    S    
C52   N6    T    
C20   C56   S    
O12   V3    S    
C42   N4    T    
C7    C41   S    
C56   N8    T    
O1    C3    A    
C27   C47   S    
O2    C4    A    
C2    O7    A    
C45   H5    S    
O17   V3    S    
C21   C39   S    
O13   C33   A    
O18   V4    S    
C15   C21   A    
O5    C3    A    
C4    C11   S    
C49   H9    S    
C30   C50   S    
C23   C25   A    
C46   O26   D    
C44   O24   D    
C6    C38   S    
C2    C13   S    
C17   C25   A    
C54   H12   S    
C33   O18   A    
C3    C12   S    
C18   C26   A    
O16   V4    S    
C5    C37   S    
C29   C49   S    
C40   H2    S    
C39   O21   D    
C50   O30   D    
C23   C31   A    
O15   C35   A    
O14   C34   A    
C16   C22   A    
O6    V2    S    
C17   C19   A    
C29   C31   A    
C30   C32   A    
C45   O25   D    
C16   C35   S    
O14   V4    S    
C34   O17   A    
C17   C51   S    
C15   C19   A    
C16   C20   A    
C46   H6    S    
C10   C44   S    
O4    C2    A    
C13   C29   A    
C15   C36   S    
C5    C7    D    
O19   V4    S    
O20   V3    S    
C5    C9    S    
C1    C14   S    
O4    V2    S    
C43   H3    S    
C8    C33   S    
C48   O28   D    
C51   N5    T    
O6    C4    A    
C50   H10   S    
C19   C55   S    
C53   O31   D    
O1    V2    S    
O2    V1    S    
C43   O23   D    
C40   O22   D    
C9    C11   D    
C10   C12   D    
C24   C32   A    
O15   V3    S    
C22   C40   S    
O3    V1    S    
C14   C30   A    
C11   C45   S    
C6    C10   S    
O3    C1    A    
C32   C54   S    
C9    C43   S    
C24   C26   A    
C12   C46   S    
C1    O8    A    
C25   C27   A    
O8    V2    S    
C55   N7    T    
C13   C27   A    
C26   C28   A    
C44   H4    S    
C7    C34   S    
C14   C28   A    
C48   H8    S    
C54   O32   D    
C18   C52   S    
O5    V1    S    
C21   C23   A    
C22   C24   A    
C8    C42   S    
C6    C8    D    
O7    V1    S    
C37   N1    T    
C31   C53   S    
O13   V3    S    
C38   N2    T    
C41   N3    T    
O11   C35   A    
C49   O29   D    
C39   H1    S    
O9    V2    S    
O12   C36   A    
C53   H11   S    
C47   O27   D    
O10   V1    S    
C28   C48   S    
O16   C36   A    
