data_mof_unit_56476.cif
_audit_creation_date              2012-12-11T15:34:20-0500
_audit_creation_method            fapswitch 2.2
_symmetry_space_group_name_H-M    P1
_symmetry_Int_Tables_number       1
_space_group_crystal_system       triclinic
_cell_length_a                    15.003987
_cell_length_b                    15.011021
_cell_length_c                    34.987882
_cell_angle_alpha                 90.676314
_cell_angle_beta                  90.334329
_cell_angle_gamma                 60.094177
_cell_volume                      6830.4025387

loop_
_atom_site_label
_atom_site_type_symbol
_atom_type_description
_atom_site_fract_x
_atom_site_fract_y
_atom_site_fract_z
_atom_type_partial_charge
C1    C     C_R   0.302140 0.608438 0.555806 0.552547
C2    C     C_R   0.662614 0.659037 0.668990 -0.020772
C3    C     C_R   0.268968 0.608673 0.269349 0.052758
C4    C     C_R   0.177033 0.649256 0.291184 0.029186
C5    C     C_R   0.080090 0.693553 0.272613 0.033830
C6    C     C_R   0.076860 0.698725 0.232752 -0.115270
C7    C     C_R   0.167233 0.658953 0.211358 -0.000897
C8    C     C_R   0.218280 0.552775 0.352253 0.256736
C9    C     C_R   0.245677 0.545994 0.390554 -0.082069
C10   C     C_R   0.191747 0.728513 0.392288 -0.003866
C11   C     C_R   0.167225 0.733629 0.353322 -0.079886
C12   C     C_R   0.184289 0.645601 0.333092 0.014382
C13   C     C_R   0.589172 0.741120 0.646479 -0.005077
C14   C     C_R   0.239304 0.631263 0.410360 -0.064326
C15   C     C_R   0.735211 0.027153 0.943595 0.515442
C16   C     C_R   0.744990 0.722731 0.945223 0.596912
C17   C     C_R   0.039526 0.732775 0.948461 0.592966
C18   C     C_R   0.722963 0.040186 0.052797 0.543764
C19   C     C_R   0.732626 0.734184 0.054683 0.597026
C20   C     C_R   0.030365 0.742961 0.057563 0.595160
C21   C     C_R   0.575339 0.722032 0.607700 0.246979
C22   C     C_R   0.677107 0.676939 0.787497 0.389868
C23   C     C_R   0.663397 0.669589 0.710644 0.337504
C24   C     C_R   0.732457 0.594412 0.852346 0.225588
C25   C     C_R   0.745284 0.605084 0.891982 0.029474
C26   C     C_R   0.658581 0.791064 0.884107 -0.131555
C27   C     C_R   0.645063 0.780140 0.845628 -0.126541
C28   C     C_R   0.684112 0.682739 0.829177 0.043332
C29   C     C_R   0.611373 0.588797 0.555210 0.565023
C30   C     C_R   0.712336 0.704650 0.907417 0.011109
C31   C     C_R   0.722361 0.077550 0.906158 -0.054123
C32   C     C_R   0.625817 0.130946 0.887245 0.004478
C33   C     C_R   0.623747 0.152300 0.847794 0.303731
C34   C     C_R   0.716423 0.122706 0.828305 0.047541
C35   C     C_R   0.809079 0.080292 0.848154 -0.100401
C36   C     C_R   0.812190 0.057775 0.886604 -0.103078
C37   C     C_R   0.721192 0.213065 0.770697 -0.086637
C38   C     C_R   0.714241 0.227502 0.731155 0.026740
C39   C     C_R   0.704857 0.155825 0.707163 0.047471
C40   C     C_R   0.590636 0.300066 0.553545 0.574547
C41   C     C_R   0.709070 0.066858 0.722898 0.065469
C42   C     C_R   0.715396 0.054942 0.762925 0.227022
C43   C     C_R   0.718477 0.129787 0.786529 0.030278
C44   C     C_R   0.571946 0.235840 0.655469 -0.024921
C45   C     C_R   0.547936 0.266344 0.617548 -0.184035
C46   C     C_R   0.728682 0.190869 0.601373 0.252110
C47   C     C_R   0.754668 0.157717 0.639320 0.267157
C48   C     C_R   0.676676 0.181937 0.666608 0.017048
C49   C     C_R   0.624359 0.247737 0.590657 -0.016612
C50   C     C_R   0.098710 0.691558 0.912207 0.007702
C51   C     C_R   0.297905 0.611171 0.446469 0.520013
C52   C     C_R   0.161128 0.730785 0.898223 -0.030971
C53   C     C_R   0.186201 0.720363 0.859335 -0.124851
C54   C     C_R   0.155387 0.667157 0.834596 0.072404
C55   C     C_R   0.106113 0.616235 0.848957 0.323487
C56   C     C_R   0.079084 0.626595 0.887720 0.238910
C57   C     C_R   0.256226 0.583268 0.775034 0.018988
C58   C     C_R   0.261969 0.579296 0.735121 -0.123644
C59   C     C_R   0.187202 0.658546 0.713013 0.016708
C60   C     C_R   0.105919 0.743912 0.730770 -0.112102
C61   C     C_R   0.095505 0.749506 0.770579 0.022952
C62   C     C_R   0.608963 0.591458 0.445676 0.580805
C63   C     C_R   0.171149 0.668153 0.793111 0.067415
C64   C     C_R   0.198419 0.732628 0.651376 -0.104495
C65   C     C_R   0.224237 0.720463 0.612793 -0.121078
C66   C     C_R   0.235842 0.552998 0.612276 0.213752
C67   C     C_R   0.211905 0.565215 0.651214 -0.071709
C68   C     C_R   0.196960 0.653055 0.671157 -0.007404
C69   C     C_R   0.248724 0.628552 0.593119 0.025420
C70   C     C_R   0.690655 0.718085 0.090944 -0.042639
C71   C     C_R   0.619130 0.803772 0.113261 0.225688
C72   C     C_R   0.606333 0.791632 0.152117 0.266045
C73   C     C_R   0.588719 0.300514 0.444016 0.579793
C74   C     C_R   0.662902 0.694874 0.168908 0.014026
C75   C     C_R   0.723592 0.607482 0.146254 0.183025
C76   C     C_R   0.734711 0.618007 0.106856 -0.027380
C77   C     C_R   0.590418 0.661422 0.227719 0.303643
C78   C     C_R   0.588736 0.654993 0.267424 -0.033416
C79   C     C_R   0.654122 0.675053 0.290225 0.049023
C80   C     C_R   0.721617 0.701640 0.273072 -0.006273
C81   C     C_R   0.724941 0.706343 0.233393 -0.067451
C82   C     C_R   0.659780 0.686009 0.210596 0.104698
C83   C     C_R   0.560766 0.735003 0.352099 0.228490
C84   C     C_R   0.635091 0.621814 0.592145 0.002897
C85   C     C_R   0.549740 0.717197 0.390617 0.201644
C86   C     C_R   0.725877 0.572764 0.390533 0.229505
C87   C     C_R   0.735117 0.589643 0.351739 0.224004
C88   C     C_R   0.650874 0.667633 0.332097 -0.058339
C89   C     C_R   0.629629 0.630103 0.409442 -0.064548
C90   C     C_R   0.700333 0.103652 0.088398 -0.017092
C91   C     C_R   0.782669 0.097573 0.110601 0.227938
C92   C     C_R   0.767724 0.125156 0.148852 -0.038289
C93   C     C_R   0.671915 0.162557 0.165720 0.045136
C94   C     C_R   0.584465 0.186413 0.143132 0.062531
C95   C     C_R   0.714956 0.545770 0.613984 -0.188358
C96   C     C_R   0.598747 0.157908 0.103745 -0.042065
C97   C     C_R   0.650945 0.261419 0.226823 -0.010386
C98   C     C_R   0.651330 0.262899 0.266742 -0.147373
C99   C     C_R   0.669453 0.176448 0.287559 0.012021
C100  C     C_R   0.691616 0.084764 0.268604 0.320718
C101  C     C_R   0.690611 0.081902 0.228602 0.289403
C102  C     C_R   0.668463 0.170506 0.207629 0.028216
C103  C     C_R   0.730384 0.200826 0.350240 -0.113623
C104  C     C_R   0.714030 0.228019 0.388797 0.191856
C105  C     C_R   0.558425 0.214278 0.386746 0.212738
C106  C     C_R   0.730048 0.562937 0.651933 -0.015213
C107  C     C_R   0.574360 0.190462 0.347605 0.301822
C108  C     C_R   0.659183 0.186464 0.329282 -0.028004
C109  C     C_R   0.623440 0.242542 0.407114 -0.027288
C110  C     C_R   0.092668 0.702664 0.093164 0.007359
C111  C     C_R   0.100223 0.615567 0.111938 0.143752
C112  C     C_R   0.134380 0.595113 0.150040 0.006415
C113  C     C_R   0.160422 0.662057 0.169389 -0.077334
C114  C     C_R   0.166557 0.740087 0.149488 -0.007956
C115  C     C_R   0.137807 0.756301 0.110659 0.243897
C116  C     C_R   0.262626 0.613038 0.229443 -0.019263
Cr1   Cr    Cr6+3 0.421670 0.426920 0.499620 1.159822
Cr2   Cr    Cr6+3 0.427030 0.651190 0.500980 1.157435
Cr3   Cr    Cr6+3 0.651280 0.421870 0.499380 1.185678
Cr4   Cr    Cr6+3 0.910810 0.908010 0.001130 1.157817
Cr5   Cr    Cr6+3 0.682800 0.909890 0.998370 1.118781
Cr6   Cr    Cr6+3 0.908370 0.682300 0.002180 1.200222
H1    H     H_    0.763996 0.469780 0.601937 0.161638
H2    H     H_    0.886765 0.018361 0.900343 0.166876
H3    H     H_    0.725284 0.268670 0.789604 0.200076
H4    H     H_    0.467769 0.310639 0.609421 0.185375
H5    H     H_    0.880082 0.059571 0.833299 0.161068
H6    H     H_    0.207303 0.504902 0.666239 0.168496
H7    H     H_    0.326149 0.514532 0.721002 0.108255
H8    H     H_    0.228925 0.754907 0.848004 0.122995
H9    H     H_    0.048687 0.805117 0.713273 0.141243
H10   H     H_    0.185925 0.801554 0.666317 0.157477
H11   H     H_    0.231088 0.781026 0.599031 0.189488
H12   H     H_    0.535851 0.635340 0.280666 0.170271
H13   H     H_    0.771618 0.718339 0.290421 0.188377
H14   H     H_    0.777708 0.726603 0.220381 0.152229
H15   H     H_    0.635715 0.332578 0.281971 0.155688
H16   H     H_    0.832893 0.113046 0.166225 0.178596
H17   H     H_    0.797225 0.194801 0.336029 0.195332
H18   H     H_    0.136980 0.805691 0.338248 0.188310
H19   H     H_    0.331707 0.581475 0.212172 0.204147
H20   H     H_    0.003525 0.732493 0.218003 0.123050
H21   H     H_    0.278879 0.471456 0.403951 0.205130
H22   H     H_    0.631999 0.868114 0.895037 0.176783
H23   H     H_    0.606413 0.848520 0.828290 0.195006
N1    N     N_R   0.646115 0.614970 0.770878 -0.120760
N2    N     N_R   0.639712 0.611156 0.733042 -0.160223
N3    N     N_R   0.693046 0.732657 0.727177 -0.191620
N4    N     N_R   0.699246 0.736557 0.765027 -0.149914
O1    O     O_R   0.502070 0.323090 0.541280 -0.469683
O2    O     O_R   0.520720 0.641670 0.461580 -0.447010
O3    O     O_R   0.674120 0.502090 0.457500 -0.430330
O4    O     O_R   0.640110 0.338380 0.459630 -0.442466
O5    O     O_3   0.499990 0.499990 0.499990 -0.316953
O6    O     O_R   0.017640 0.822070 0.960410 -0.479988
O7    O     O_R   0.822000 0.989470 0.960340 -0.499011
O8    O     O_R   0.666920 0.007430 0.955290 -0.525578
O9    O     O_R   0.694410 0.812480 0.959650 -0.512030
O10   O     O_R   0.831550 0.656950 0.958960 -0.420891
O11   O     O_R   0.998590 0.685540 0.963930 -0.452698
O12   O     O_R   0.338340 0.520690 0.539540 -0.445240
O13   O     O_R   0.008220 0.831200 0.045060 -0.417014
O14   O     O_R   0.813270 0.997930 0.038810 -0.443197
O15   O     O_R   0.657500 0.016560 0.039940 -0.482573
O16   O     O_R   0.685680 0.820940 0.038120 -0.446472
O17   O     O_R   0.822130 0.666070 0.043610 -0.453999
O18   O     O_R   0.989860 0.694000 0.042400 -0.454190
O19   O     O_3   0.833990 0.833400 0.000560 -0.307915
O20   O     O_R   0.324760 0.674070 0.543580 -0.504590
O21   O     O_R   0.522400 0.640310 0.540110 -0.448995
O22   O     O_R   0.675940 0.500630 0.542210 -0.501862
O23   O     O_R   0.641790 0.337020 0.538150 -0.464236
O24   O     O_R   0.500260 0.324550 0.456580 -0.456603
O25   O     O_R   0.336660 0.522040 0.461020 -0.491553
O26   O     O_R   0.322940 0.675540 0.458880 -0.493472
Cl1   Cl    Cl    0.885375 0.087877 0.653103 -0.496515
C117  C     C_2   0.712670 0.320025 0.715470 0.270084
H24   H     H_    0.704236 0.335200 0.685060 0.084087
O27   O     O_2   0.721351 0.380777 0.736482 -0.418739
Cl2   Cl    Cl    0.506660 0.217255 0.822148 -0.423393
C118  C     C_2   0.702386 0.988345 0.698382 0.319166
H25   H     H_    0.678073 0.937683 0.710416 0.182669
O28   O     O_2   0.725729 0.977495 0.664601 -0.437389
Cl3   Cl    Cl    0.719998 0.946232 0.784220 -0.574272
C119  C     C_2   0.483831 0.266538 0.682106 0.253571
H26   H     H_    0.405830 0.306748 0.671047 0.141148
O29   O     O_2   0.495601 0.248972 0.716273 -0.472713
Cl4   Cl    Cl    0.480391 0.821772 0.579423 -0.424136
Cl5   Cl    Cl    0.827342 0.159620 0.567581 -0.419167
C120  C     C_2   0.203392 0.781779 0.922986 0.287385
H27   H     H_    0.226292 0.833187 0.910492 0.118647
O30   O     O_2   0.218328 0.762951 0.957035 -0.420557
Cl6   Cl    Cl    0.017987 0.558864 0.903648 -0.456381
C121  C     C_2   0.340624 0.496094 0.796083 0.306233
H28   H     H_    0.398583 0.430119 0.780212 0.172847
O31   O     O_2   0.348352 0.496669 0.830814 -0.445423
C122  C     C_2   0.002776 0.840973 0.786606 0.267873
H29   H     H_    0.952764 0.903178 0.767770 0.129280
O32   O     O_2   0.979601 0.848376 0.820324 -0.502568
C123  C     C_2   0.791639 0.512555 0.916564 0.334481
H30   H     H_    0.846721 0.437945 0.904852 0.183907
O33   O     O_2   0.766040 0.517956 0.949956 -0.430095
Cl7   Cl    Cl    0.072530 0.544220 0.817544 -0.398446
Cl8   Cl    Cl    0.250684 0.440778 0.589718 -0.526320
Cl9   Cl    Cl    0.545071 0.928535 0.094218 -0.372813
C124  C     C_2   0.790546 0.523742 0.082774 0.364429
H31   H     H_    0.853273 0.453925 0.094545 0.191005
O34   O     O_2   0.764337 0.522064 0.049783 -0.413669
Cl10  Cl    Cl    0.850931 0.507544 0.327114 -0.403544
Cl11  Cl    Cl    0.503360 0.641159 0.200204 -0.531539
Cl12  Cl    Cl    0.521322 0.899137 0.180495 -0.310699
C125  C     C_2   0.816579 0.476788 0.672599 0.316115
H32   H     H_    0.852013 0.399439 0.660716 0.128722
O35   O     O_2   0.851791 0.490905 0.702113 -0.382034
Cl13  Cl    Cl    0.460014 0.841703 0.328391 -0.356945
Cl14  Cl    Cl    0.434019 0.806384 0.413890 -0.375325
Cl15  Cl    Cl    0.785353 0.484759 0.167774 -0.521949
Cl16  Cl    Cl    0.837544 0.479927 0.414591 -0.325347
Cl17  Cl    Cl    0.908862 0.051616 0.093576 -0.428287
C126  C     C_2   0.509329 0.184445 0.078214 0.287327
H33   H     H_    0.512190 0.203758 0.048618 0.124649
O36   O     O_2   0.433999 0.181211 0.089290 -0.396671
Cl18  Cl    Cl    0.482847 0.174001 0.320859 -0.272798
C127  C     C_2   0.632643 0.356210 0.206984 0.338921
H34   H     H_    0.628203 0.419781 0.223618 0.187197
O37   O     O_2   0.622003 0.365491 0.172395 -0.442801
C128  C     C_2   0.524229 0.844274 0.664460 0.299798
H35   H     H_    0.504079 0.850910 0.694490 0.106277
O38   O     O_2   0.495597 0.923152 0.646478 -0.374230
Cl19  Cl    Cl    0.721688 0.973385 0.294934 -0.468597
Cl20  Cl    Cl    0.718073 0.966361 0.204688 -0.522032
Cl21  Cl    Cl    0.809937 0.244222 0.411893 -0.394856
C129  C     C_2   0.479316 0.244261 0.160032 0.378088
H36   H     H_    0.414817 0.297629 0.142753 0.160952
O39   O     O_2   0.463129 0.233194 0.193309 -0.378765
Cl22  Cl    Cl    0.455805 0.207607 0.408801 -0.354284
Cl23  Cl    Cl    0.072731 0.526901 0.087978 -0.538643
Cl24  Cl    Cl    0.168234 0.836235 0.083178 -0.342011
Cl25  Cl    Cl    0.780662 0.470654 0.831548 -0.488088
C130  C     C_2   0.372024 0.562002 0.287773 0.271378
H37   H     H_    0.379601 0.568530 0.318364 0.103302
O40   O     O_2   0.450434 0.514915 0.268879 -0.520504
C131  C     C_2   0.138244 0.505817 0.169940 0.319216
H38   H     H_    0.086149 0.478389 0.161871 0.186071
O41   O     O_2   0.201185 0.460335 0.195042 -0.413709
C132  C     C_2   0.980309 0.733541 0.292952 0.293099
H39   H     H_    0.909159 0.771654 0.276803 0.143554
O42   O     O_2   0.975352 0.723317 0.327288 -0.422368
Cl26  Cl    Cl    0.235806 0.441437 0.328166 -0.369894
C133  C     C_2   0.198923 0.806840 0.170105 0.339173
H40   H     H_    0.250985 0.777468 0.194218 0.139049
O43   O     O_2   0.165002 0.896541 0.161364 -0.349465
C134  C     C_2   0.166229 0.824951 0.413247 0.346274
H41   H     H_    0.161680 0.828398 0.444181 0.152843
O44   O     O_2   0.147576 0.902809 0.396119 -0.390200
C135  C     C_2   0.528962 0.165652 0.909011 0.322052
H42   H     H_    0.525309 0.186588 0.938990 0.116908
O45   O     O_2   0.453474 0.168898 0.894284 -0.383598

loop_
_geom_bond_atom_site_label_1
_geom_bond_atom_site_label_2
_ccdc_geom_bond_type
Cr1   O25   S    
C121  O31   D    
C55   C56   A    
C22   N1    A    
C120  H27   S    
Cr6   O17   S    
C10   C134  S    
C41   C42   A    
C54   C55   A    
C35   C36   A    
C5    C132  S    
C9    C14   A    
C92   H16   S    
C127  H34   S    
C126  O36   D    
C114  C115  A    
C9    H21   S    
C126  H33   S    
C39   C41   A    
C118  H25   S    
C40   O1    A    
C99   C108  S    
C105  C107  A    
C46   C49   A    
C121  H28   S    
C26   C27   A    
C111  Cl23  S    
C80   H13   S    
C62   O3    A    
C81   H14   S    
C64   C68   A    
C27   C28   A    
C36   H2    S    
C15   O8    A    
C3    C116  A    
C31   C36   A    
C14   C51   S    
C5    C6    A    
C124  O34   D    
C119  O29   D    
C66   C69   A    
C54   C63   S    
C75   Cl15  S    
C58   H7    S    
C16   C30   S    
C40   C49   S    
C114  C133  S    
C62   C89   S    
Cr6   O11   S    
Cr4   O7    S    
C61   C63   A    
C34   C35   A    
C86   Cl16  S    
C122  O32   D    
C2    C13   A    
C110  C111  A    
C100  C101  A    
C103  C104  A    
Cr4   O14   S    
C132  H39   S    
C18   O15   A    
C112  C131  S    
C128  H35   S    
C53   C54   A    
C120  O30   D    
C123  H30   S    
C131  O41   D    
C135  O45   D    
C131  H38   S    
C50   C52   A    
Cr6   O10   S    
C11   H18   S    
C25   C30   A    
C103  C108  A    
C19   O17   A    
C29   O21   A    
C6    H20   S    
C129  H36   S    
C107  Cl18  S    
C97   C102  A    
C8    C12   A    
C3    C130  S    
C66   Cl8   S    
C1    C69   S    
C83   C88   A    
C22   N4    A    
C55   Cl7   S    
C59   C60   A    
Cr3   O4    S    
C38   C117  S    
Cr5   O8    S    
C16   O10   A    
C91   Cl17  S    
C87   Cl10  S    
C41   C118  S    
Cr2   O2    S    
C74   C82   S    
C26   H22   S    
C60   H9    S    
C112  C113  A    
C17   O11   A    
C76   C124  S    
C97   C98   A    
C37   H3    S    
C118  O28   D    
C132  O42   D    
C8    Cl26  S    
Cr6   O19   S    
C62   O2    A    
N1    N2    A    
C98   H15   S    
C16   O9    A    
C67   C68   A    
C18   C90   S    
C101  C102  A    
C64   H10   S    
C66   C67   A    
C24   C25   A    
C29   C84   S    
C72   C74   A    
C74   C75   A    
C85   Cl14  S    
C61   C122  S    
C91   C92   A    
C134  O44   D    
C85   C89   A    
C86   C87   A    
C8    C9    A    
Cr2   O20   S    
C42   Cl3   S    
C133  H40   S    
C77   C78   A    
Cr5   O15   S    
C23   N2    A    
C15   C31   S    
C2    C106  A    
Cr4   O6    S    
C81   C82   A    
C79   C80   A    
C60   C61   A    
C84   C95   A    
C7    C116  A    
C37   C43   A    
C51   O25   A    
C94   C96   A    
C75   C76   A    
C37   C38   A    
C134  H41   S    
C95   C106  A    
C103  H17   S    
C59   C68   S    
Cr1   O5    S    
C78   H12   S    
C18   O14   A    
C47   C48   A    
C21   C84   A    
C45   C49   A    
C45   H4    S    
C27   H23   S    
C20   O13   A    
C135  H42   S    
C32   C135  S    
C130  O40   D    
C33   C34   A    
C13   C21   A    
C101  Cl20  S    
C93   C94   A    
C52   C120  S    
C52   C53   A    
N3    N4    A    
C51   O26   A    
C129  O39   D    
C15   O7    A    
Cr1   O1    S    
C24   Cl25  S    
C79   C88   S    
C77   Cl11  S    
C20   C110  S    
C71   Cl9   S    
C83   C85   A    
C125  O35   D    
Cr2   O26   S    
C98   C99   A    
Cr3   O5    S    
Cr5   O9    S    
C10   C14   A    
C107  C108  A    
C105  Cl22  S    
C4    C12   S    
C42   C43   A    
C46   Cl5   S    
C3    C4    A    
C17   O6    A    
C40   O23   A    
C70   C71   A    
C44   C45   A    
Cr4   O19   S    
C21   Cl4   S    
C113  C114  A    
C47   Cl1   S    
C95   H1    S    
Cr3   O3    S    
C20   O18   A    
C105  C109  A    
C46   C47   A    
Cr1   O24   S    
Cr6   O18   S    
C111  C112  A    
C128  O38   D    
C29   O22   A    
C124  H31   S    
C93   C102  S    
C31   C32   A    
C34   C43   S    
C24   C28   A    
C57   C63   A    
C80   C81   A    
C86   C89   A    
C127  O37   D    
C17   C50   S    
C13   C128  S    
C115  Cl24  S    
C83   Cl13  S    
C11   C12   A    
C94   C129  S    
C90   C96   A    
C6    C7    A    
Cr4   O13   S    
Cr5   O16   S    
C23   N3    A    
C44   C119  S    
C119  H26   S    
C97   C127  S    
C57   C121  S    
Cr1   O12   S    
C32   C33   A    
C7    C113  S    
C35   H5    S    
C100  Cl19  S    
C58   C59   A    
C71   C72   A    
C25   C123  S    
C96   C126  S    
C99   C100  A    
C64   C65   A    
C70   C76   A    
C78   C79   A    
C90   C91   A    
C38   C39   A    
C56   Cl6   S    
C77   C82   A    
C65   C69   A    
C1    O20   A    
C92   C93   A    
C117  O27   D    
Cr2   O5    S    
C73   C109  S    
Cr5   O19   S    
C73   O24   A    
C122  H29   S    
Cr3   O23   S    
C50   C56   A    
C104  Cl21  S    
C10   C11   A    
C1    O12   A    
C116  H19   S    
C72   Cl12  S    
C4    C5    A    
C125  H32   S    
C87   C88   A    
C123  O33   D    
C117  H24   S    
C73   O4    A    
C2    C23   S    
C130  H37   S    
Cr2   O21   S    
C104  C109  A    
C19   C70   S    
C22   C28   S    
C53   H8    S    
C19   O16   A    
C57   C58   A    
C67   H6    S    
C106  C125  S    
C133  O43   D    
C110  C115  A    
C65   H11   S    
C44   C48   A    
Cr3   O22   S    
C39   C48   S    
C33   Cl2   S    
C26   C30   A    
