data_mof_unit_43610.cif
_audit_creation_date              2012-12-10T17:30:23-0500
_audit_creation_method            fapswitch 2.2
_symmetry_space_group_name_H-M    P1
_symmetry_Int_Tables_number       1
_space_group_crystal_system       triclinic
_cell_length_a                    12.087267
_cell_length_b                    12.782515
_cell_length_c                    15.018626
_cell_angle_alpha                 91.372661
_cell_angle_beta                  86.518112
_cell_angle_gamma                 95.44093
_cell_volume                      2305.3571956

loop_
_atom_site_label
_atom_site_type_symbol
_atom_type_description
_atom_site_fract_x
_atom_site_fract_y
_atom_site_fract_z
_atom_type_partial_charge
C1    C     C_R   0.523623 0.700028 0.497984 0.894934
C2    C     C_R   0.476377 0.299972 0.502017 0.894937
C3    C     C_R   0.302305 0.535406 0.963434 -0.104501
C4    C     C_R   0.697654 0.464376 0.036562 -0.104539
C5    C     C_R   0.459578 0.187966 0.500526 -0.087358
C6    C     C_R   0.540422 0.812033 0.499477 -0.087361
C7    C     C_R   0.590680 0.964876 0.588731 -0.139070
C8    C     C_R   0.409319 0.035123 0.411273 -0.139067
C9    C     C_R   0.597078 0.859740 0.569742 -0.154481
C10   C     C_R   0.402921 0.140259 0.430263 -0.154464
C11   C     C_R   0.479906 0.868853 0.443788 -0.083872
C12   C     C_R   0.520095 0.131147 0.556215 -0.083872
C13   C     C_R   0.471915 0.975709 0.463292 0.081941
C14   C     C_R   0.528086 0.024291 0.536712 0.081943
C15   C     C_R   0.945351 0.393033 0.421374 -0.107292
C16   C     C_R   0.054648 0.606957 0.578636 -0.107316
C17   C     C_R   0.831784 0.404781 0.429999 0.001729
C18   C     C_R   0.168216 0.595218 0.570002 0.001733
C19   C     C_R   0.861401 0.549839 0.530080 0.062567
C20   C     C_R   0.138597 0.450152 0.469930 0.062551
C21   C     C_R   0.978523 0.540273 0.527854 -0.029628
C22   C     C_R   0.021475 0.459718 0.472156 -0.029624
C23   C     C_R   0.500348 0.500148 0.673081 0.921528
C24   C     C_R   0.499652 0.499845 0.326919 0.921568
C25   C     C_R   0.595847 0.480835 0.180447 -0.190740
C26   C     C_R   0.404137 0.519066 0.819553 -0.190788
C27   C     C_R   0.499111 0.498744 0.230994 -0.070068
C28   C     C_R   0.500882 0.501198 0.769004 -0.070008
C29   C     C_R   0.402387 0.515964 0.190499 -0.137872
C30   C     C_R   0.597598 0.483940 0.809496 -0.137874
C31   C     C_R   0.399789 0.514045 0.098030 0.022565
C32   C     C_R   0.600183 0.485793 0.901967 0.022535
C33   C     C_R   0.499389 0.498171 0.046326 0.068503
C34   C     C_R   0.500582 0.501655 0.953671 0.068530
C35   C     C_R   0.598083 0.479827 0.087802 0.039085
C36   C     C_R   0.401889 0.520006 0.912196 0.039047
C37   C     C_R   0.300898 0.531019 0.056906 -0.118268
C38   C     C_R   0.699061 0.468772 0.943089 -0.118244
H1    H     H_    0.670002 0.469530 0.214347 0.185302
H2    H     H_    0.329989 0.530405 0.785656 0.185276
H3    H     H_    0.329911 0.533218 0.231968 0.206469
H4    H     H_    0.670078 0.466714 0.768023 0.206456
H5    H     H_    0.360278 0.186132 0.385887 0.166098
H6    H     H_    0.639719 0.813866 0.614119 0.166118
H7    H     H_    0.631977 0.997466 0.646359 0.187866
H8    H     H_    0.368021 0.002533 0.353646 0.187861
H9    H     H_    0.226390 0.646064 0.607321 0.154809
H10   H     H_    0.773610 0.353936 0.392678 0.154818
N1    N     N_R   0.207800 0.519350 0.516680 -0.152043
N2    N     N_R   0.792200 0.480650 0.483320 -0.152047
O1    O     O_R   0.421700 0.658830 0.504450 -0.627315
O2    O     O_R   0.578300 0.341170 0.495550 -0.627315
O3    O     O_R   0.609310 0.646410 0.493750 -0.591983
O4    O     O_R   0.390690 0.353590 0.506250 -0.591993
O5    O     O_R   0.406180 0.506230 0.637500 -0.635546
O6    O     O_R   0.593820 0.493770 0.362500 -0.635543
O7    O     O_R   0.593800 0.493820 0.626800 -0.597683
O8    O     O_R   0.406200 0.506180 0.373200 -0.597663
Zn1   Zn    Zn3+2 0.374730 0.508290 0.507150 1.005017
Zn2   Zn    Zn3+2 0.625270 0.491710 0.492850 1.005017
C39   C     C_1   0.977042 0.313345 0.357411 0.216255
N3    N     N_1   0.001123 0.249331 0.305893 -0.115246
C40   C     C_1   0.022955 0.686633 0.642610 0.216334
N4    N     N_1   0.998874 0.750637 0.694137 -0.115211
C41   C     C_2   0.195787 0.544971 0.111071 0.966276
O9    O     O_2   0.150236 0.625829 0.105638 -0.562935
O10   O     O_R   0.148738 0.464868 0.167185 -0.754247
H11   H     H_    0.077566 0.483435 0.200543 0.355511
C42   C     C_2   0.804155 0.454770 0.888916 0.966348
O11   O     O_2   0.849614 0.373851 0.894293 -0.562962
O12   O     O_R   0.851294 0.534893 0.832857 -0.754254
H12   H     H_    0.922442 0.516286 0.799482 0.355503
C43   C     C_2   0.198541 0.553836 0.919896 0.953384
O13   O     O_2   0.114923 0.492905 0.931861 -0.547939
O14   O     O_R   0.196662 0.641499 0.866271 -0.786759
H13   H     H_    0.121664 0.645349 0.840355 0.356486
C44   C     C_2   0.801397 0.445858 0.080099 0.953325
O15   O     O_2   0.885098 0.506661 0.068056 -0.547920
O16   O     O_R   0.803159 0.358250 0.133809 -0.786834
H14   H     H_    0.878153 0.354329 0.159713 0.356467
C45   C     C_2   0.576753 0.185829 0.632094 0.899525
O17   O     O_2   0.522582 0.232945 0.688643 -0.622863
O18   O     O_R   0.692098 0.187068 0.636445 -0.780280
H15   H     H_    0.720779 0.228626 0.690015 0.359424
C46   C     C_2   0.423248 0.814171 0.367909 0.899530
O19   O     O_2   0.477419 0.767058 0.311358 -0.622861
O20   O     O_R   0.307902 0.812930 0.363560 -0.780290
H16   H     H_    0.279221 0.771374 0.309990 0.359407
C47   C     C_2   0.187507 0.362314 0.422486 0.945036
O21   O     O_2   0.183370 0.277149 0.458483 -0.608317
O22   O     O_R   0.230531 0.374196 0.334560 -0.783700
H17   H     H_    0.258267 0.307289 0.307832 0.339749
C48   C     C_2   0.812489 0.637667 0.577537 0.945019
O23   O     O_2   0.816612 0.722837 0.541549 -0.608334
O24   O     O_R   0.769482 0.625773 0.665467 -0.783725
H18   H     H_    0.741734 0.692671 0.692202 0.339732

loop_
_geom_bond_atom_site_label_1
_geom_bond_atom_site_label_2
_ccdc_geom_bond_type
O20   H16   S    
C16   C21   A    
O5    Zn1   S    
C27   C29   A    
C43   O13   D    
O24   H18   S    
C17   H10   S    
C18   H9    S    
C6    C9    A    
C45   O17   D    
C15   C22   A    
C44   O15   D    
C48   O23   D    
C7    H7    S    
C19   C21   A    
C7    C9    A    
C42   O12   S    
C1    O3    A    
O2    Zn2   S    
C13   C14   A    
C7    C14   A    
C41   O10   S    
C37   C41   S    
C24   C27   S    
C16   C40   S    
C32   C38   A    
C47   O22   S    
C19   C48   S    
C44   O16   S    
C38   C42   S    
C48   O24   S    
C21   C22   A    
C43   O14   S    
C39   N3    T    
C45   O18   S    
O3    Zn2   S    
O4    Zn1   S    
C46   O20   S    
O10   H11   S    
C24   O8    A    
C5    C12   A    
C2    O4    A    
O22   H17   S    
O7    Zn2   S    
O8    Zn1   S    
C46   O19   D    
O6    Zn2   S    
C32   C34   A    
O14   H13   S    
C20   N1    A    
O18   H15   S    
C31   C33   A    
C33   C34   A    
C15   C39   S    
C23   C28   S    
C1    O1    A    
C2    O2    A    
C25   C35   A    
C8    C10   A    
C12   C14   A    
C25   C27   A    
C2    C5    S    
O1    Zn1   S    
C20   C22   A    
C6    C11   A    
C26   C36   A    
C23   O7    A    
C9    H6    S    
C29   H3    S    
C10   H5    S    
C4    C38   A    
C40   N4    T    
C17   N2    A    
C23   O5    A    
C24   O6    A    
C20   C47   S    
C26   C28   A    
N1    Zn1   S    
N2    Zn2   S    
C28   C30   A    
C4    C44   S    
C29   C31   A    
C25   H1    S    
C30   C32   A    
C11   C13   A    
C19   N2    A    
C26   H2    S    
C3    C36   A    
C11   C46   S    
C33   C35   A    
C12   C45   S    
C34   C36   A    
C42   O11   D    
C3    C43   S    
C8    H8    S    
C4    C35   A    
O16   H14   S    
C8    C13   A    
C31   C37   A    
C5    C10   A    
O12   H12   S    
C3    C37   A    
C16   C18   A    
C41   O9    D    
C1    C6    S    
C30   H4    S    
C47   O21   D    
C15   C17   A    
C18   N1    A    
