data_mof_unit_17909.cif
_audit_creation_date              2012-12-11T15:08:49-0500
_audit_creation_method            fapswitch 2.2
_symmetry_space_group_name_H-M    P1
_symmetry_Int_Tables_number       1
_space_group_crystal_system       triclinic
_cell_length_a                    19.684655
_cell_length_b                    11.549281
_cell_length_c                    18.674114
_cell_angle_alpha                 90.202103
_cell_angle_beta                  89.945594
_cell_angle_gamma                 90.066086
_cell_volume                      4245.40939424

loop_
_atom_site_label
_atom_site_type_symbol
_atom_type_description
_atom_site_fract_x
_atom_site_fract_y
_atom_site_fract_z
_atom_type_partial_charge
C1    C     C_R   0.273413 0.040672 0.854958 0.550271
C2    C     C_3   0.694630 0.509674 0.959976 0.074400
C3    C     C_R   0.227828 0.547563 0.351387 0.532132
C4    C     C_R   0.470110 0.822362 0.646855 0.587214
C5    C     C_R   0.529868 0.822476 0.353181 0.589467
C6    C     C_R   0.966128 0.321952 0.644889 0.590629
C7    C     C_R   0.033869 0.322110 0.355153 0.592809
C8    C     C_R   0.272368 0.680143 0.636398 0.552710
C9    C     C_R   0.727671 0.680374 0.363729 0.553891
C10   C     C_R   0.771479 0.177642 0.636588 0.547265
C11   C     C_R   0.228552 0.177941 0.363530 0.548459
C12   C     C_3   0.477797 0.902749 0.040009 0.262168
C13   C     C_3   0.817509 0.033482 0.046004 0.077862
C14   C     C_3   0.512805 0.920175 0.968026 0.267494
C15   C     C_3   0.977797 0.402748 0.040008 0.261952
C16   C     C_3   0.012806 0.420176 0.968026 0.267324
C17   C     C_3   0.434289 0.804750 0.009042 -0.117407
C18   C     C_3   0.568925 0.835343 0.989030 -0.164621
C19   C     C_3   0.934290 0.304749 0.009039 -0.117431
C20   C     C_3   0.068926 0.335344 0.989031 -0.164679
C21   C     C_3   0.470879 0.822455 0.936294 0.003326
C22   C     C_3   0.532566 0.818148 0.062330 -0.015013
C23   C     C_3   0.970882 0.322455 0.936293 0.003098
C24   C     C_3   0.194631 0.009677 0.959977 0.074134
C25   C     C_3   0.032566 0.318148 0.062330 -0.015274
C26   C     C_3   0.328875 0.567297 0.966011 0.147999
C27   C     C_3   0.683103 0.535914 0.040637 0.106232
C28   C     C_3   0.828869 0.067281 0.966005 0.147916
C29   C     C_3   0.183105 0.035914 0.040639 0.106165
C30   C     C_3   0.187617 0.520854 0.022760 0.154612
C31   C     C_3   0.824065 0.539220 0.975291 0.156866
C32   C     C_3   0.687612 0.020846 0.022758 0.154665
C33   C     C_R   0.727706 0.041510 0.145975 0.537799
C34   C     C_3   0.324067 0.039220 0.975294 0.156931
C35   C     C_3   0.243409 0.703503 0.061558 -0.192009
C36   C     C_3   0.747368 0.700316 0.941804 -0.197856
C37   C     C_3   0.743406 0.203498 0.061549 -0.191740
C38   C     C_3   0.247371 0.200319 0.941808 -0.197654
C39   C     C_3   0.245153 0.573576 0.071057 0.018781
C40   C     C_3   0.759113 0.571966 0.931008 0.014459
C41   C     C_3   0.745150 0.073570 0.071053 0.018304
C42   C     C_3   0.259114 0.071967 0.931010 0.013997
C43   C     C_3   0.261627 0.620553 0.934423 0.042195
C44   C     C_R   0.773413 0.540673 0.854957 0.548220
C45   C     C_3   0.742457 0.613272 0.068237 0.052772
C46   C     C_3   0.761621 0.120535 0.934417 0.042533
C47   C     C_3   0.242459 0.113271 0.068239 0.053105
C48   C     C_3   0.203558 0.531567 0.941426 0.490399
C49   C     C_3   0.812941 0.557413 0.056134 0.521945
C50   C     C_3   0.703551 0.031556 0.941423 0.490599
C51   C     C_3   0.312943 0.057412 0.056137 0.522277
C52   C     C_3   0.244291 0.727657 0.980976 -0.312540
C53   C     C_3   0.736296 0.723641 0.022610 -0.304404
C54   C     C_3   0.744288 0.227645 0.980966 -0.312503
C55   C     C_R   0.227707 0.541511 0.145976 0.535758
C56   C     C_3   0.236299 0.223642 0.022613 -0.304366
C57   C     C_3   0.500773 0.699922 0.459629 -0.289942
C58   C     C_3   0.499087 0.699852 0.540023 -0.290080
C59   C     C_3   0.999071 0.202029 0.459879 -0.288450
C60   C     C_3   0.000823 0.201912 0.539759 -0.288517
C61   C     C_R   0.444470 0.817642 0.862019 0.521975
C62   C     C_R   0.557053 0.816569 0.137934 0.536903
C63   C     C_R   0.944472 0.317642 0.862019 0.520911
C64   C     C_R   0.057053 0.316569 0.137934 0.535754
C65   C     C_3   0.564763 0.894571 0.471165 -0.209863
C66   C     C_3   0.525935 0.735438 0.958255 -0.167964
C67   C     C_3   0.435308 0.894697 0.529259 -0.209865
C68   C     C_3   0.067123 0.395907 0.475662 -0.223490
C69   C     C_3   0.933082 0.396081 0.524800 -0.222936
C70   C     C_3   0.442048 0.886549 0.445844 0.111479
C71   C     C_3   0.557990 0.886399 0.554568 0.112699
C72   C     C_3   0.947585 0.393756 0.441810 0.080025
C73   C     C_3   0.052638 0.393305 0.558687 0.081034
C74   C     C_3   0.508920 0.826342 0.430113 0.030639
C75   C     C_3   0.491032 0.826186 0.570002 0.030519
C76   C     C_3   0.012516 0.327243 0.431170 0.065282
C77   C     C_3   0.490158 0.717856 0.030957 -0.123263
C78   C     C_3   0.987525 0.327010 0.568969 0.064717
C79   C     C_3   0.184752 0.668082 0.453013 -0.222536
C80   C     C_3   0.815282 0.667988 0.547269 -0.221840
C81   C     C_3   0.690986 0.181741 0.449361 -0.218719
C82   C     C_3   0.309489 0.181046 0.550845 -0.216749
C83   C     C_3   0.191774 0.682101 0.533019 0.099735
C84   C     C_3   0.808288 0.682535 0.467291 0.100195
C85   C     C_3   0.695717 0.197398 0.529891 0.138059
C86   C     C_3   0.304534 0.197511 0.470427 0.139150
C87   C     C_3   0.260000 0.486327 0.470350 -0.183386
C88   C     C_3   0.025938 0.235439 0.958254 -0.167653
C89   C     C_3   0.739840 0.486410 0.528989 -0.184458
C90   C     C_3   0.734492 0.984534 0.476374 -0.179986
C91   C     C_3   0.265195 0.984479 0.522867 -0.180624
C92   C     C_3   0.307187 0.666318 0.427072 -0.282052
C93   C     C_3   0.692826 0.666171 0.573258 -0.281091
C94   C     C_3   0.815163 0.129252 0.434283 -0.277307
C95   C     C_3   0.185101 0.129629 0.565893 -0.276467
C96   C     C_3   0.244288 0.592086 0.423533 0.012573
C97   C     C_3   0.755649 0.591927 0.576440 0.011973
C98   C     C_3   0.742622 0.086514 0.425396 0.008708
C99   C     C_3   0.990159 0.217855 0.030956 -0.123070
C100  C     C_3   0.257477 0.086244 0.574466 0.007460
C101  C     C_3   0.263835 0.644661 0.559123 0.092296
C102  C     C_3   0.736211 0.645075 0.440993 0.092994
C103  C     C_3   0.761462 0.140414 0.560385 0.119159
C104  C     C_3   0.238631 0.140840 0.439679 0.119947
C105  C     C_3   0.275121 0.513646 0.549152 0.111598
C106  C     C_3   0.724869 0.514005 0.450313 0.112417
C107  C     C_3   0.758003 0.008702 0.553077 0.154490
C108  C     C_3   0.241821 0.009092 0.446301 0.155513
C109  C     C_R   0.268107 0.661453 0.859215 0.540771
C110  C     C_3   0.317513 0.533490 0.046009 0.078137
C111  C     C_R   0.736008 0.647517 0.144291 0.572735
C112  C     C_R   0.768098 0.161423 0.859209 0.540632
C113  C     C_R   0.236010 0.147512 0.144293 0.572159
C114  C     C_3   0.315744 0.701215 0.506962 -0.346004
C115  C     C_3   0.684308 0.701401 0.493548 -0.346863
C116  C     C_3   0.819893 0.180449 0.510311 -0.363635
C117  C     C_3   0.180357 0.180969 0.490102 -0.364528
C118  C     C_R   0.272994 0.044930 0.647342 0.533194
C119  C     C_R   0.727090 0.045278 0.352487 0.535531
C120  C     C_R   0.772187 0.547342 0.648514 0.530039
Cr1   Cr    Cr6+3 0.229620 0.836040 0.749110 1.056817
Cr2   Cr    Cr6+3 0.613980 0.676590 0.250790 1.012566
Cr3   Cr    Cr6+3 0.886020 0.176590 0.749210 1.028455
Cr4   Cr    Cr6+3 0.113980 0.176590 0.250790 1.016798
Cr5   Cr    Cr6+3 0.770380 0.836040 0.250890 1.033107
Cr6   Cr    Cr6+3 0.729620 0.336040 0.749110 1.046330
Cr7   Cr    Cr6+3 0.270380 0.336040 0.250890 1.022805
Cr8   Cr    Cr6+3 0.387630 0.990680 0.750730 1.062321
Cr9   Cr    Cr6+3 0.612370 0.990680 0.249270 1.046526
Cr10  Cr    Cr6+3 0.887630 0.490680 0.750730 1.077436
Cr11  Cr    Cr6+3 0.112370 0.490680 0.249270 1.061684
Cr12  Cr    Cr6+3 0.386020 0.676590 0.749210 1.024186
H1    H     H_    0.380467 0.795370 0.022761 0.171148
H2    H     H_    0.701894 0.725761 0.910447 0.207673
H3    H     H_    0.740563 0.437804 0.358140 0.353996
H4    H     H_    0.351781 0.617863 0.406651 0.121663
H5    H     H_    0.648123 0.617688 0.593370 0.123567
H6    H     H_    0.851712 0.056391 0.428009 0.137097
H7    H     H_    0.148270 0.057064 0.571943 0.137934
H8    H     H_    0.543711 0.665163 0.923020 0.213051
H9    H     H_    0.484669 0.630712 0.054855 0.191578
H10   H     H_    0.043713 0.165165 0.923018 0.213410
H11   H     H_    0.984669 0.130712 0.054853 0.191850
H12   H     H_    0.308228 0.453281 0.447738 0.097300
H13   H     H_    0.786407 0.245336 0.089619 0.225896
H14   H     H_    0.691514 0.453347 0.551273 0.096316
H15   H     H_    0.761436 0.911477 0.453781 0.060000
H16   H     H_    0.237637 0.911929 0.544951 0.058802
H17   H     H_    0.329746 0.492744 0.559568 0.106062
H18   H     H_    0.670241 0.493013 0.439705 0.106073
H19   H     H_    0.809557 0.970157 0.560666 0.086572
H20   H     H_    0.190176 0.970746 0.438433 0.086841
H21   H     H_    0.378406 0.532380 0.128813 0.346926
H22   H     H_    0.601616 0.480955 0.930578 0.317885
H23   H     H_    0.878410 0.032378 0.128802 0.347759
H24   H     H_    0.201897 0.225768 0.910452 0.208199
H25   H     H_    0.101616 0.980965 0.930580 0.318324
H26   H     H_    0.368722 0.633818 0.961471 0.141261
H27   H     H_    0.634386 0.584852 0.046739 0.150768
H28   H     H_    0.868717 0.133803 0.961463 0.141174
H29   H     H_    0.134388 0.084853 0.046741 0.150795
H30   H     H_    0.398437 0.453836 0.942663 0.327693
H31   H     H_    0.631321 0.403120 0.071363 0.316290
H32   H     H_    0.898430 0.953817 0.942658 0.328090
H33   H     H_    0.131323 0.903119 0.071363 0.316757
H34   H     H_    0.729085 0.931683 0.861833 0.374800
H35   H     H_    0.280776 0.796173 0.969277 0.075722
H36   H     H_    0.319329 0.963506 0.142835 0.381786
H37   H     H_    0.229104 0.431699 0.861839 0.375948
H38   H     H_    0.819329 0.463506 0.142830 0.382832
H39   H     H_    0.684684 0.754402 0.031915 0.079716
H40   H     H_    0.780776 0.296157 0.969264 0.075806
H41   H     H_    0.184687 0.254406 0.031920 0.079646
H42   H     H_    0.192094 0.753348 0.967770 0.147164
H43   H     H_    0.770558 0.790723 0.041278 0.127070
H44   H     H_    0.692093 0.253342 0.967758 0.147157
H45   H     H_    0.618944 0.845015 0.964694 0.197834
H46   H     H_    0.270562 0.290724 0.041283 0.127306
H47   H     H_    0.538912 0.635906 0.441856 0.150324
H48   H     H_    0.461044 0.635622 0.557632 0.150096
H49   H     H_    0.032671 0.132182 0.440485 0.153347
H50   H     H_    0.967350 0.131879 0.558964 0.153201
H51   H     H_    0.453473 0.661620 0.438693 0.112176
H52   H     H_    0.546409 0.661715 0.560778 0.112394
H53   H     H_    0.948815 0.172088 0.441070 0.119258
H54   H     H_    0.051077 0.172031 0.558397 0.119281
H55   H     H_    0.610449 0.857624 0.449883 0.067300
H56   H     H_    0.880467 0.295365 0.022753 0.171154
H57   H     H_    0.389448 0.858551 0.550529 0.067067
H58   H     H_    0.116014 0.365129 0.459898 0.060407
H59   H     H_    0.884025 0.365952 0.540429 0.060167
H60   H     H_    0.432581 0.986510 0.546285 0.134995
H61   H     H_    0.567726 0.986364 0.454464 0.135727
H62   H     H_    0.929385 0.485838 0.543671 0.134740
H63   H     H_    0.071032 0.485685 0.457232 0.135248
H64   H     H_    0.133412 0.634212 0.441409 0.156636
H65   H     H_    0.866539 0.633913 0.558625 0.156129
H66   H     H_    0.637288 0.159495 0.436785 0.152121
H67   H     H_    0.118947 0.345020 0.964698 0.197904
H68   H     H_    0.363095 0.157962 0.563016 0.152150
H69   H     H_    0.185901 0.754759 0.427041 0.108273
H70   H     H_    0.814337 0.754518 0.573811 0.108897
H71   H     H_    0.702046 0.263706 0.421136 0.138261
H72   H     H_    0.299035 0.262929 0.579779 0.137638
H73   H     H_    0.179259 0.771974 0.545999 0.156785
H74   H     H_    0.820764 0.772621 0.455028 0.155602
H75   H     H_    0.699744 0.287047 0.540681 0.087150
H76   H     H_    0.300644 0.287339 0.460726 0.086676
H77   H     H_    0.680791 0.970937 0.479864 0.180662
H78   H     H_    0.196478 0.737771 0.086042 0.232029
H79   H     H_    0.318881 0.970243 0.519271 0.180703
H80   H     H_    0.218454 0.425590 0.464197 0.110750
H81   H     H_    0.781399 0.425887 0.534710 0.110914
H82   H     H_    0.301174 0.742838 0.391839 0.165414
H83   H     H_    0.698890 0.742550 0.608952 0.165210
H84   H     H_    0.827324 0.195191 0.392836 0.150393
H85   H     H_    0.173291 0.195622 0.607679 0.151958
H86   H     H_    0.306208 0.791052 0.506531 0.121917
H87   H     H_    0.693680 0.791450 0.494680 0.124688
H88   H     H_    0.812291 0.270690 0.499122 0.134327
H89   H     H_    0.791850 0.750272 0.922032 0.247179
H90   H     H_    0.188056 0.271327 0.501729 0.136943
H91   H     H_    0.366657 0.680970 0.524422 0.116134
H92   H     H_    0.633382 0.680795 0.476011 0.115635
H93   H     H_    0.868565 0.163019 0.534997 0.126404
H94   H     H_    0.131571 0.163458 0.465459 0.125929
H95   H     H_    0.322946 0.439352 0.050730 0.147322
H96   H     H_    0.703251 0.420292 0.951455 0.154380
H97   H     H_    0.822943 0.939345 0.050729 0.147261
H98   H     H_    0.203250 0.920295 0.951453 0.154172
H99   H     H_    0.683878 0.930439 0.038269 0.076703
H100  H     H_    0.696474 0.237768 0.086031 0.232008
H101  H     H_    0.336115 0.947740 0.964609 0.074857
H102  H     H_    0.183884 0.430445 0.038268 0.076705
H103  H     H_    0.836111 0.447738 0.964608 0.074721
H104  H     H_    0.598629 0.027482 0.068394 0.338245
H105  H     H_    0.408852 0.059106 0.923333 0.382072
H106  H     H_    0.098631 0.527482 0.068392 0.338088
H107  H     H_    0.908853 0.559099 0.923335 0.382002
H108  H     H_    0.128424 0.638581 0.915258 0.365771
H109  H     H_    0.865429 0.705604 0.061830 0.340876
H110  H     H_    0.628419 0.138576 0.915255 0.365537
H111  H     H_    0.291853 0.250275 0.922036 0.247162
H112  H     H_    0.365432 0.205603 0.061833 0.340764
H113  H     H_    0.600066 0.834716 0.576441 0.191162
H114  H     H_    0.399884 0.834902 0.423768 0.190716
H115  H     H_    0.095423 0.349700 0.586335 0.181094
H116  H     H_    0.904706 0.350422 0.413868 0.180342
H117  H     H_    0.487672 0.052000 0.084746 0.341247
H118  H     H_    0.516405 0.087305 0.968846 0.348623
H119  H     H_    0.987673 0.551999 0.084746 0.341599
H120  H     H_    0.016407 0.587305 0.968846 0.348690
H121  H     H_    0.468378 0.049582 0.437911 0.320548
H122  H     H_    0.286411 0.745338 0.089630 0.225409
H123  H     H_    0.531843 0.049369 0.563383 0.321148
H124  H     H_    0.973390 0.559798 0.445532 0.332809
H125  H     H_    0.026943 0.559248 0.556165 0.333466
H126  H     H_    0.146100 0.541148 0.547602 0.391141
H127  H     H_    0.854050 0.541821 0.451844 0.391789
H128  H     H_    0.601339 0.217678 0.556627 0.295691
H129  H     H_    0.398847 0.218227 0.443456 0.295327
H130  H     H_    0.738113 0.941454 0.646239 0.334901
H131  H     H_    0.261589 0.941325 0.352955 0.334271
H132  H     H_    0.259305 0.437813 0.641087 0.354373
O1    O     O_R   0.214130 0.708570 0.829890 -0.491342
O2    O     O_R   0.542830 0.717300 0.331620 -0.543501
O3    O     O_R   0.957170 0.217300 0.668380 -0.544496
O4    O     O_R   0.042830 0.217300 0.331620 -0.546438
O5    O     O_R   0.320870 0.624890 0.673130 -0.523573
O6    O     O_R   0.679130 0.624890 0.326870 -0.524804
O7    O     O_R   0.820870 0.124890 0.673130 -0.525702
O8    O     O_R   0.179130 0.124890 0.326870 -0.526834
O9    O     O_3   0.334430 0.834430 0.749680 -0.362048
O10   O     O_3   0.665570 0.834430 0.250320 -0.347983
O11   O     O_3   0.834430 0.334430 0.749680 -0.364225
O12   O     O_R   0.785870 0.708570 0.170110 -0.488460
O13   O     O_3   0.165570 0.334430 0.250320 -0.350224
O14   O     O_R   0.236050 0.959150 0.825270 -0.488768
O15   O     O_R   0.763950 0.959150 0.174730 -0.534653
O16   O     O_R   0.736050 0.459150 0.825270 -0.489561
O17   O     O_R   0.263950 0.459150 0.174730 -0.535327
O18   O     O_R   0.332100 0.076650 0.832310 -0.507261
O19   O     O_R   0.667900 0.076650 0.167690 -0.507602
O20   O     O_R   0.832100 0.576650 0.832310 -0.507772
O21   O     O_R   0.167900 0.576650 0.167690 -0.508085
O22   O     O_R   0.446500 0.918620 0.826240 -0.445588
O23   O     O_R   0.714130 0.208570 0.829890 -0.492822
O24   O     O_R   0.553500 0.918620 0.173760 -0.470429
O25   O     O_R   0.946500 0.418620 0.826240 -0.444892
O26   O     O_R   0.053500 0.418620 0.173760 -0.469863
O27   O     O_R   0.457310 0.715830 0.831280 -0.507920
O28   O     O_R   0.542690 0.715830 0.168720 -0.500189
O29   O     O_R   0.957310 0.215830 0.831280 -0.506566
O30   O     O_R   0.042690 0.215830 0.168720 -0.498864
O31   O     O_R   0.321000 0.623520 0.824130 -0.466354
O32   O     O_R   0.679000 0.623520 0.175870 -0.489679
O33   O     O_R   0.821000 0.123520 0.824130 -0.466200
O34   O     O_R   0.285870 0.208570 0.170110 -0.489709
O35   O     O_R   0.179000 0.123520 0.175870 -0.489386
O36   O     O_R   0.213990 0.710040 0.667000 -0.421348
O37   O     O_R   0.786010 0.710040 0.333000 -0.424964
O38   O     O_R   0.713990 0.210040 0.667000 -0.421887
O39   O     O_R   0.286010 0.210040 0.333000 -0.425429
O40   O     O_R   0.235920 0.960520 0.674260 -0.522326
O41   O     O_R   0.764080 0.960520 0.325740 -0.523902
O42   O     O_R   0.735920 0.460520 0.674260 -0.528059
O43   O     O_R   0.264080 0.460520 0.325740 -0.529675
O44   O     O_R   0.331960 0.078120 0.669410 -0.534880
O45   O     O_R   0.446360 0.919990 0.675230 -0.469357
O46   O     O_R   0.668040 0.078120 0.330590 -0.534146
O47   O     O_R   0.831960 0.578120 0.669410 -0.528572
O48   O     O_R   0.168040 0.578120 0.330590 -0.527720
O49   O     O_3   0.625770 0.077764 0.036926 -0.739547
O50   O     O_3   0.379798 0.107708 0.953862 -0.699753
O51   O     O_3   0.125774 0.577769 0.036927 -0.739382
O52   O     O_3   0.879797 0.607705 0.953859 -0.699453
O53   O     O_3   0.145296 0.561173 0.901357 -0.576029
O54   O     O_3   0.865317 0.628358 0.084714 -0.586898
O55   O     O_3   0.645289 0.061166 0.901354 -0.577260
O56   O     O_R   0.553640 0.919990 0.324770 -0.467479
O57   O     O_3   0.365319 0.128358 0.084718 -0.587866
O58   O     O_3   0.455243 0.986719 0.087589 -0.578018
O59   O     O_3   0.522958 0.025152 0.932906 -0.626845
O60   O     O_3   0.955242 0.486719 0.087586 -0.577122
O61   O     O_3   0.022962 0.525152 0.932906 -0.625879
O62   O     O_3   0.439683 0.993810 0.411236 -0.588705
O63   O     O_3   0.560539 0.993604 0.589713 -0.585931
O64   O     O_3   0.957151 0.502914 0.409548 -0.637056
O65   O     O_3   0.043454 0.502298 0.591681 -0.633340
O66   O     O_3   0.142762 0.619198 0.568233 -0.617324
O67   O     O_R   0.946360 0.419990 0.675230 -0.443618
O68   O     O_3   0.857325 0.619969 0.431625 -0.617363
O69   O     O_3   0.636931 0.157670 0.563492 -0.591834
O70   O     O_3   0.363168 0.158266 0.436215 -0.591280
O71   O     O_3   0.711998 0.960686 0.602434 -0.639744
O72   O     O_3   0.287775 0.961088 0.396725 -0.640255
O73   O     O_3   0.234768 0.445548 0.594983 -0.726683
O74   O     O_3   0.765250 0.446140 0.404158 -0.726864
O75   O     O_3   0.367859 0.585638 0.088745 -0.759054
O76   O     O_3   0.637226 0.539378 0.919641 -0.739642
O77   O     O_3   0.867856 0.085635 0.088736 -0.758457
O78   O     O_R   0.053640 0.419990 0.324770 -0.441616
O79   O     O_3   0.137228 0.039386 0.919644 -0.738874
O80   O     O_3   0.351428 0.470697 0.926498 -0.670908
O81   O     O_3   0.677443 0.434695 0.080803 -0.710444
O82   O     O_3   0.851421 0.970677 0.926494 -0.670487
O83   O     O_3   0.177445 0.934694 0.080803 -0.710484
O84   O     O_3   0.725547 0.925551 0.914797 -0.712460
O85   O     O_3   0.315167 0.949515 0.090535 -0.664363
O86   O     O_3   0.225557 0.425563 0.914802 -0.712213
O87   O     O_3   0.815165 0.449515 0.090531 -0.663934
O88   O     O_R   0.457170 0.717300 0.668380 -0.541708

loop_
_geom_bond_atom_site_label_1
_geom_bond_atom_site_label_2
_ccdc_geom_bond_type
C37   H100  S    
C9    O6    A    
C65   H55   S    
C113  O34   A    
C46   C112  S    
C11   O8    A    
C34   C42   S    
C30   O51   S    
C69   H59   S    
C33   O19   A    
C2    H96   S    
C49   O87   S    
C14   C21   S    
C99   H11   S    
C90   C107  S    
Cr2   O10   S    
H119  O60   S    
H3    O74   S    
C87   H80   S    
C54   H44   S    
C5    C74   S    
Cr9   O19   S    
C36   C53   S    
H108  O53   S    
Cr10  O67   S    
C18   H45   S    
C79   H69   S    
H123  O63   S    
C89   C106  S    
C70   C74   S    
C35   H122  S    
C114  H91   S    
C85   C103  S    
H36   O85   S    
C59   C60   S    
C60   H50   S    
Cr9   O10   S    
H106  O51   S    
C115  H92   S    
Cr2   O28   S    
C26   O80   S    
Cr1   O1    S    
C81   H66   S    
Cr11  O21   S    
C19   C99   S    
C28   O82   S    
C61   O27   A    
Cr4   O4    S    
C17   C21   S    
C19   C23   S    
C29   H29   S    
C19   H56   S    
C16   C20   S    
Cr4   O35   S    
C109  O1    A    
C10   O7    A    
C17   H1    S    
C120  O47   A    
C71   H113  S    
H38   O87   S    
H117  O58   S    
C104  C117  S    
C66   C77   S    
C10   O38   A    
C45   C111  S    
C73   H115  S    
C95   H7    S    
H37   O86   S    
H125  O65   S    
C72   H116  S    
C103  C116  S    
C79   C96   S    
C65   C71   S    
Cr7   O34   S    
C80   H65   S    
C95   H85   S    
C26   H26   S    
C68   H63   S    
C77   H9    S    
Cr8   O9    S    
C88   C99   S    
Cr8   O45   S    
C84   H74   S    
C66   H8    S    
C81   C98   S    
H32   O82   S    
C55   O17   A    
C84   O68   S    
C58   H48   S    
C31   O52   S    
H124  O64   S    
C106  H18   S    
C21   C66   S    
C84   C102  S    
C3    O48   A    
Cr8   O18   S    
C86   C104  S    
C20   H67   S    
C56   H46   S    
C95   C117  S    
C82   H68   S    
H109  O54   S    
C28   C46   S    
C34   C51   S    
C29   C47   S    
C50   O84   S    
C43   C52   S    
H25   O79   S    
C27   H27   S    
C12   C22   S    
C63   O29   A    
Cr1   O36   S    
C64   O26   A    
H21   O75   S    
C2    O76   S    
C16   O61   S    
C8    O36   A    
C119  O46   A    
C32   C41   S    
C116  H88   S    
H126  O66   S    
C107  H19   S    
C45   C53   S    
C117  H90   S    
Cr3   O33   S    
C114  H86   S    
Cr4   O30   S    
Cr3   O11   S    
C62   O24   A    
C92   C96   S    
C39   C55   S    
C117  H94   S    
C118  O40   A    
C54   H40   S    
C105  O73   S    
C91   H79   S    
H23   O77   S    
Cr2   O6    S    
C67   H60   S    
C109  O31   A    
C61   O22   A    
C31   H103  S    
C62   O28   A    
C65   C74   S    
C25   C64   S    
C69   C72   S    
C90   H15   S    
C2    C40   S    
C87   C105  S    
Cr12  O27   S    
C111  O12   A    
Cr11  O78   S    
H127  O68   S    
C11   C104  S    
C16   C23   S    
C23   C88   S    
C91   C100  S    
Cr2   O32   S    
Cr3   O29   S    
C93   C97   S    
C35   C52   S    
Cr2   O2    S    
Cr3   O7    S    
Cr4   O8    S    
H110  O55   S    
C119  O41   A    
C18   C22   S    
C36   H2    S    
C90   H77   S    
C103  C107  S    
C7    C76   S    
C18   C66   S    
C116  H93   S    
C67   C70   S    
C85   O69   S    
C83   H73   S    
C57   C58   S    
C44   O16   A    
Cr12  O9    S    
Cr10  O25   S    
C30   C39   S    
C59   H53   S    
Cr5   O41   S    
Cr9   O56   S    
H104  O49   S    
C40   C44   S    
C67   C75   S    
H22   O76   S    
C43   C109  S    
C34   H101  S    
C59   C76   S    
C81   C85   S    
C47   C56   S    
C71   O63   S    
C52   H42   S    
C24   C42   S    
C107  O71   S    
H118  O59   S    
C80   C84   S    
C13   C41   S    
C70   O62   S    
C15   C19   S    
C53   H43   S    
Cr8   O44   S    
C10   C103  S    
C35   H78   S    
C24   H98   S    
C52   H35   S    
C33   O15   A    
C80   C97   S    
C20   C25   S    
C94   C98   S    
C44   O20   A    
C55   O21   A    
C31   C40   S    
C58   H52   S    
C59   H49   S    
C24   C29   S    
C4    C75   S    
C102  C115  S    
C108  H20   S    
C73   O65   S    
C25   C99   S    
C80   H70   S    
C9    C102  S    
C12   C17   S    
C13   C28   S    
C92   H82   S    
C2    C27   S    
C112  O23   A    
C87   H12   S    
C83   C101  S    
C8    C101  S    
C21   C61   S    
C110  O75   S    
C27   C45   S    
C23   C63   S    
C5    O2    A    
C113  O35   A    
C101  C114  S    
C48   O53   S    
C92   H4    S    
C31   C49   S    
C15   O60   S    
C65   H61   S    
Cr5   O10   S    
C24   O79   S    
Cr1   O40   S    
H132  O73   S    
Cr1   O14   S    
C86   H76   S    
Cr12  O5    S    
C57   H47   S    
C94   C116  S    
C95   C100  S    
C47   C51   S    
C82   C86   S    
C35   C39   S    
C38   H111  S    
Cr6   O38   S    
C68   H58   S    
C14   O59   S    
C60   C78   S    
C46   C54   S    
C17   C77   S    
C6    O67   A    
C30   H102  S    
C48   O86   S    
C70   H114  S    
H121  O62   S    
C28   H28   S    
C94   H6    S    
C100  C118  S    
H33   O83   S    
C104  C108  S    
C89   H81   S    
C30   C48   S    
C47   C113  S    
C4    O88   A    
C91   C108  S    
C22   C77   S    
Cr4   O13   S    
Cr6   O42   S    
C72   O64   S    
Cr11  O48   S    
Cr12  O31   S    
C56   H41   S    
C108  O72   S    
C33   C41   S    
C1    O14   A    
H30   O80   S    
C79   C83   S    
C50   O55   S    
Cr7   O17   S    
C32   O49   S    
C20   C88   S    
C69   H62   S    
Cr1   O9    S    
Cr11  O13   S    
C6    C78   S    
C53   H39   S    
C13   H97   S    
Cr3   O3    S    
C1    C42   S    
C6    O3    A    
C120  O42   A    
C12   O58   S    
C5    O56   A    
Cr5   O12   S    
C71   C75   S    
Cr6   O11   S    
C93   H83   S    
C14   C18   S    
C38   H24   S    
C72   C76   S    
C98   C119  S    
C81   H71   S    
C51   O85   S    
C83   O66   S    
H112  O57   S    
C38   C42   S    
C110  H95   S    
Cr7   O39   S    
C1    O18   A    
C4    O45   A    
C15   C16   S    
H31   O81   S    
C29   O83   S    
Cr8   O22   S    
C93   C115  S    
Cr10  O20   S    
C49   O54   S    
C39   C110  S    
C118  O44   A    
C73   C78   S    
C3    C96   S    
C45   C49   S    
C43   C48   S    
C26   C110  S    
C32   H99   S    
Cr7   O43   S    
Cr6   O23   S    
C37   C41   S    
C115  H87   S    
C69   C78   S    
C34   O50   S    
C88   H10   S    
C91   H16   S    
C58   C75   S    
C27   O81   S    
Cr10  O47   S    
C101  C105  S    
C89   H14   S    
C106  O74   S    
H34   O84   S    
C36   C40   S    
C13   O77   S    
Cr5   O15   S    
C68   C73   S    
Cr12  O88   S    
Cr6   O16   S    
Cr7   O13   S    
C79   H64   S    
C89   C97   S    
C57   C74   S    
C85   H75   S    
C9    O37   A    
C8    O5    A    
C22   C62   S    
C11   O39   A    
C87   C96   S    
C38   C56   S    
C68   C76   S    
C32   C50   S    
H107  O52   S    
C37   C54   S    
C26   C43   S    
C12   C14   S    
C7    O78   A    
C57   H51   S    
C51   O57   S    
C60   H54   S    
C111  O32   A    
Cr11  O26   S    
C82   C100  S    
Cr9   O24   S    
Cr9   O46   S    
C67   H57   S    
H105  O50   S    
C105  H17   S    
C46   C50   S    
C94   H84   S    
C112  O33   A    
C86   O70   S    
C97   C120  S    
H129  O70   S    
Cr5   O37   S    
H128  O69   S    
C82   H72   S    
H130  O71   S    
C36   H89   S    
C102  C106  S    
C7    O4    A    
C93   H5    S    
C15   C25   S    
C63   O25   A    
C3    O43   A    
C64   O30   A    
C37   H13   S    
Cr10  O11   S    
C92   C114  S    
H120  O61   S    
C90   C98   S    
H131  O72   S    
