data_mof_unit_61432.cif
_audit_creation_date              2012-12-10T17:58:24-0500
_audit_creation_method            fapswitch 2.2
_symmetry_space_group_name_H-M    P1
_symmetry_Int_Tables_number       1
_space_group_crystal_system       triclinic
_cell_length_a                    18.2786
_cell_length_b                    25.92531
_cell_length_c                    18.368926
_cell_angle_alpha                 89.999883
_cell_angle_beta                  89.968355
_cell_angle_gamma                 89.999607
_cell_volume                      8704.63540874

loop_
_atom_site_label
_atom_site_type_symbol
_atom_type_description
_atom_site_fract_x
_atom_site_fract_y
_atom_site_fract_z
_atom_type_partial_charge
C1    C     C_R   0.639530 0.750811 0.359366 0.849072
C2    C     C_R   0.360470 0.249189 0.640634 0.849078
C3    C     C_R   0.360469 0.750810 0.640634 0.849068
C4    C     C_R   0.639530 0.249189 0.359366 0.849067
C5    C     C_R   0.640856 0.250501 0.639334 0.845884
C6    C     C_R   0.359143 0.749498 0.360667 0.845866
C7    C     C_R   0.359144 0.250502 0.360666 0.845879
C8    C     C_R   0.640857 0.749498 0.639334 0.845881
C9    C     C_R   0.139530 0.250811 0.859366 0.849084
C10   C     C_R   0.860470 0.749189 0.140634 0.849076
C11   C     C_R   0.860470 0.250811 0.140634 0.849070
C12   C     C_R   0.139531 0.749190 0.859366 0.849073
C13   C     C_R   0.140857 0.750502 0.139333 0.845861
C14   C     C_R   0.859144 0.249499 0.860666 0.845879
C15   C     C_R   0.859143 0.750502 0.860666 0.845874
C16   C     C_R   0.140856 0.249498 0.139334 0.845874
C17   C     C_R   0.695590 0.248686 0.303209 -0.113202
C18   C     C_R   0.304409 0.751312 0.696790 -0.113147
C19   C     C_R   0.304410 0.248687 0.696791 -0.113160
C20   C     C_R   0.695589 0.751314 0.303208 -0.113191
C21   C     C_R   0.697505 0.749411 0.694907 -0.124985
C22   C     C_R   0.302495 0.250589 0.305092 -0.124972
C23   C     C_R   0.302493 0.749412 0.305094 -0.125010
C24   C     C_R   0.697505 0.250588 0.694908 -0.124979
C25   C     C_R   0.195591 0.748687 0.803209 -0.113150
C26   C     C_R   0.804410 0.251314 0.196791 -0.113202
C27   C     C_R   0.804411 0.748686 0.196792 -0.113197
C28   C     C_R   0.195589 0.251314 0.803208 -0.113167
C29   C     C_R   0.197505 0.249410 0.194908 -0.124971
C30   C     C_R   0.802495 0.750589 0.805093 -0.124983
C31   C     C_R   0.802495 0.249412 0.805092 -0.124976
C32   C     C_R   0.197507 0.750588 0.194906 -0.125007
C33   C     C_R   0.433657 0.973275 0.503805 -0.147944
C34   C     C_R   0.566343 0.026725 0.496195 -0.147961
C35   C     C_R   0.566343 0.973274 0.496195 -0.147957
C36   C     C_R   0.433657 0.026726 0.503805 -0.147948
C37   C     C_R   0.933657 0.473275 0.003806 -0.147961
C38   C     C_R   0.066343 0.526725 0.996194 -0.147945
C39   C     C_R   0.066343 0.473274 0.996194 -0.147950
C40   C     C_R   0.933657 0.526726 0.003806 -0.147957
C41   C     C_R   0.500000 0.053698 0.500000 -0.018776
C42   C     C_R   0.500000 0.946302 0.500000 -0.018778
C43   C     C_R   0.000000 0.553698 1.000000 -0.018777
C44   C     C_R   1.000000 0.446302 1.000000 -0.018774
C45   C     C_R   0.500000 0.890217 0.500000 0.808563
C46   C     C_R   0.500000 0.109783 0.500000 0.808554
C47   C     C_R   1.000000 0.390217 0.000000 0.808555
C48   C     C_R   0.000000 0.609783 1.000000 0.808566
C49   C     C_R   0.499999 0.610199 0.499999 0.782481
C50   C     C_R   0.499994 0.389801 0.500001 0.782489
C51   C     C_R   0.999994 0.110200 0.000001 0.782492
C52   C     C_R   0.000006 0.889800 0.999999 0.782489
C53   C     C_R   0.624231 0.553702 0.446591 -0.140185
C54   C     C_R   0.375781 0.446297 0.553442 -0.140242
C55   C     C_R   0.375768 0.553711 0.553411 -0.140208
C56   C     C_R   0.624256 0.446290 0.446647 -0.140133
C57   C     C_R   0.124310 0.053714 0.946784 -0.140178
C58   C     C_R   0.875672 0.946285 0.053199 -0.140126
C59   C     C_R   0.875702 0.053705 0.053257 -0.140211
C60   C     C_R   0.124288 0.946296 0.946724 -0.140251
C61   C     C_R   0.684747 0.526779 0.420434 -0.109196
C62   C     C_R   0.315305 0.473221 0.579655 -0.109194
C63   C     C_R   0.315297 0.526793 0.579639 -0.109232
C64   C     C_R   0.684761 0.473209 0.420466 -0.109210
C65   C     C_R   0.184816 0.026795 0.920632 -0.109193
C66   C     C_R   0.815143 0.973205 0.079325 -0.109172
C67   C     C_R   0.815163 0.026780 0.079362 -0.109186
C68   C     C_R   0.184801 0.973221 0.920595 -0.109203
C69   C     C_R   0.561597 0.472754 0.472693 0.072718
C70   C     C_R   0.438404 0.527246 0.527326 0.072750
C71   C     C_R   0.438408 0.472756 0.527334 0.072698
C72   C     C_R   0.561590 0.527243 0.472677 0.072667
C73   C     C_R   0.061628 0.972757 0.972754 0.072697
C74   C     C_R   0.938367 0.027244 0.027241 0.072666
C75   C     C_R   0.938361 0.972752 0.027224 0.072712
C76   C     C_R   0.061632 0.027247 0.972771 0.072735
C77   C     C_R   0.499997 0.445942 0.500006 -0.142560
C78   C     C_R   0.499995 0.554058 0.499997 -0.142559
C79   C     C_R   1.000000 0.945941 0.999993 -0.142506
C80   C     C_R   0.999999 0.054059 0.000008 -0.142504
C81   C     C_R   0.268284 0.797187 0.716862 0.296200
C82   C     C_R   0.731765 0.202817 0.283184 0.296207
C83   C     C_R   0.731757 0.797181 0.283177 0.296218
C84   C     C_R   0.268268 0.202813 0.716846 0.296194
C85   C     C_R   0.228399 0.242112 0.322660 0.284243
C86   C     C_R   0.771601 0.757899 0.677340 0.284235
C87   C     C_R   0.771600 0.242108 0.677341 0.284242
C88   C     C_R   0.228408 0.757942 0.322649 0.284249
C89   C     C_R   0.768235 0.297183 0.216816 0.296208
C90   C     C_R   0.231716 0.702812 0.783138 0.296202
C91   C     C_R   0.231732 0.297187 0.783153 0.296199
C92   C     C_R   0.768243 0.702819 0.216824 0.296222
C93   C     C_R   0.728399 0.742101 0.822660 0.284232
C94   C     C_R   0.271601 0.257888 0.177340 0.284240
C95   C     C_R   0.271593 0.742059 0.177351 0.284248
C96   C     C_R   0.728400 0.257892 0.822659 0.284241
C97   C     C_R   0.713894 0.295385 0.269587 -0.240604
C98   C     C_R   0.286058 0.704608 0.730366 -0.240606
C99   C     C_R   0.286075 0.295391 0.730383 -0.240588
C100  C     C_R   0.713900 0.704617 0.269593 -0.240619
C101  C     C_R   0.676669 0.741308 0.767346 -0.239339
C102  C     C_R   0.323332 0.258681 0.232652 -0.239347
C103  C     C_R   0.323320 0.741268 0.232666 -0.239373
C104  C     C_R   0.676669 0.258683 0.767346 -0.239347
C105  C     C_R   0.213942 0.795391 0.769633 -0.240597
C106  C     C_R   0.786106 0.204615 0.230413 -0.240599
C107  C     C_R   0.786100 0.795383 0.230408 -0.240610
C108  C     C_R   0.213925 0.204610 0.769617 -0.240577
C109  C     C_R   0.176667 0.241319 0.267348 -0.239345
C110  C     C_R   0.823331 0.758692 0.732654 -0.239338
C111  C     C_R   0.823331 0.241316 0.732654 -0.239345
C112  C     C_R   0.176680 0.758733 0.267334 -0.239371
H1    H     H_    0.268015 0.547628 0.599542 0.159500
H2    H     H_    0.732076 0.452375 0.400612 0.159460
H3    H     H_    0.732051 0.547609 0.400550 0.159474
H4    H     H_    0.268028 0.452391 0.599573 0.159514
H5    H     H_    0.767855 0.047612 0.099212 0.159456
H6    H     H_    0.232098 0.952390 0.900726 0.159479
H7    H     H_    0.232134 0.047632 0.900800 0.159459
H8    H     H_    0.767804 0.952367 0.099137 0.159422
H9    H     H_    0.627586 0.595344 0.446588 0.134229
H10   H     H_    0.372414 0.404655 0.553435 0.134229
H11   H     H_    0.372389 0.595356 0.553383 0.134185
H12   H     H_    0.627635 0.404645 0.446685 0.134166
H13   H     H_    0.127687 0.095360 0.946822 0.134110
H14   H     H_    0.872300 0.904635 0.053164 0.134092
H15   H     H_    0.872349 0.095354 0.053274 0.134154
H16   H     H_    0.127647 0.904650 0.946709 0.134153
H17   H     H_    0.686912 0.330862 0.285573 0.192642
H18   H     H_    0.313002 0.669128 0.714343 0.192575
H19   H     H_    0.313032 0.330870 0.714373 0.192588
H20   H     H_    0.686923 0.669143 0.285583 0.192630
H21   H     H_    0.619623 0.735458 0.781213 0.201721
H22   H     H_    0.380379 0.264522 0.218785 0.201710
H23   H     H_    0.380358 0.735385 0.218808 0.201758
H24   H     H_    0.619623 0.264527 0.781212 0.201715
H25   H     H_    0.186998 0.830872 0.785656 0.192594
H26   H     H_    0.813088 0.169138 0.214427 0.192652
H27   H     H_    0.813077 0.830857 0.214418 0.192660
H28   H     H_    0.186968 0.169130 0.785627 0.192621
H29   H     H_    0.119621 0.235477 0.281214 0.201711
H30   H     H_    0.880377 0.764542 0.718787 0.201722
H31   H     H_    0.880377 0.235472 0.718788 0.201716
H32   H     H_    0.119642 0.764616 0.281192 0.201759
H33   H     H_    0.381807 0.953161 0.506927 0.193611
H34   H     H_    0.618193 0.046839 0.493073 0.193616
H35   H     H_    0.618193 0.953160 0.493073 0.193615
H36   H     H_    0.381807 0.046840 0.506927 0.193609
H37   H     H_    0.881807 0.453161 0.006928 0.193615
H38   H     H_    0.118193 0.546839 0.993071 0.193610
H39   H     H_    0.118193 0.453160 0.993071 0.193609
H40   H     H_    0.881807 0.546840 0.006928 0.193615
O1    O     O_3   0.500000 0.750040 0.500000 -0.516791
O2    O     O_3   0.500000 0.249960 0.500000 -0.516791
O3    O     O_3   0.000000 0.250040 0.000000 -0.516798
O4    O     O_3   1.000000 0.749960 0.000000 -0.516798
O5    O     O_R   0.585420 0.719700 0.353880 -0.649687
O6    O     O_R   0.414580 0.280300 0.646120 -0.649680
O7    O     O_R   0.414580 0.719700 0.646120 -0.649668
O8    O     O_R   0.585420 0.280300 0.353880 -0.649683
O9    O     O_R   0.585420 0.280300 0.646120 -0.641760
O10   O     O_R   0.414580 0.719700 0.353880 -0.641784
O11   O     O_R   0.414580 0.280300 0.353880 -0.641763
O12   O     O_R   0.585420 0.719700 0.646120 -0.641762
O13   O     O_R   0.085420 0.219700 0.853880 -0.649660
O14   O     O_R   0.914580 0.780300 0.146120 -0.649669
O15   O     O_R   0.914580 0.219700 0.146120 -0.649681
O16   O     O_R   0.085420 0.780300 0.853880 -0.649660
O17   O     O_R   0.085420 0.780300 0.146120 -0.641788
O18   O     O_R   0.914580 0.219700 0.853880 -0.641766
O19   O     O_R   0.914580 0.780300 0.853880 -0.641766
O20   O     O_R   0.085420 0.219700 0.146120 -0.641765
O21   O     O_R   0.646120 0.780390 0.585510 -0.597924
O22   O     O_R   0.353880 0.219610 0.414490 -0.597933
O23   O     O_R   0.353880 0.780390 0.414490 -0.597920
O24   O     O_R   0.646120 0.219610 0.585510 -0.597923
O25   O     O_R   0.646120 0.219610 0.414490 -0.582101
O26   O     O_R   0.353880 0.780390 0.585510 -0.582108
O27   O     O_R   0.353880 0.219610 0.585510 -0.582104
O28   O     O_R   0.646120 0.780390 0.414490 -0.582096
O29   O     O_R   0.146120 0.280390 0.085510 -0.597931
O30   O     O_R   0.853880 0.719610 0.914490 -0.597922
O31   O     O_R   0.853880 0.280390 0.914490 -0.597923
O32   O     O_R   0.146120 0.719610 0.085510 -0.597920
O33   O     O_R   0.146120 0.719610 0.914490 -0.582108
O34   O     O_R   0.853880 0.280390 0.085510 -0.582101
O35   O     O_R   0.853880 0.719610 0.085510 -0.582099
O36   O     O_R   0.146120 0.280390 0.914490 -0.582105
O37   O     O_R   0.560660 0.865840 0.500000 -0.629374
O38   O     O_R   0.439340 0.134160 0.500000 -0.629377
O39   O     O_R   0.439340 0.865840 0.500000 -0.629365
O40   O     O_R   0.560660 0.134160 0.500000 -0.629376
O41   O     O_R   0.060660 0.365840 0.000000 -0.629375
O42   O     O_R   0.939340 0.634160 0.000000 -0.629373
O43   O     O_R   0.939340 0.365840 0.000000 -0.629375
O44   O     O_R   0.060660 0.634160 0.000000 -0.629364
O45   O     O_R   0.500000 0.634240 0.439310 -0.634592
O46   O     O_R   0.500000 0.365760 0.560690 -0.634594
O47   O     O_R   0.500000 0.634240 0.560690 -0.634570
O48   O     O_R   0.500000 0.365760 0.439310 -0.634554
O49   O     O_R   1.000000 0.134240 0.939310 -0.634540
O50   O     O_R   1.000000 0.865760 0.060690 -0.634540
O51   O     O_R   1.000000 0.134240 0.060690 -0.634577
O52   O     O_R   1.000000 0.865760 0.939310 -0.634580
Zn1   Zn    Zn3+2 0.500000 0.706650 0.586810 0.990104
Zn2   Zn    Zn3+2 0.500000 0.293350 0.413190 0.990105
Zn3   Zn    Zn3+2 0.500000 0.706650 0.413190 0.990075
Zn4   Zn    Zn3+2 0.500000 0.293350 0.586810 0.990098
Zn5   Zn    Zn3+2 0.000000 0.206650 0.086810 0.990095
Zn6   Zn    Zn3+2 0.000000 0.793350 0.913190 0.990101
Zn7   Zn    Zn3+2 0.000000 0.206650 0.913190 0.990125
Zn8   Zn    Zn3+2 1.000000 0.793350 0.086810 0.990099
Zn9   Zn    Zn3+2 0.586710 0.793420 0.500000 1.051642
Zn10  Zn    Zn3+2 0.413290 0.206580 0.500000 1.051625
Zn11  Zn    Zn3+2 0.413290 0.793420 0.500000 1.051634
Zn12  Zn    Zn3+2 0.586710 0.206580 0.500000 1.051635
Zn13  Zn    Zn3+2 0.086710 0.293420 0.000000 1.051624
Zn14  Zn    Zn3+2 0.913290 0.706580 0.000000 1.051638
Zn15  Zn    Zn3+2 0.913290 0.293420 0.000000 1.051632
Zn16  Zn    Zn3+2 0.086710 0.706580 0.000000 1.051632
Br1   Br    Br    0.293393 0.863847 0.678298 -0.448676
Br2   Br    Br    0.706729 0.136157 0.321808 -0.448592
Br3   Br    Br    0.706707 0.863836 0.321789 -0.448605
Br4   Br    Br    0.293356 0.136151 0.678265 -0.448647
Br5   Br    Br    0.193284 0.234789 0.420833 -0.428410
Br6   Br    Br    0.806717 0.765240 0.579168 -0.428374
Br7   Br    Br    0.806714 0.234776 0.579170 -0.428386
Br8   Br    Br    0.193292 0.765345 0.420806 -0.428331
Br9   Br    Br    0.793271 0.363843 0.178193 -0.448620
Br10  Br    Br    0.206606 0.636153 0.821702 -0.448720
Br11  Br    Br    0.206643 0.363849 0.821735 -0.448702
Br12  Br    Br    0.793293 0.636164 0.178211 -0.448647
Br13  Br    Br    0.693282 0.734761 0.920832 -0.428393
Br14  Br    Br    0.306716 0.265211 0.079167 -0.428429
Br15  Br    Br    0.306707 0.734656 0.079193 -0.428344
Br16  Br    Br    0.693286 0.265223 0.920831 -0.428396

loop_
_geom_bond_atom_site_label_1
_geom_bond_atom_site_label_2
_ccdc_geom_bond_type
C10   C27   S    
C3    O7    A    
C15   O30   A    
C89   Br9   S    
O33   Zn16  S    
O10   Zn3   S    
C70   C78   A    
C11   O34   A    
C13   C32   S    
C69   C77   A    
O24   Zn12  S    
O5    Zn3   S    
O1    Zn11  S    
C4    O25   A    
O2    Zn10  S    
C9    O36   A    
C18   C81   A    
O43   Zn15  S    
C14   O31   A    
C50   O46   A    
C25   C105  A    
O42   Zn14  S    
O37   Zn9   S    
C49   O45   A    
O36   Zn13  S    
C26   C89   A    
O41   Zn13  S    
C68   H6    S    
C58   C66   A    
C25   C90   A    
C90   Br10  S    
O26   Zn11  S    
C30   C110  A    
C33   C42   A    
C56   H12   S    
C57   C76   A    
C29   C109  A    
O28   Zn9   S    
C86   C110  A    
C3    O26   A    
C28   C108  A    
C17   C82   A    
C37   C40   A    
C85   C109  A    
O12   Zn1   S    
C57   H13   S    
C29   C94   A    
C1    O28   A    
C106  H26   S    
O4    Zn8   S    
C6    O23   A    
C6    C23   S    
C59   H15   S    
C31   C96   A    
C7    O22   A    
C39   H39   S    
C60   C73   A    
O47   Zn1   S    
C33   C36   A    
C59   C67   A    
C49   C78   S    
C40   H40   S    
C3    C18   S    
C34   C35   A    
C22   C85   A    
C110  H30   S    
C35   C42   A    
C103  H23   S    
C51   C80   S    
C105  H25   S    
C72   C78   A    
O39   Zn11  S    
C88   C112  A    
O1    Zn3   S    
C53   C61   A    
C36   H36   S    
C40   C43   A    
C23   C103  A    
C54   C71   A    
C6    O10   A    
O49   Zn7   S    
C95   C103  A    
C55   C63   A    
C61   H3    S    
O48   Zn2   S    
C41   C46   S    
C56   C64   A    
O9    Zn4   S    
O3    Zn15  S    
C70   C71   A    
C27   C107  A    
C97   H17   S    
C52   C79   S    
C104  H24   S    
C43   C48   S    
C14   C31   S    
C44   C47   S    
C10   O14   A    
C83   Br3   S    
C65   C68   A    
C13   O17   A    
C66   C67   A    
C54   H10   S    
C66   H8    S    
C48   O44   A    
C11   O15   A    
O25   Zn12  S    
C26   C106  A    
C36   C41   A    
C34   C41   A    
C95   Br15  S    
C46   O38   A    
O1    Zn9   S    
O44   Zn16  S    
C45   O39   A    
C58   C75   A    
O7    Zn1   S    
C55   H11   S    
C96   Br16  S    
C38   C39   A    
C81   C105  A    
C111  H31   S    
C51   O51   A    
C64   H2    S    
C74   C75   A    
O18   Zn7   S    
O4    Zn6   S    
C9    O13   A    
O16   Zn6   S    
O3    Zn5   S    
O15   Zn5   S    
O2    Zn12  S    
O20   Zn5   S    
C8    O12   A    
C93   C101  A    
C108  H28   S    
O19   Zn6   S    
C50   O48   A    
C8    O21   A    
O13   Zn7   S    
C54   C62   A    
C11   C26   S    
C93   Br13  S    
C16   C29   S    
O17   Zn8   S    
C7    O11   A    
C89   C97   A    
C24   C104  A    
C42   C45   S    
C5    O9    A    
C69   C72   A    
O21   Zn9   S    
C102  H22   S    
C62   H4    S    
C62   C63   A    
C74   C80   A    
O38   Zn10  S    
C16   O20   A    
C20   C100  A    
C60   H16   S    
C2    O6    A    
C13   O32   A    
C37   H37   S    
C98   H18   S    
C19   C99   A    
C10   O35   A    
C65   H7    S    
C15   O19   A    
C27   C92   A    
O4    Zn16  S    
C35   H35   S    
C90   C98   A    
C67   H5    S    
C59   C74   A    
C60   C68   A    
O2    Zn2   S    
C33   H33   S    
O1    Zn1   S    
C4    C17   S    
C45   O37   A    
O29   Zn13  S    
C58   H14   S    
C87   Br7   S    
C23   C88   A    
C96   C104  A    
C84   Br4   S    
C86   Br6   S    
C5    O24   A    
O45   Zn3   S    
C85   Br5   S    
C2    O27   A    
O52   Zn6   S    
C19   C84   A    
C50   C77   S    
C71   C77   A    
C92   C100  A    
C15   C30   S    
C49   O47   A    
C47   O43   A    
C21   C86   A    
C1    C20   S    
O31   Zn15  S    
C32   C112  A    
C48   O42   A    
C2    C19   S    
C16   O29   A    
C92   Br12  S    
C47   O41   A    
C94   Br14  S    
C76   C80   A    
O50   Zn8   S    
C73   C79   A    
C8    C21   S    
C12   O16   A    
O4    Zn14  S    
C100  H20   S    
O30   Zn14  S    
C39   C44   A    
C82   Br2   S    
C101  H21   S    
C30   C93   A    
C7    C22   S    
C81   Br1   S    
O34   Zn15  S    
O11   Zn2   S    
C22   C102  A    
C99   H19   S    
C12   C25   S    
O6    Zn4   S    
C112  H32   S    
O40   Zn12  S    
O3    Zn7   S    
C88   Br8   S    
C21   C101  A    
C38   C43   A    
C53   H9    S    
C61   C64   A    
C46   O40   A    
C34   H34   S    
C4    O8    A    
C5    C24   S    
C17   C97   A    
C14   O18   A    
C37   C44   A    
C12   O33   A    
O27   Zn10  S    
C1    O5    A    
C84   C108  A    
C83   C107  A    
O3    Zn13  S    
C28   C91   A    
C52   O50   A    
C82   C106  A    
C107  H27   S    
C24   C87   A    
C55   C70   A    
C52   O52   A    
C63   H1    S    
O14   Zn8   S    
O32   Zn16  S    
C32   C95   A    
C87   C111  A    
C73   C76   A    
C94   C102  A    
C56   C69   A    
O8    Zn2   S    
C20   C83   A    
C91   Br11  S    
C31   C111  A    
O51   Zn5   S    
C109  H29   S    
C18   C98   A    
O22   Zn10  S    
C91   C99   A    
C53   C72   A    
C75   C79   A    
C38   H38   S    
O46   Zn4   S    
O2    Zn4   S    
C51   O49   A    
C9    C28   S    
O23   Zn11  S    
C57   C65   A    
O35   Zn14  S    
