data_mof_unit_27848.cif
_audit_creation_date              2012-12-11T17:36:13-0500
_audit_creation_method            fapswitch 2.2
_symmetry_space_group_name_H-M    P1
_symmetry_Int_Tables_number       1
_space_group_crystal_system       triclinic
_cell_length_a                    25.983902
_cell_length_b                    6.894546
_cell_length_c                    21.650812
_cell_angle_alpha                 90.000047
_cell_angle_beta                  96.151587
_cell_angle_gamma                 90.000385
_cell_volume                      3856.34853394

loop_
_atom_site_label
_atom_site_type_symbol
_atom_type_description
_atom_site_fract_x
_atom_site_fract_y
_atom_site_fract_z
_atom_type_partial_charge
O1    O     O_R   0.208650 0.594520 0.175450 -0.531640
O2    O     O_R   0.791350 0.405480 0.824550 -0.531640
O3    O     O_R   0.291350 0.094520 0.324550 -0.531637
O4    O     O_R   0.708650 0.905480 0.675450 -0.531637
O5    O     O_R   0.192980 0.260780 0.300160 -0.527579
O6    O     O_R   0.807020 0.739220 0.699840 -0.527580
O7    O     O_R   0.307020 0.760780 0.199840 -0.527582
O8    O     O_R   0.692980 0.239220 0.800160 -0.527582
C1    C     C_R   0.179492 0.433410 0.319478 0.680455
C2    C     C_R   0.820508 0.566590 0.680522 0.680456
C3    C     C_R   0.320507 0.933410 0.180521 0.680451
C4    C     C_R   0.679493 0.066590 0.819479 0.680451
O9    O     O_R   0.202550 0.264660 0.174420 -0.540831
O10   O     O_R   0.797450 0.735340 0.825580 -0.540830
O11   O     O_R   0.297450 0.764660 0.325580 -0.540828
O12   O     O_R   0.702550 0.235340 0.674420 -0.540828
O13   O     O_R   0.300990 0.096480 0.197920 -0.536908
O14   O     O_R   0.699010 0.903520 0.802080 -0.536908
O15   O     O_R   0.199010 0.596480 0.302080 -0.536907
O16   O     O_R   0.800990 0.403520 0.697920 -0.536908
C5    C     C_R   0.190869 0.433153 0.151130 0.726157
C6    C     C_R   0.809131 0.566847 0.848870 0.726156
C7    C     C_R   0.309131 0.933154 0.348870 0.726157
C8    C     C_R   0.690869 0.066846 0.651130 0.726158
O17   O     O_3   0.282290 0.427760 0.257860 -0.363734
O18   O     O_3   0.717710 0.572240 0.742140 -0.363734
O19   O     O_3   0.217710 0.927760 0.242140 -0.363735
O20   O     O_3   0.782290 0.072240 0.757860 -0.363735
V1    V     V_3+5 0.244010 0.152080 0.248540 1.468746
V2    V     V_3+5 0.755990 0.847920 0.751460 1.468746
V3    V     V_3+5 0.255990 0.652080 0.251460 1.468746
V4    V     V_3+5 0.744010 0.347920 0.748540 1.468746
C9    C     C_R   0.657061 0.063546 0.591750 -0.053841
C10   C     C_R   0.342939 0.936454 0.408250 -0.053842
C11   C     C_R   0.842939 0.563560 0.908250 -0.053848
C12   C     C_R   0.157061 0.436439 0.091749 -0.053847
C13   C     C_R   0.643803 0.155296 0.483378 -0.168276
C14   C     C_R   0.356197 0.844704 0.516621 -0.168276
C15   C     C_R   0.856208 0.655466 0.016609 -0.168282
C16   C     C_R   0.143792 0.344534 0.983391 -0.168282
C17   C     C_R   0.676051 0.137636 0.538627 -0.150250
C18   C     C_R   0.323949 0.862364 0.461372 -0.150249
C19   C     C_R   0.823956 0.637748 0.961365 -0.150229
C20   C     C_R   0.176043 0.362252 0.038635 -0.150228
C21   C     C_R   0.604677 0.008674 0.589252 -0.225217
C22   C     C_R   0.395323 0.991326 0.410748 -0.225217
C23   C     C_R   0.895320 0.508636 0.910754 -0.225226
C24   C     C_R   0.104680 0.491364 0.089246 -0.225226
C25   C     C_R   0.570344 0.030334 0.533568 0.090479
C26   C     C_R   0.429656 0.969666 0.466431 0.090480
C27   C     C_R   0.929656 0.530345 0.966432 0.090475
C28   C     C_R   0.070344 0.469654 0.033568 0.090475
C29   C     C_R   0.591341 0.104364 0.480463 0.139568
C30   C     C_R   0.408659 0.895636 0.519537 0.139568
C31   C     C_R   0.908667 0.604491 0.019528 0.139565
C32   C     C_R   0.091333 0.395509 0.980472 0.139565
C33   C     C_R   0.516009 0.985165 0.528842 0.057388
C34   C     C_R   0.483991 0.014835 0.471158 0.057388
C35   C     C_R   0.983988 0.485125 0.971162 0.057386
C36   C     C_R   0.016012 0.514875 0.028838 0.057386
C37   C     C_R   0.507425 0.087762 0.420109 -0.188053
C38   C     C_R   0.492575 0.912238 0.579891 -0.188053
C39   C     C_R   0.992587 0.587933 0.079875 -0.188052
C40   C     C_R   0.007413 0.412067 0.920125 -0.188052
C41   C     C_R   0.559860 0.130841 0.424806 -0.199818
C42   C     C_R   0.440140 0.869159 0.575193 -0.199818
C43   C     C_R   0.940153 0.631049 0.075176 -0.199815
C44   C     C_R   0.059846 0.368951 0.924824 -0.199815
H1    H     H_    0.575926 0.187484 0.384262 0.124507
H2    H     H_    0.424074 0.812516 0.615738 0.124507
H3    H     H_    0.924094 0.687791 0.115712 0.124508
H4    H     H_    0.075906 0.312209 0.884288 0.124508
H5    H     H_    0.408177 0.043458 0.368087 0.093833
H6    H     H_    0.591823 0.956542 0.631913 0.093834
H7    H     H_    0.091832 0.543562 0.131902 0.093844
H8    H     H_    0.908168 0.456438 0.868098 0.093844
H9    H     H_    0.284106 0.815239 0.459906 0.134791
H10   H     H_    0.715894 0.184761 0.540094 0.134791
H11   H     H_    0.215884 0.315084 0.040107 0.134781
H12   H     H_    0.784116 0.684916 0.959893 0.134781
H13   H     H_    0.659755 0.213289 0.442964 0.117180
H14   H     H_    0.340245 0.786711 0.557036 0.117180
H15   H     H_    0.840262 0.713545 0.057016 0.117181
H16   H     H_    0.159738 0.286455 0.942984 0.117181
H17   H     H_    0.486219 0.114343 0.375445 0.123499
H18   H     H_    0.513781 0.885657 0.624555 0.123499
H19   H     H_    0.013798 0.614595 0.124532 0.123500
H20   H     H_    0.986202 0.385405 0.875468 0.123500
C45   C     C_R   0.435693 0.804881 0.091860 -0.139363
C46   C     C_R   0.564307 0.195119 0.908140 -0.139363
C47   C     C_R   0.064307 0.304878 0.408141 -0.139364
C48   C     C_R   0.935693 0.695122 0.591858 -0.139364
H21   H     H_    0.461453 0.682679 0.088514 0.112308
H22   H     H_    0.538547 0.317321 0.911486 0.112308
H23   H     H_    0.038548 0.182673 0.411489 0.112308
H24   H     H_    0.961452 0.817327 0.588511 0.112308
C49   C     C_R   0.396097 0.792383 0.131192 -0.153789
C50   C     C_R   0.603903 0.207617 0.868808 -0.153788
C51   C     C_R   0.103903 0.292380 0.368809 -0.153787
C52   C     C_R   0.896097 0.707620 0.631191 -0.153787
H25   H     H_    0.392703 0.660678 0.157682 0.137930
H26   H     H_    0.607297 0.339321 0.842318 0.137930
H27   H     H_    0.107298 0.160674 0.342320 0.137933
H28   H     H_    0.892702 0.839326 0.657679 0.137933
C53   C     C_R   0.361911 0.948685 0.137102 -0.096884
C54   C     C_R   0.638089 0.051315 0.862898 -0.096884
C55   C     C_R   0.138088 0.448684 0.362897 -0.096885
C56   C     C_R   0.861912 0.551316 0.637103 -0.096885
C57   C     C_R   0.368590 0.118973 0.101268 -0.042865
C58   C     C_R   0.631410 0.881027 0.898732 -0.042865
C59   C     C_R   0.131409 0.618976 0.398729 -0.042863
C60   C     C_R   0.868591 0.381024 0.601271 -0.042863
C61   C     C_R   0.408431 0.129486 0.062453 -0.176032
C62   C     C_R   0.591569 0.870514 0.937546 -0.176032
C63   C     C_R   0.091567 0.629489 0.437544 -0.176034
C64   C     C_R   0.908432 0.370511 0.562456 -0.176034
H29   H     H_    0.413162 0.260130 0.035649 0.115644
H30   H     H_    0.586838 0.739870 0.964351 0.115644
H31   H     H_    0.086836 0.760134 0.464347 0.115643
H32   H     H_    0.913164 0.239866 0.535653 0.115643
C65   C     C_R   0.442129 0.974036 0.057531 0.115424
C66   C     C_R   0.557871 0.025964 0.942468 0.115424
C67   C     C_R   0.057870 0.474035 0.442468 0.115425
C68   C     C_R   0.942130 0.525965 0.557532 0.115425
C69   C     C_1   0.483049 0.991144 0.017036 -0.052188
C70   C     C_1   0.516951 0.008855 0.982964 -0.052188
C71   C     C_1   0.016951 0.491144 0.482964 -0.052188
C72   C     C_1   0.983049 0.508856 0.517036 -0.052188
C73   C     C_1   0.335054 0.285858 0.101674 0.279879
N1    N     N_1   0.308462 0.420428 0.101771 -0.370520
C74   C     C_1   0.664946 0.714142 0.898325 0.279878
N2    N     N_1   0.691538 0.579572 0.898229 -0.370520
C75   C     C_1   0.164943 0.785865 0.398321 0.279878
N3    N     N_1   0.191534 0.920439 0.398222 -0.370525
C76   C     C_1   0.835057 0.214135 0.601679 0.279878
N4    N     N_1   0.808466 0.079561 0.601777 -0.370526

loop_
_geom_bond_atom_site_label_1
_geom_bond_atom_site_label_2
_ccdc_geom_bond_type
O17   V3    S    
C51   H27   S    
O1    C5    A    
O19   V1    S    
C9    C21   A    
C16   H16   S    
C2    C56   S    
C10   C18   A    
O1    V3    S    
O15   V3    S    
C25   C33   A    
C76   N4    T    
C5    C12   S    
C42   H2    S    
O7    C3    A    
C6    C11   S    
C38   H18   S    
C35   C40   A    
C26   C30   A    
C36   C39   A    
C40   C44   A    
O9    V1    S    
C23   H8    S    
C14   C18   A    
C48   C68   A    
C54   C58   A    
O4    C8    A    
C25   C29   A    
C44   H4    S    
C48   H24   S    
O13   V1    S    
C31   C43   A    
O2    V4    S    
O3    V1    S    
C28   C36   A    
C65   C69   S    
C28   C32   A    
O3    C7    A    
C1    O15   A    
C52   H28   S    
C15   C31   A    
C2    O16   A    
C16   C32   A    
O2    C6    A    
C10   C22   A    
C11   C19   A    
C58   C62   A    
C16   C20   A    
C43   H3    S    
C57   C61   A    
C68   C72   S    
C13   C29   A    
C34   C37   A    
O11   C7    A    
C11   C23   A    
C35   C36   A    
O12   C8    A    
C47   C67   A    
C14   H14   S    
C45   H21   S    
C46   C66   A    
C24   H7    S    
C13   H13   S    
O10   V2    S    
C46   H22   S    
O5    V1    S    
O17   V1    S    
C39   C43   A    
C52   C56   A    
O7    V3    S    
C38   C42   A    
O19   V3    S    
C26   C34   A    
O20   V4    S    
C63   C67   A    
C17   H10   S    
O18   V4    S    
C59   C75   S    
C15   C19   A    
C33   C38   A    
C19   H12   S    
C32   C44   A    
C47   H23   S    
C56   C60   A    
C45   C49   A    
C21   H6    S    
O8    V4    S    
C66   C70   S    
O5    C1    A    
C37   C41   A    
C67   C71   S    
C14   C30   A    
C21   C25   A    
O8    C4    A    
C7    C10   S    
O9    C5    A    
C58   C74   S    
C3    C53   S    
C62   H30   S    
C37   H17   S    
C61   H29   S    
O6    V2    S    
O18   V2    S    
C63   H31   S    
C57   C73   S    
C75   N3    T    
C12   C20   A    
C27   C35   A    
C60   C76   S    
C71   C72   T    
C60   C64   A    
C29   C41   A    
C48   C52   A    
C73   N1    T    
O16   V4    S    
C53   C57   A    
C3    O13   A    
C64   C68   A    
C39   H19   S    
C55   C59   A    
C20   H11   S    
O6    C2    A    
C23   C27   A    
O11   V3    S    
C30   C42   A    
O12   V4    S    
C51   C55   A    
C22   C26   A    
C8    C9    S    
C50   C54   A    
C9    C17   A    
O10   C6    A    
O20   V2    S    
C49   C53   A    
C50   H26   S    
C4    C54   S    
C33   C34   A    
C69   C70   T    
C45   C65   A    
C41   H1    S    
C46   C50   A    
C12   C24   A    
C27   C31   A    
C13   C17   A    
O4    V2    S    
O14   V2    S    
C15   H15   S    
C62   C66   A    
C64   H32   S    
C24   C28   A    
C61   C65   A    
C18   H9    S    
C4    O14   A    
C1    C55   S    
C59   C63   A    
C47   C51   A    
C40   H20   S    
C22   H5    S    
C49   H25   S    
C74   N2    T    
