data_mof_unit_68152.cif
_audit_creation_date              2012-12-11T16:11:56-0500
_audit_creation_method            fapswitch 2.2
_symmetry_space_group_name_H-M    P1
_symmetry_Int_Tables_number       1
_space_group_crystal_system       triclinic
_cell_length_a                    7.029212
_cell_length_b                    14.584261
_cell_length_c                    15.595286
_cell_angle_alpha                 90.18839
_cell_angle_beta                  89.728767
_cell_angle_gamma                 92.125458
_cell_volume                      1597.63861476

loop_
_atom_site_label
_atom_site_type_symbol
_atom_type_description
_atom_site_fract_x
_atom_site_fract_y
_atom_site_fract_z
_atom_type_partial_charge
O1    O     O_R   0.638960 0.835150 0.161940 -0.512192
O2    O     O_R   0.361040 0.164850 0.838060 -0.516769
O3    O     O_R   0.309170 0.846340 0.337470 -0.551654
O4    O     O_R   0.690830 0.153660 0.662530 -0.550433
O5    O     O_R   0.138810 0.664830 0.338070 -0.549105
O6    O     O_R   0.861190 0.335170 0.661930 -0.548914
C1    C     C_R   0.479316 0.867788 0.366468 0.693656
C2    C     C_R   0.520737 0.132273 0.633429 0.697700
O7    O     O_R   0.309250 0.846350 0.162570 -0.505712
O8    O     O_R   0.690750 0.153650 0.837430 -0.499938
O9    O     O_R   0.138880 0.664840 0.161920 -0.523847
O10   O     O_R   0.861120 0.335160 0.838080 -0.523579
C3    C     C_R   0.480184 0.862173 0.129662 0.927398
C4    C     C_R   0.518775 0.133187 0.867748 0.889142
O11   O     O_R   0.638880 0.835150 0.338090 -0.535687
O12   O     O_R   0.361120 0.164850 0.661910 -0.533245
O13   O     O_3   0.472380 0.690440 0.250000 -0.398001
O14   O     O_3   0.527620 0.309560 0.750000 -0.402473
V1    V     V_3+5 0.197550 0.761040 0.250010 1.557946
V2    V     V_3+5 0.802450 0.238960 0.749990 1.541408
O15   O     O_R   0.809160 0.653640 0.162540 -0.548404
O16   O     O_R   0.190840 0.346360 0.837460 -0.547784
C5    C     C_R   0.974499 0.636791 0.129863 0.810524
C6    C     C_R   0.025453 0.369426 0.865798 0.783195
O17   O     O_R   0.809090 0.653640 0.337440 -0.560788
O18   O     O_R   0.190910 0.346360 0.662560 -0.560170
C7    C     C_R   0.975555 0.632799 0.367250 0.693458
C8    C     C_R   0.024482 0.367140 0.632725 0.693366
V3    V     V_3+5 0.697540 0.738950 0.250000 1.514242
V4    V     V_3+5 0.302460 0.261050 0.750000 1.480912
O19   O     O_3   0.972580 0.809550 0.250010 -0.350886
O20   O     O_3   0.027420 0.190450 0.749990 -0.345857
C9    C     C_3   0.163631 0.552674 0.494330 -0.283061
C10   C     C_3   0.836683 0.447153 0.505611 -0.283617
C11   C     C_3   0.033279 0.541457 0.574198 0.285131
C12   C     C_3   0.967065 0.458364 0.425748 0.282996
H1    H     H_    0.294543 0.596852 0.490067 0.136042
H2    H     H_    0.705770 0.402979 0.509915 0.136465
C13   C     C_3   0.017616 0.436560 0.561861 -0.200036
C14   C     C_3   0.982609 0.563296 0.438090 -0.201188
C15   C     C_3   0.144146 0.447471 0.481069 0.312394
C16   C     C_3   0.856155 0.552345 0.518908 0.313086
C17   C     C_3   0.873995 0.437328 0.006272 0.405671
C18   C     C_3   0.131519 0.575945 0.985501 0.394860
C19   C     C_3   0.022672 0.470395 0.073508 -0.322600
C20   C     C_3   0.983293 0.543537 0.917200 -0.299554
H3    H     H_    0.041395 0.440100 0.138091 0.176486
H4    H     H_    0.973753 0.574166 0.852361 0.173264
C21   C     C_3   0.976465 0.571114 0.055631 -0.200417
C22   C     C_3   0.025396 0.441910 0.935348 -0.209589
C23   C     C_3   0.829018 0.537874 0.988031 0.237564
C24   C     C_3   0.173517 0.474718 0.002265 0.203507
C25   C     C_3   0.624057 0.025163 0.436575 -0.208786
C26   C     C_3   0.376294 0.974785 0.563241 -0.209226
C27   C     C_3   0.454938 0.079872 0.469506 0.319908
C28   C     C_3   0.545427 0.920111 0.530223 0.319308
H5    H     H_    0.724070 0.046557 0.384442 0.162082
H6    H     H_    0.276377 0.953310 0.615379 0.164148
C29   C     C_3   0.508798 0.062055 0.562896 -0.090701
C30   C     C_3   0.491461 0.938003 0.436906 -0.088310
C31   C     C_3   0.679379 0.006048 0.531340 -0.172367
C32   C     C_3   0.320926 0.993952 0.468468 -0.171625
H7    H     H_    0.825950 0.009329 0.557714 0.136162
H8    H     H_    0.174335 0.990611 0.442119 0.135646
C33   C     C_3   0.602859 0.924932 0.968358 0.320947
C34   C     C_3   0.394438 0.063269 0.026718 0.293260
C35   C     C_3   0.425662 0.961889 0.924140 0.289726
C36   C     C_3   0.573386 0.027322 0.069718 0.286122
C37   C     C_3   0.499507 0.062104 0.938405 -0.439017
C38   C     C_3   0.498329 0.928038 0.056097 -0.428196
C39   C     C_3   0.677352 0.025204 0.982293 0.355832
C40   C     C_3   0.321992 0.963299 0.011470 0.386092
N1    N     N_2   0.068302 0.586465 0.655815 -0.540798
H9    H     H_    0.174154 0.557135 0.690749 0.242567
C41   C     C_3   0.087429 0.685498 0.652453 -0.487893
H10   H     H_    0.093136 0.713714 0.718640 0.247206
H11   H     H_    0.965031 0.714397 0.618874 0.235232
H12   H     H_    0.219195 0.707414 0.617717 0.168946
N2    N     N_2   0.932125 0.413354 0.344128 -0.535264
H13   H     H_    0.825656 0.442427 0.309391 0.249383
C42   C     C_3   0.914261 0.314280 0.347379 -0.485538
H14   H     H_    0.906936 0.286178 0.281175 0.245458
H15   H     H_    0.783741 0.291937 0.382842 0.167229
H16   H     H_    0.038110 0.285659 0.380077 0.235506
Cl1   Cl    Cl    0.316567 0.919438 0.828407 -0.551831
Cl2   Cl    Cl    0.681703 0.070733 0.165492 -0.541543
Cl3   Cl    Cl    0.725309 0.830598 0.924696 -0.480019
Cl4   Cl    Cl    0.250421 0.137917 0.086018 -0.532431
Cl5   Cl    Cl    0.906422 0.077559 0.963930 -0.404305
Cl6   Cl    Cl    0.094186 0.908338 0.027854 -0.388831
N3    N     N_2   0.300483 0.390791 0.458022 -0.516240
H17   H     H_    0.383369 0.374608 0.509629 0.243890
C43   C     C_3   0.408953 0.422973 0.384246 -0.537705
H18   H     H_    0.512035 0.371116 0.365513 0.196382
H19   H     H_    0.488271 0.488197 0.399545 0.187719
H20   H     H_    0.314211 0.433677 0.328704 0.232583
N4    N     N_2   0.699750 0.608845 0.542235 -0.513790
H21   H     H_    0.616672 0.625147 0.490732 0.243014
C44   C     C_3   0.591608 0.576229 0.615962 -0.548831
H22   H     H_    0.489869 0.628322 0.635622 0.198250
H23   H     H_    0.686829 0.564319 0.671060 0.225755
H24   H     H_    0.510911 0.511526 0.600185 0.189228
Cl7   Cl    Cl    0.754474 0.332057 0.031680 -0.644555
Cl8   Cl    Cl    0.268148 0.680537 0.971534 -0.586003
N5    N     N_2   0.643596 0.571009 0.968619 -0.478302
H25   H     H_    0.637166 0.640266 0.980347 0.331497
C45   C     C_3   0.577064 0.544691 0.883291 -0.371540
H26   H     H_    0.422741 0.552831 0.876776 0.219883
H27   H     H_    0.603460 0.471350 0.869938 0.199096
H28   H     H_    0.648518 0.588535 0.833801 0.175346
N6    N     N_2   0.351423 0.432379 0.016196 -0.507151
H29   H     H_    0.431663 0.465852 0.062658 0.294002
C46   C     C_3   0.329393 0.334700 0.030836 -0.274219
H30   H     H_    0.394148 0.317097 0.093233 0.237556
H31   H     H_    0.396750 0.297267 0.977419 0.229443
H32   H     H_    0.178118 0.310110 0.033667 0.228984
N7    N     N_2   0.405060 0.168102 0.436099 -0.540486
H33   H     H_    0.496963 0.220446 0.456110 0.238972
C47   C     C_3   0.372270 0.168832 0.344608 -0.440622
H34   H     H_    0.323039 0.236724 0.324718 0.213040
H35   H     H_    0.261403 0.116040 0.326706 0.225043
H36   H     H_    0.506414 0.156037 0.309613 0.235772
N8    N     N_2   0.596121 0.831693 0.562915 -0.541680
H37   H     H_    0.506395 0.779110 0.541546 0.238276
C48   C     C_3   0.625479 0.829624 0.654564 -0.437675
H38   H     H_    0.681164 0.762720 0.673533 0.216356
H39   H     H_    0.488301 0.837990 0.688387 0.237229
H40   H     H_    0.729819 0.884591 0.674543 0.222493

loop_
_geom_bond_atom_site_label_1
_geom_bond_atom_site_label_2
_ccdc_geom_bond_type
C18   C21   S    
C34   C36   S    
C43   H18   S    
C27   C29   S    
C36   Cl2   S    
N1    H9    S    
C25   C27   S    
N6    H29   S    
C10   C16   S    
O4    C2    A    
V1    O19   S    
C42   H14   S    
C18   Cl8   S    
N8    H37   S    
C13   C15   S    
N5    C45   S    
O9    V1    S    
V3    O19   S    
O3    C1    A    
N7    C47   S    
C2    C29   S    
C34   Cl4   S    
C9    C11   S    
C5    C21   S    
C34   C37   S    
C3    C38   S    
O12   V4    S    
C33   C38   S    
C27   C32   S    
N4    H21   S    
O13   V3    S    
C30   C32   S    
C35   C40   S    
C37   C39   S    
C11   C16   S    
O7    C3    A    
C43   H19   S    
C32   H8    S    
C42   H15   S    
O5    C7    A    
C25   C31   S    
O7    V1    S    
C34   C40   S    
O8    V2    S    
C21   C23   S    
C48   H40   S    
C22   C24   S    
C45   H26   S    
O3    V1    S    
O14   V4    S    
C10   C12   S    
C46   H32   S    
C18   C24   S    
C47   H35   S    
C2    O12   A    
C6    C22   S    
N1    C41   S    
C12   C15   S    
V2    O20   S    
N4    C44   S    
C25   C30   S    
C18   C20   S    
O11   V3    S    
C20   H4    S    
C26   C29   S    
C19   H3    S    
O17   V3    S    
C26   C28   S    
C35   Cl1   S    
C9    C14   S    
C29   C31   S    
C10   C13   S    
C28   N8    S    
C12   C14   S    
O8    C4    A    
C16   N4    S    
N3    H17   S    
N2    C42   S    
C25   H5    S    
C1    O11   A    
C26   C32   S    
C24   N6    S    
C33   C35   S    
C33   C39   S    
O15   V3    S    
C20   C23   S    
C9    H1    S    
C28   C30   S    
C35   C37   S    
C11   C13   S    
C41   H10   S    
N3    C43   S    
C40   Cl6   S    
C44   H22   S    
C39   Cl5   S    
C19   C21   S    
C7    C14   S    
C23   N5    S    
O10   V2    S    
O1    V3    S    
N6    C46   S    
C33   Cl3   S    
C41   H11   S    
C4    C37   S    
C44   H23   S    
O18   V4    S    
C43   H20   S    
O15   C5    A    
C48   H38   S    
C26   H6    S    
C45   H28   S    
O16   C6    A    
O1    C3    A    
C1    C30   S    
C42   H16   S    
C46   H30   S    
C27   N7    S    
C47   H36   S    
O10   C6    A    
C11   N1    S    
O16   V4    S    
C15   N3    S    
C10   H2    S    
C31   H7    S    
C14   C16   S    
C12   N2    S    
C47   H34   S    
C17   C22   S    
O5    V1    S    
O17   C7    A    
O6    V2    S    
N5    H25   S    
C20   C22   S    
O18   C8    A    
C8    C13   S    
O2    V4    S    
C9    C15   S    
C19   C24   S    
C17   C19   S    
N7    H33   S    
V4    O20   S    
C17   C23   S    
C45   H27   S    
C36   C39   S    
O9    C5    A    
O13   V1    S    
O14   V2    S    
O2    C4    A    
C41   H12   S    
C17   Cl7   S    
N8    C48   S    
N2    H13   S    
O4    V2    S    
O6    C8    A    
C44   H24   S    
C36   C38   S    
C48   H39   S    
C28   C31   S    
C38   C40   S    
C46   H31   S    
