data_mof_unit_54653.cif
_audit_creation_date              2012-12-11T15:52:32-0500
_audit_creation_method            fapswitch 2.2
_symmetry_space_group_name_H-M    P1
_symmetry_Int_Tables_number       1
_space_group_crystal_system       triclinic
_cell_length_a                    6.924712
_cell_length_b                    14.564402
_cell_length_c                    16.011243
_cell_angle_alpha                 90.234053
_cell_angle_beta                  89.931436
_cell_angle_gamma                 89.936963
_cell_volume                      1614.78691814

loop_
_atom_site_label
_atom_site_type_symbol
_atom_type_description
_atom_site_fract_x
_atom_site_fract_y
_atom_site_fract_z
_atom_type_partial_charge
O1    O     O_R   0.494400 0.415640 0.412830 -0.539660
O2    O     O_R   0.823920 0.405510 0.586560 -0.543584
O3    O     O_R   0.994250 0.584360 0.587170 -0.541274
C1    C     C_R   0.654837 0.383070 0.615305 0.685310
O4    O     O_R   0.824110 0.404610 0.413450 -0.542677
O5    O     O_R   0.994440 0.583460 0.412820 -0.540138
C2    C     C_R   0.655122 0.382121 0.384362 0.689172
O6    O     O_R   0.494210 0.416540 0.587180 -0.540621
O7    O     O_3   0.660810 0.558680 0.500000 -0.369884
V1    V     V_3+5 0.935650 0.489110 0.500000 1.390263
O8    O     O_R   0.324150 0.594490 0.413440 -0.543407
C3    C     C_R   0.155092 0.616691 0.384375 0.685475
O9    O     O_R   0.323970 0.595390 0.586550 -0.544343
C4    C     C_R   0.154463 0.617735 0.615494 0.673634
V2    V     V_3+5 0.435660 0.510890 0.500000 1.387922
O10   O     O_3   0.160630 0.441320 0.500000 -0.367875
C5    C     C_3   0.928512 0.708447 0.710387 -0.322109
H1    H     H_    0.846827 0.733445 0.655090 0.147479
H2    H     H_    0.857126 0.644305 0.731950 0.149318
C6    C     C_3   0.917394 0.781433 0.780469 -0.389693
H3    H     H_    0.833906 0.752985 0.833873 0.170662
H4    H     H_    0.837289 0.842392 0.757273 0.164254
H5    H     H_    0.156763 0.808371 0.604612 0.082777
H6    H     H_    0.147371 0.912578 0.710983 0.000262
C7    C     C_3   0.235377 0.780052 0.659376 -0.345955
C8    C     C_3   0.248153 0.652667 0.764829 -0.326648
C9    C     C_3   0.141951 0.688020 0.685850 0.061482
H7    H     H_    0.403574 0.641084 0.750357 0.148160
H8    H     H_    0.186439 0.585531 0.784226 0.124106
C10   C     C_3   0.122759 0.810778 0.809603 0.041293
C11   C     C_3   0.231493 0.851468 0.732300 0.364075
C12   C     C_3   0.230333 0.722549 0.838015 -0.298061
H9    H     H_    0.150620 0.690364 0.890689 0.117918
H10   H     H_    0.376971 0.739896 0.861561 0.171019
H11   H     H_    0.386742 0.767534 0.638763 0.160495
C13   C     C_R   0.953178 0.773819 0.215968 -0.158741
H12   H     H_    0.812307 0.792076 0.191877 0.116025
C14   C     C_R   0.964222 0.710672 0.281564 -0.153618
H13   H     H_    0.831310 0.682080 0.305793 0.118472
C15   C     C_R   0.143957 0.684711 0.315214 -0.048107
C16   C     C_R   0.312326 0.723740 0.281384 -0.158944
H14   H     H_    0.453194 0.705494 0.305486 0.116173
C17   C     C_R   0.301283 0.786885 0.215786 -0.153521
H15   H     H_    0.434192 0.815486 0.191562 0.118080
C18   C     C_R   0.121554 0.812800 0.182098 -0.047335
C19   C     C_R   0.812213 0.273651 0.715732 -0.158879
H16   H     H_    0.952929 0.291612 0.691231 0.116200
C20   C     C_R   0.801349 0.209298 0.780217 -0.162141
H17   H     H_    0.934168 0.179471 0.803289 0.115794
C21   C     C_R   0.621781 0.183681 0.814167 -0.045388
C22   C     C_R   0.453324 0.223890 0.781674 -0.167969
H18   H     H_    0.312578 0.205635 0.805953 0.115238
C23   C     C_R   0.464187 0.288299 0.717238 -0.163892
H19   H     H_    0.331307 0.317884 0.693979 0.119436
C24   C     C_R   0.643802 0.314135 0.683445 -0.043269
C25   C     C_R   0.812261 0.273909 0.281295 -0.157667
H20   H     H_    0.953173 0.292353 0.305269 0.116673
C26   C     C_R   0.801086 0.210072 0.215762 -0.151609
H21   H     H_    0.933995 0.181178 0.191478 0.118626
C27   C     C_R   0.621291 0.183861 0.182199 -0.047172
C28   C     C_R   0.452980 0.223261 0.216178 -0.157535
H22   H     H_    0.312071 0.204804 0.192210 0.116204
C29   C     C_R   0.464155 0.287100 0.281714 -0.151295
H23   H     H_    0.331252 0.315989 0.306011 0.118935
C30   C     C_R   0.643965 0.313370 0.315226 -0.047875
O11   O     O_R   0.771300 0.080930 0.910090 -0.542023
O12   O     O_R   0.441270 0.092800 0.083770 -0.543759
O13   O     O_R   0.271080 0.913920 0.084380 -0.541391
C31   C     C_R   0.610210 0.115237 0.112953 0.685878
O14   O     O_R   0.441580 0.091910 0.910670 -0.544756
O15   O     O_R   0.271390 0.913020 0.910040 -0.518404
C32   C     C_R   0.610769 0.114988 0.882482 0.669053
O16   O     O_R   0.770990 0.081830 0.084440 -0.540572
O17   O     O_3   0.604750 0.938760 0.997250 -0.364143
V3    V     V_3+5 0.329850 0.008280 0.997210 1.408890
O18   O     O_R   0.941680 0.901940 0.910610 -0.546438
C33   C     C_R   0.110809 0.880369 0.880920 0.663172
O19   O     O_R   0.941370 0.902830 0.083720 -0.543885
C34   C     C_R   0.110423 0.880721 0.112854 0.682023
V4    V     V_3+5 0.829860 0.986420 0.997150 1.397485
O20   O     O_3   0.104830 0.056030 0.997180 -0.371300
O21   O     O_3   0.425014 0.872955 0.754788 -0.574221
C35   C     C_3   0.482119 0.960853 0.726722 0.105395
H24   H     H_    0.613902 0.979723 0.762124 0.131301
H25   H     H_    0.372239 0.014586 0.741118 0.096533
C36   C     C_3   0.533882 0.959804 0.633579 -0.368336
H26   H     H_    0.639730 0.903954 0.621039 0.193942
H27   H     H_    0.402268 0.946803 0.595792 0.186584
C37   C     C_3   0.621235 0.051221 0.606708 -0.811339
H28   H     H_    0.517099 0.108010 0.617981 0.241401
H29   H     H_    0.655916 0.048712 0.539020 0.228562
H30   H     H_    0.756407 0.065010 0.641876 0.230300

loop_
_geom_bond_atom_site_label_1
_geom_bond_atom_site_label_2
_ccdc_geom_bond_type
C7    C11   S    
C14   C15   A    
C29   C30   A    
C8    C12   S    
C16   H14   S    
C1    O6    A    
C6    C10   S    
C23   H19   S    
O13   V3    S    
C8    C9    S    
C11   O21   S    
C13   H12   S    
O5    C3    A    
C10   C11   S    
O19   V4    S    
C26   C27   A    
V2    O10   S    
C5    C6    S    
C25   H20   S    
C28   C29   A    
C21   C32   S    
O1    C2    A    
C10   C33   S    
O8    V2    S    
O11   C32   A    
C19   C24   A    
C31   O16   A    
O1    V2    S    
C4    C9    S    
C37   H29   S    
O7    V1    S    
O13   C34   A    
C20   C21   A    
O17   V4    S    
O9    C4    A    
C16   C17   A    
C21   C22   A    
C23   C24   A    
C19   C20   A    
O17   V3    S    
C22   H18   S    
C5    C9    S    
O18   C33   A    
O4    C2    A    
C36   H26   S    
V3    O20   S    
C26   H21   S    
C27   C28   A    
O12   C31   A    
C12   H10   S    
C3    C15   S    
O2    C1    A    
C17   H15   S    
C10   C12   S    
C2    C30   S    
C35   H24   S    
C5    H1    S    
C13   C18   A    
C18   C34   S    
C37   H30   S    
C17   C18   A    
O3    C4    A    
C7    H11   S    
C20   H17   S    
C35   H25   S    
C6    H4    S    
O6    V2    S    
O9    V2    S    
C1    C24   S    
O12   V3    S    
O2    V1    S    
O15   C33   A    
C19   H16   S    
C15   C16   A    
O19   C34   A    
O18   V4    S    
V4    O20   S    
C36   C37   S    
O5    V1    S    
O8    C3    A    
C7    C9    S    
O11   V4    S    
C8    H7    S    
C12   H9    S    
C13   C14   A    
O7    V2    S    
H6    C11   S    
O4    V1    S    
O3    V1    S    
V1    O10   S    
O15   V3    S    
C14   H13   S    
C27   C31   S    
C5    H2    S    
O16   V4    S    
C25   C26   A    
C36   H27   S    
H5    C7    S    
C28   H22   S    
C29   H23   S    
C35   C36   S    
C6    H3    S    
C8    H8    S    
O21   C35   S    
O14   V3    S    
O14   C32   A    
C22   C23   A    
C37   H28   S    
C25   C30   A    
