data_mof_unit_63653.cif
_audit_creation_date              2012-10-26T18:35:15-0400
_audit_creation_method            fapswitch 2.2
_symmetry_space_group_name_H-M    P1
_symmetry_Int_Tables_number       1
_space_group_crystal_system       triclinic
_cell_length_a                    10.8478
_cell_length_b                    14.424526
_cell_length_c                    13.136011
_cell_angle_alpha                 90.013572
_cell_angle_beta                  90.06513
_cell_angle_gamma                 90.871855
_cell_volume                      2055.2097284

loop_
_atom_site_label
_atom_site_type_symbol
_atom_type_description
_atom_site_fract_x
_atom_site_fract_y
_atom_site_fract_z
_atom_type_partial_charge
C1    C     C_R   0.499705 0.328694 0.499987 0.552234
C2    C     C_R   0.743025 0.506035 0.500112 0.566082
C3    C     C_R   0.493094 0.671048 0.499995 0.526078
C4    C     C_3   0.070733 0.506886 0.610687 -0.291948
C5    C     C_3   0.068459 0.419610 0.448793 -0.265120
C6    C     C_3   0.929695 0.505813 0.610736 -0.280000
C7    C     C_3   0.927670 0.427248 0.439513 -0.264791
C8    C     C_3   0.075768 0.596309 0.434535 0.565052
C9    C     C_3   0.930595 0.606440 0.450350 0.562190
C10   C     C_3   0.121544 0.509177 0.499344 0.020380
C11   C     C_3   0.880100 0.512535 0.500082 0.025938
C12   C     C_1   0.495394 0.957425 0.499939 -0.006861
C13   C     C_1   0.498799 0.227077 0.499959 -0.051767
C14   C     C_1   0.497804 0.142223 0.499944 -0.046544
C15   C     C_1   0.496501 0.042274 0.499937 -0.004549
C16   C     C_3   0.169769 0.707014 0.555153 -0.123572
C17   C     C_3   0.179712 0.625717 0.274367 -0.050424
C18   C     C_3   0.787582 0.709608 0.529688 -0.120974
C19   C     C_3   0.891816 0.706407 0.308899 -0.060922
C20   C     C_1   0.494207 0.857499 0.499950 -0.057998
C21   C     C_1   0.493465 0.772674 0.499971 -0.074433
C22   C     C_1   0.499948 0.500074 0.173613 0.114464
C23   C     C_1   0.499971 0.500060 0.826392 0.112214
C24   C     C_1   0.499919 0.500105 0.050692 -0.053011
C25   C     C_1   0.499933 0.500097 0.949323 -0.053196
C26   C     C_R   0.257292 0.503115 0.499858 0.568539
Cu1   Cu    Cu3+1 0.500000 0.499990 0.592680 0.940709
Cu2   Cu    Cu3+1 0.500000 0.499990 0.407320 0.978406
H1    H     H_    0.106654 0.563380 0.659511 0.118755
H2    H     H_    0.203859 0.779878 0.555305 0.140881
H3    H     H_    0.246958 0.665654 0.584084 0.125044
H4    H     H_    0.270369 0.630471 0.313176 0.179840
H5    H     H_    0.144836 0.696486 0.260503 0.119730
H6    H     H_    0.194641 0.592760 0.199190 0.112603
H7    H     H_    0.749882 0.677164 0.599736 0.135107
H8    H     H_    0.728120 0.693073 0.463704 0.158321
H9    H     H_    0.785031 0.785774 0.540736 0.129882
H10   H     H_    0.962039 0.750546 0.348075 0.172452
H11   H     H_    0.804003 0.744741 0.306186 0.104557
H12   H     H_    0.109082 0.407280 0.372312 0.174752
H13   H     H_    0.921886 0.696158 0.229078 0.128551
H14   H     H_    0.896030 0.563759 0.658488 0.155524
H15   H     H_    0.902052 0.433590 0.357780 0.185361
H16   H     H_    0.102224 0.442693 0.649370 0.140238
H17   H     H_    0.091419 0.357620 0.495270 0.110226
H18   H     H_    0.895761 0.440326 0.646705 0.137362
H19   H     H_    0.883901 0.362080 0.468457 0.110961
H20   H     H_    0.090620 0.705410 0.607871 0.160307
N1    N     N_1   0.500000 0.500020 0.268070 -0.172152
N2    N     N_1   0.500000 0.500020 0.731930 -0.171709
O1    O     O_R   0.500000 0.376050 0.578280 -0.468594
O2    O     O_3   0.092494 0.571334 0.329287 -0.566827
O3    O     O_3   0.911364 0.683995 0.516303 -0.612001
O4    O     O_3   0.870552 0.618247 0.354006 -0.548084
O5    O     O_R   0.500000 0.376050 0.421720 -0.472956
O6    O     O_R   0.317680 0.499980 0.578260 -0.508637
O7    O     O_R   0.317680 0.499980 0.421740 -0.483332
O8    O     O_R   0.682320 0.499980 0.578260 -0.510257
O9    O     O_R   0.682320 0.499980 0.421740 -0.454586
O10   O     O_R   0.500000 0.623940 0.578240 -0.490252
O11   O     O_R   0.500000 0.623940 0.421760 -0.480168
O12   O     O_3   0.138920 0.683687 0.453740 -0.587078

loop_
_geom_bond_atom_site_label_1
_geom_bond_atom_site_label_2
_ccdc_geom_bond_type
C2    O8    A    
C7    H19   S    
C19   H10   S    
C7    H15   S    
C9    C11   S    
C18   H7    S    
C8    O2    S    
C4    H1    S    
C14   C15   S    
C12   C15   T    
C6    H18   S    
Cu2   O5    S    
Cu2   O11   S    
C10   C26   S    
C23   C25   S    
C1    O5    A    
C5    C10   S    
C5    H17   S    
Cu2   O7    S    
C24   C25   T    
C16   H3    S    
C7    C11   S    
C1    O1    A    
C16   H20   S    
C17   H5    S    
C12   C20   S    
C22   N1    T    
C2    C11   S    
C19   H11   S    
C17   O2    S    
C8    C10   S    
C2    O9    A    
C18   H9    S    
Cu1   O1    S    
Cu1   O10   S    
C3    O11   A    
C6    H14   S    
C26   O7    A    
C22   C24   S    
C3    C21   S    
C9    O3    S    
C17   H6    S    
C16   H2    S    
C6    C11   S    
C1    C13   S    
C20   C21   T    
C19   O4    S    
Cu1   N2    S    
C4    C6    S    
Cu2   N1    S    
Cu2   O9    S    
Cu1   Cu2   S    
C5    C7    S    
C17   H4    S    
Cu1   O6    S    
C23   N2    T    
C9    O4    S    
C4    H16   S    
C18   O3    S    
C5    H12   S    
C13   C14   T    
C3    O10   A    
C18   H8    S    
C16   O12   S    
C19   H13   S    
C4    C10   S    
C8    O12   S    
C8    C9    S    
Cu1   O8    S    
C26   O6    A    
