data_mof_unit_13267.cif
_audit_creation_date              2012-10-26T20:31:22-0400
_audit_creation_method            fapswitch 2.2
_symmetry_space_group_name_H-M    P1
_symmetry_Int_Tables_number       1
_space_group_crystal_system       triclinic
_cell_length_a                    11.672066
_cell_length_b                    10.843599
_cell_length_c                    9.590936
_cell_angle_alpha                 90.491885
_cell_angle_beta                  89.131294
_cell_angle_gamma                 90.884989
_cell_volume                      1213.57130184

loop_
_atom_site_label
_atom_site_type_symbol
_atom_type_description
_atom_site_fract_x
_atom_site_fract_y
_atom_site_fract_z
_atom_type_partial_charge
C1    C     C_R   0.496917 0.262475 0.499009 0.556459
C2    C     C_R   0.403256 0.473812 0.077133 -0.015789
C3    C     C_R   0.401698 0.474306 0.928204 0.365174
C4    C     C_R   0.284161 0.501336 0.500798 0.532346
C5    C     C_R   0.599791 0.508870 0.925502 0.094194
C6    C     C_3   0.696159 0.601118 0.917337 0.167450
C7    C     C_3   0.696358 0.599862 0.077865 0.186674
C8    C     C_R   0.498985 0.737132 0.500348 0.548489
C9    C     C_R   0.715850 0.499336 0.499309 0.522309
C10   C     C_1   0.162431 0.501616 0.501979 -0.040559
C11   C     C_1   0.059876 0.500895 0.501384 -0.064954
C12   C     C_R   0.496322 0.128846 0.495723 -0.001342
C13   C     C_1   0.940115 0.499521 0.499794 -0.069665
C14   C     C_1   0.837560 0.498849 0.498704 -0.056879
C15   C     C_R   0.498060 0.064494 0.620993 -0.073676
C16   C     C_3   0.385282 0.137982 0.200165 0.024965
C17   C     C_3   0.330961 0.023411 0.131540 -0.279596
C18   C     C_3   0.217626 0.053765 0.063100 -0.468285
C19   C     C_3   0.749058 0.769441 0.777786 0.028911
C20   C     C_3   0.755289 0.909198 0.802896 -0.257434
C21   C     C_3   0.818859 0.975096 0.684354 -0.491239
C22   C     C_3   0.755376 0.793242 0.157203 0.024119
C23   C     C_R   0.501250 0.060845 0.368529 0.224717
C24   C     C_3   0.808253 0.778960 0.301044 -0.269480
C25   C     C_3   0.903311 0.874694 0.324985 -0.500467
C26   C     C_3   0.241800 0.082101 0.633609 0.061186
C27   C     C_3   0.181082 0.188854 0.565077 -0.271101
C28   C     C_3   0.089067 0.142510 0.465304 -0.510792
C29   C     C_3   0.205876 0.501653 0.903148 0.000173
C30   C     C_3   0.115779 0.413579 0.966150 -0.263356
C31   C     C_3   0.010096 0.482958 0.016812 -0.489928
C32   C     C_R   0.509257 0.932760 0.372308 -0.154892
C33   C     C_R   0.501525 0.869890 0.499479 -0.034940
C34   C     C_R   0.499482 0.937722 0.623072 -0.019522
C35   C     C_3   0.427695 0.927547 0.753750 0.119395
C36   C     C_3   0.423797 0.069453 0.750362 0.211089
C37   C     C_R   0.600046 0.507525 0.071102 0.128529
Cu1   Cu    Cu3+1 0.499990 0.499980 0.640670 1.025864
Cu2   Cu    Cu3+1 0.500010 0.500020 0.359330 0.976875
H1    H     H_    0.774237 0.559010 0.123329 0.049414
H2    H     H_    0.314405 0.951255 0.211132 0.150058
H3    H     H_    0.153953 0.084183 0.142697 0.124757
H4    H     H_    0.183227 0.970526 0.008912 0.167070
H5    H     H_    0.230113 0.128427 0.985781 0.203277
H6    H     H_    0.727617 0.749965 0.667207 0.158010
H7    H     H_    0.836598 0.733698 0.796486 0.089634
H8    H     H_    0.668377 0.947514 0.813864 0.167301
H9    H     H_    0.800686 0.929278 0.901482 0.136550
H10   H     H_    0.906982 0.938873 0.672505 0.138978
H11   H     H_    0.824594 0.075444 0.707793 0.149652
H12   H     H_    0.514917 0.882818 0.274252 0.185459
H13   H     H_    0.772189 0.961894 0.585136 0.152127
H14   H     H_    0.723505 0.888794 0.147884 0.160113
H15   H     H_    0.822961 0.781166 0.074956 0.111540
H16   H     H_    0.741090 0.788977 0.383508 0.167817
H17   H     H_    0.845513 0.685949 0.308438 0.161880
H18   H     H_    0.970721 0.867251 0.242422 0.145879
H19   H     H_    0.943208 0.858558 0.427417 0.148778
H20   H     H_    0.867830 0.969171 0.324788 0.153000
H21   H     H_    0.331823 0.780835 0.766332 0.339041
H22   H     H_    0.175802 0.022757 0.685691 0.184278
H23   H     H_    0.476034 0.891762 0.843698 0.119792
H24   H     H_    0.285199 0.027490 0.550350 0.159990
H25   H     H_    0.140701 0.248174 0.646509 0.187863
H26   H     H_    0.245168 0.245167 0.506298 0.161279
H27   H     H_    0.126139 0.077002 0.388071 0.141882
H28   H     H_    0.052866 0.221607 0.408918 0.160202
H29   H     H_    0.018820 0.095231 0.524150 0.149016
H30   H     H_    0.169206 0.544061 0.809111 0.161838
H31   H     H_    0.223742 0.579747 0.976733 0.096920
H32   H     H_    0.089862 0.344308 0.886088 0.170172
H33   H     H_    0.152378 0.363531 0.055255 0.149793
H34   H     H_    0.472515 0.111319 0.838029 0.105863
H35   H     H_    0.032971 0.548183 0.102296 0.151110
H36   H     H_    0.944663 0.416259 0.056880 0.140684
H37   H     H_    0.972962 0.535138 0.929712 0.131721
H38   H     H_    0.326240 0.450155 0.134929 0.115673
H39   H     H_    0.772853 0.557465 0.868339 0.037017
H40   H     H_    0.387872 0.213541 0.122786 0.163871
H41   H     H_    0.330221 0.170435 0.288613 0.117123
H42   H     H_    0.390900 0.986090 0.051485 0.179248
N1    N     N_R   0.500710 0.500930 0.147930 -0.236818
N2    N     N_R   0.500710 0.500890 0.852020 -0.207474
O1    O     O_R   0.500000 0.319640 0.618810 -0.475216
O2    O     O_3   0.661754 0.716051 0.863604 -0.523892
O3    O     O_3   0.660592 0.711591 0.140762 -0.509875
O4    O     O_3   0.322670 0.866278 0.732494 -0.732692
O5    O     O_3   0.316539 0.129849 0.736691 -0.539207
O6    O     O_3   0.303837 0.434185 0.860551 -0.527508
O7    O     O_R   0.500010 0.319680 0.381230 -0.475587
O8    O     O_R   0.337190 0.499990 0.618790 -0.443520
O9    O     O_R   0.337200 0.500030 0.381210 -0.530322
O10   O     O_R   0.499990 0.680320 0.618770 -0.477978
O11   O     O_R   0.500000 0.680360 0.381190 -0.474365
O12   O     O_R   0.662800 0.499970 0.618790 -0.509707
O13   O     O_R   0.662810 0.500010 0.381210 -0.488515
O14   O     O_3   0.500006 0.116897 0.239397 -0.558018

loop_
_geom_bond_atom_site_label_1
_geom_bond_atom_site_label_2
_ccdc_geom_bond_type
C1    O7    A    
C5    C37   A    
Cu1   N2    S    
C15   C36   S    
C35   C36   S    
C9    C14   S    
C29   O6    S    
C30   H32   S    
C19   H7    S    
C22   H15   S    
C36   O5    S    
C1    O1    A    
C12   C23   A    
C26   C27   S    
C6    O2    S    
C28   H29   S    
C26   H22   S    
C18   H3    S    
Cu1   Cu2   S    
C5    N2    A    
C16   O14   S    
C6    H39   S    
C7    O3    S    
C34   C35   S    
C35   O4    S    
C19   C20   S    
C16   C17   S    
Cu1   O12   S    
C7    H1    S    
C9    O12   A    
Cu2   O7    S    
C4    O8    A    
C13   C14   T    
C1    C12   S    
C25   H18   S    
C21   H10   S    
C21   H11   S    
H21   O4    S    
C17   C18   S    
C22   H14   S    
C29   H30   S    
C28   H28   S    
C8    O11   A    
C24   C25   S    
C10   C11   T    
C31   H35   S    
Cu1   O8    S    
C24   H16   S    
C28   H27   S    
C26   H24   S    
Cu2   O11   S    
C29   C30   S    
C27   H26   S    
C18   H5    S    
C31   H36   S    
C12   C15   A    
C30   C31   S    
C33   C34   A    
C7    C37   S    
C9    O13   A    
C20   H9    S    
C23   O14   S    
C3    N2    A    
C22   C24   S    
C37   N1    A    
C2    N1    A    
C25   H19   S    
C4    C10   S    
Cu2   O9    S    
C29   H31   S    
C32   H12   S    
C15   C34   A    
Cu1   O1    S    
C8    O10   A    
Cu2   N1    S    
C19   O2    S    
C30   H33   S    
C19   H6    S    
C6    C7    S    
C24   H17   S    
C3    O6    S    
C16   H40   S    
C32   C33   A    
C2    C3    A    
C2    H38   S    
C18   H4    S    
C23   C32   A    
C11   C13   S    
C31   H37   S    
C5    C6    S    
Cu1   O10   S    
C35   H23   S    
C17   H42   S    
C8    C33   S    
C22   O3    S    
C17   H2    S    
Cu2   O13   S    
C20   H8    S    
C27   H25   S    
C20   C21   S    
C26   O5    S    
C27   C28   S    
C25   H20   S    
C16   H41   S    
C36   H34   S    
C21   H13   S    
C4    O9    A    
