data_mof_unit_6694.cif
_audit_creation_date              2012-12-10T18:36:25-0500
_audit_creation_method            fapswitch 2.2
_symmetry_space_group_name_H-M    P1
_symmetry_Int_Tables_number       1
_space_group_crystal_system       triclinic
_cell_length_a                    13.854393
_cell_length_b                    15.144016
_cell_length_c                    15.846469
_cell_angle_alpha                 90.275783
_cell_angle_beta                  69.984519
_cell_angle_gamma                 89.682237
_cell_volume                      3123.82285312

loop_
_atom_site_label
_atom_site_type_symbol
_atom_type_description
_atom_site_fract_x
_atom_site_fract_y
_atom_site_fract_z
_atom_type_partial_charge
C1    C     C_R   0.500312 0.670332 0.498032 0.872143
C2    C     C_R   0.500190 0.330275 0.500493 0.904727
C3    C     C_R   0.375996 0.497470 0.095532 -0.236971
C4    C     C_R   0.623138 0.506499 0.904862 -0.216202
C5    C     C_R   0.303111 0.510881 0.053293 0.417218
C6    C     C_R   0.695488 0.492749 0.947077 0.409395
C7    C     C_R   0.413140 0.907020 0.494661 0.342933
C8    C     C_R   0.527027 0.095834 0.565359 0.341950
C9    C     C_R   0.416185 0.814884 0.486412 0.314681
C10   C     C_R   0.535105 0.188084 0.561744 0.312800
C11   C     C_R   0.500293 0.767286 0.494910 -0.268965
C12   C     C_R   0.501417 0.234489 0.500388 -0.250574
C13   C     C_R   0.585814 0.813088 0.499756 -0.361722
C14   C     C_R   0.471060 0.189424 0.436802 -0.372300
C15   C     C_R   0.588475 0.904861 0.497042 0.456690
C16   C     C_R   0.475785 0.097724 0.432170 0.470356
C17   C     C_R   0.500571 0.952668 0.497297 -0.121681
C18   C     C_R   0.500749 0.049974 0.498482 -0.123707
C19   C     C_R   0.921523 0.468382 0.425952 -0.296242
C20   C     C_R   0.091824 0.569036 0.539422 -0.308428
C21   C     C_R   0.819379 0.468150 0.427499 0.012333
C22   C     C_R   0.193025 0.567345 0.540106 0.027019
C23   C     C_R   0.437766 0.499192 0.672390 0.863490
C24   C     C_R   0.562187 0.501194 0.327653 0.829053
C25   C     C_R   0.762279 0.532336 0.572388 -0.009366
C26   C     C_R   0.225603 0.432151 0.460220 0.009290
C27   C     C_R   0.862774 0.531479 0.574773 0.479544
C28   C     C_R   0.124015 0.429719 0.460453 0.488207
C29   C     C_R   0.945284 0.499586 0.500459 0.048231
C30   C     C_R   0.054709 0.499288 0.500054 0.031162
C31   C     C_R   0.400854 0.501140 0.771043 -0.139380
C32   C     C_R   0.598878 0.500457 0.229060 -0.143032
C33   C     C_R   0.265784 0.523850 0.914224 -0.143605
C34   C     C_R   0.733658 0.478857 0.085535 -0.148898
C35   C     C_R   0.298257 0.520914 0.820775 -0.313860
C36   C     C_R   0.701426 0.480835 0.178976 -0.311703
C37   C     C_R   0.470684 0.485556 0.815683 0.549826
C38   C     C_R   0.528849 0.517229 0.184817 0.541487
C39   C     C_R   0.442796 0.501415 0.908582 -0.061562
C40   C     C_R   0.556444 0.502112 0.091812 -0.056644
C41   C     C_R   0.336903 0.513238 0.959136 0.008234
C42   C     C_R   0.662270 0.490118 0.041085 -0.006119
C43   C     C_R   0.516533 0.502268 0.952741 0.003870
C44   C     C_R   0.482586 0.501803 0.047654 0.016479
Cu1   Cu    Cu3+1 0.403570 0.500010 0.500000 0.973882
Cu2   Cu    Cu3+1 0.596430 0.499990 0.500000 0.957823
H1    H     H_    0.981517 0.445108 0.366039 0.209725
H2    H     H_    0.043612 0.625481 0.568724 0.216032
H3    H     H_    0.803012 0.442823 0.369979 0.139465
H4    H     H_    0.219331 0.620976 0.571770 0.179171
H5    H     H_    0.700950 0.558501 0.629618 0.179484
H6    H     H_    0.277808 0.378760 0.428661 0.157215
H7    H     H_    0.757038 0.468730 0.211869 0.175263
H8    H     H_    0.242748 0.532328 0.787623 0.186305
H9    H     H_    0.185024 0.535492 0.951040 0.196681
H10   H     H_    0.814325 0.467232 0.048312 0.191663
H11   H     H_    0.347694 0.480514 0.165603 0.204633
H12   H     H_    0.652580 0.522844 0.834539 0.220648
H13   H     H_    0.652020 0.777844 0.504485 0.208648
H14   H     H_    0.447386 0.225638 0.388234 0.188449
N1    N     N_R   0.741310 0.499980 0.500000 -0.207243
N2    N     N_R   0.258690 0.500020 0.500000 -0.209445
O1    O     O_R   0.418570 0.628550 0.499990 -0.543010
O2    O     O_R   0.581430 0.371450 0.500010 -0.563037
O3    O     O_R   0.581440 0.628540 0.499990 -0.595937
O4    O     O_R   0.418560 0.371460 0.500010 -0.598990
O5    O     O_R   0.372890 0.500010 0.629830 -0.597703
O6    O     O_R   0.627110 0.499990 0.370170 -0.610580
O7    O     O_R   0.535760 0.500000 0.629840 -0.538923
O8    O     O_R   0.464240 0.500000 0.370160 -0.527687
O9    O     O_3   0.197934 0.510456 0.101120 -0.587620
C45   C     C_3   0.172300 0.563157 0.179843 0.079327
H15   H     H_    0.218766 0.624693 0.169168 0.148854
H16   H     H_    0.182980 0.524595 0.235573 0.168764
C46   C     C_3   0.059647 0.589935 0.208054 -0.798629
H17   H     H_    0.010724 0.530289 0.218837 0.249256
H18   H     H_    0.037575 0.628740 0.271581 0.204397
H19   H     H_    0.046485 0.630955 0.155041 0.247837
O10   O     O_3   0.799735 0.493563 0.897724 -0.572553
C47   C     C_3   0.825309 0.420338 0.838321 0.093680
H20   H     H_    0.792342 0.427854 0.783826 0.195463
H21   H     H_    0.797662 0.357509 0.874782 0.122405
C48   C     C_3   0.941553 0.414230 0.794889 -0.715296
H22   H     H_    0.977226 0.404587 0.847204 0.228738
H23   H     H_    0.962548 0.357491 0.747251 0.196045
H24   H     H_    0.971770 0.475735 0.757503 0.289692
F1    F     F_    0.877843 0.559727 0.650643 -0.694053
F2    F     F_    0.093589 0.358118 0.424542 -0.683895
F3    F     F_    0.438176 0.557474 0.231458 -0.709832
F4    F     F_    0.561526 0.445499 0.769648 -0.706284
O11   O     O_3   0.326659 0.952087 0.493068 -0.520606
C49   C     C_3   0.258644 0.963616 0.581904 0.093469
H25   H     H_    0.290216 0.012227 0.618172 0.112319
H26   H     H_    0.243306 0.900017 0.619233 0.143325
C50   C     C_3   0.157004 0.999763 0.579560 -0.727684
H27   H     H_    0.102789 0.009815 0.649136 0.188465
H28   H     H_    0.122910 0.952459 0.544084 0.250034
H29   H     H_    0.169319 0.064003 0.544017 0.259964
O12   O     O_3   0.550803 0.050922 0.631577 -0.528614
C51   C     C_3   0.460188 0.039321 0.705977 0.098065
H30   H     H_    0.410058 0.989860 0.689806 0.111882
H31   H     H_    0.417044 0.102670 0.727421 0.150547
C52   C     C_3   0.488519 0.004609 0.784357 -0.745682
H32   H     H_    0.538375 0.052788 0.802635 0.251489
H33   H     H_    0.417807 0.994522 0.843350 0.190406
H34   H     H_    0.530181 0.940611 0.765753 0.253408
O13   O     O_3   0.335030 0.771748 0.472488 -0.563047
C53   C     C_3   0.349971 0.774023 0.379643 0.126389
H35   H     H_    0.427624 0.748426 0.338476 0.142146
H36   H     H_    0.340615 0.842604 0.358528 0.176843
C54   C     C_3   0.270370 0.716385 0.360180 -0.729086
H37   H     H_    0.276890 0.723299 0.288704 0.198618
H38   H     H_    0.283671 0.646098 0.372618 0.281680
H39   H     H_    0.191762 0.736558 0.403577 0.232139
O14   O     O_3   0.567445 0.233580 0.623145 -0.549218
C55   C     C_3   0.675605 0.226298 0.596632 0.118181
H40   H     H_    0.713745 0.243156 0.524372 0.131196
H41   H     H_    0.698850 0.158316 0.608312 0.183843
C56   C     C_3   0.714264 0.290094 0.652076 -0.695917
H42   H     H_    0.678117 0.275514 0.724724 0.256653
H43   H     H_    0.798977 0.283752 0.632951 0.181907
H44   H     H_    0.695142 0.358821 0.639398 0.294021
O15   O     O_3   0.674932 0.946969 0.501494 -0.523273
C57   C     C_3   0.740244 0.966532 0.413660 0.046171
H45   H     H_    0.704073 0.016414 0.382421 0.115800
H46   H     H_    0.759838 0.905925 0.370731 0.135182
C58   C     C_3   0.839329 0.005521 0.418064 -0.745777
H47   H     H_    0.878331 0.957287 0.448428 0.250782
H48   H     H_    0.891445 0.021588 0.349323 0.198590
H49   H     H_    0.822291 0.066911 0.459384 0.238995
O16   O     O_3   0.449138 0.055698 0.365721 -0.519414
C59   C     C_3   0.539223 0.036372 0.292554 0.050831
H50   H     H_    0.585063 0.984155 0.310858 0.117016
H51   H     H_    0.587215 0.096362 0.269536 0.130787
C60   C     C_3   0.509511 0.001701 0.214684 -0.757417
H52   H     H_    0.463713 0.052304 0.194172 0.253423
H53   H     H_    0.579802 0.986067 0.156613 0.195448
H54   H     H_    0.463285 0.940755 0.234893 0.236739

loop_
_geom_bond_atom_site_label_1
_geom_bond_atom_site_label_2
_ccdc_geom_bond_type
C33   H9    S    
C60   H54   S    
C34   H10   S    
C5    O9    S    
C27   C29   A    
C23   O7    A    
C50   H27   S    
C1    C11   S    
C46   H17   S    
C2    C12   S    
C24   C32   S    
C50   H29   S    
C24   O8    A    
O15   C57   S    
C39   C41   A    
C20   C30   A    
Cu1   Cu2   S    
C53   H35   S    
C38   F3    S    
C15   O15   S    
C37   F4    S    
C32   C36   A    
C19   C21   A    
C8    O12   S    
C45   C46   S    
C19   H1    S    
O14   C55   S    
Cu1   N2    S    
C55   H40   S    
C7    C9    A    
C23   O5    A    
C16   O16   S    
C49   H25   S    
Cu2   O7    S    
C36   H7    S    
C54   H38   S    
C48   H22   S    
C55   H41   S    
C59   H50   S    
C7    C17   A    
C34   C42   A    
C28   F2    S    
C1    O3    A    
O13   C53   S    
C32   C38   A    
C52   H34   S    
C21   N1    A    
C22   H4    S    
C40   C42   A    
C35   H8    S    
C47   C48   S    
C1    O1    A    
C21   H3    S    
C2    O2    A    
C56   H43   S    
C3    C44   A    
Cu2   N1    S    
C55   C56   S    
C60   H52   S    
Cu2   O3    S    
C4    C6    A    
O11   C49   S    
C45   H15   S    
C39   C43   A    
C3    C5    A    
Cu1   O1    S    
C49   C50   S    
C8    C18   A    
C31   C37   A    
Cu2   O2    S    
C23   C31   S    
C43   C44   A    
C58   H48   S    
Cu2   O6    S    
C29   C30   S    
C26   H6    S    
C22   N2    A    
C46   H18   S    
O12   C51   S    
C7    O11   S    
C49   H26   S    
C17   C18   S    
C52   H33   S    
C16   C18   A    
C25   N1    A    
C27   F1    S    
C9    C11   A    
C20   H2    S    
C10   C12   A    
C57   C58   S    
C3    H11   S    
C45   H16   S    
C48   H23   S    
C12   C14   A    
C13   C15   A    
C31   C35   A    
C25   C27   A    
C58   H47   S    
C19   C29   A    
Cu1   O4    S    
C57   H46   S    
C51   H31   S    
C56   H44   S    
C60   H53   S    
C5    C41   A    
C54   H37   S    
Cu1   O8    S    
C8    C10   A    
C20   C22   A    
C47   H20   S    
C2    O4    A    
C56   H42   S    
C50   H28   S    
C15   C17   A    
Cu1   O5    S    
C13   H13   S    
C4    C43   A    
C9    O13   S    
C14   H14   S    
C26   C28   A    
C25   H5    S    
C53   C54   S    
C33   C41   A    
C28   C30   A    
C26   N2    A    
C58   H49   S    
O9    C45   S    
C37   C39   A    
C38   C40   A    
C11   C13   A    
C6    O10   S    
C59   C60   S    
C51   H30   S    
C33   C35   A    
C47   H21   S    
C53   H36   S    
C54   H39   S    
C14   C16   A    
C51   C52   S    
C46   H19   S    
C24   O6    A    
O10   C47   S    
C40   C44   A    
C48   H24   S    
C34   C36   A    
C59   H51   S    
C6    C42   A    
C4    H12   S    
C52   H32   S    
C10   O14   S    
O16   C59   S    
C57   H45   S    
