data_mof_unit_54795.cif
_audit_creation_date              2012-12-11T16:41:17-0500
_audit_creation_method            fapswitch 2.2
_symmetry_space_group_name_H-M    P1
_symmetry_Int_Tables_number       1
_space_group_crystal_system       triclinic
_cell_length_a                    6.973842
_cell_length_b                    23.152493
_cell_length_c                    23.677868
_cell_angle_alpha                 112.76423
_cell_angle_beta                  90.406211
_cell_angle_gamma                 90.161428
_cell_volume                      3525.12058646

loop_
_atom_site_label
_atom_site_type_symbol
_atom_type_description
_atom_site_fract_x
_atom_site_fract_y
_atom_site_fract_z
_atom_type_partial_charge
O1    O     O_R   0.505740 0.453370 0.547760 -0.503612
O2    O     O_R   0.169520 0.427650 0.423350 -0.539692
O3    O     O_R   0.005620 0.546630 0.452240 -0.542629
C1    C     C_R   0.337526 0.409208 0.399429 0.691525
O4    O     O_R   0.175610 0.445960 0.545510 -0.541039
O5    O     O_R   0.011740 0.565080 0.575280 -0.540212
C2    C     C_R   0.345505 0.434669 0.562950 0.719101
O6    O     O_R   0.499610 0.434920 0.424720 -0.538008
O7    O     O_3   0.341310 0.539060 0.509620 -0.377783
V1    V     V_3+5 0.063960 0.492750 0.498220 1.424956
O8    O     O_R   0.682400 0.572350 0.576650 -0.540303
C3    C     C_R   0.850749 0.590606 0.600800 0.693727
O9    O     O_R   0.676320 0.554040 0.454490 -0.544074
C4    C     C_R   0.844838 0.566040 0.437652 0.680684
V2    V     V_3+5 0.564740 0.507250 0.501780 1.433383
O10   O     O_3   0.837250 0.460940 0.490380 -0.351844
C5    C     C_R   0.777439 0.871768 0.110494 -0.166830
H1    H     H_    0.646295 0.880848 0.090654 0.125549
C6    C     C_R   0.767176 0.835721 0.146219 -0.165355
H2    H     H_    0.628956 0.817679 0.152470 0.127025
C7    C     C_R   0.933278 0.822389 0.172912 0.111693
C8    C     C_R   0.110004 0.846403 0.163079 -0.086186
H3    H     H_    0.240157 0.838473 0.184154 0.134769
C9    C     C_R   0.120653 0.881974 0.126838 -0.188551
H4    H     H_    0.259113 0.899772 0.120474 0.119276
C10   C     C_R   0.954407 0.895277 0.100119 -0.051209
C11   C     C_R   0.052873 0.735642 0.204796 0.467248
C12   C     C_R   0.039552 0.701550 0.242598 -0.229189
H5    H     H_    0.142873 0.664903 0.236800 0.128718
C13   C     C_R   0.892443 0.713142 0.285946 0.016272
C14   C     C_R   0.758938 0.760272 0.291038 -0.142213
H6    H     H_    0.645210 0.771157 0.324384 0.121480
C15   C     C_R   0.773199 0.795232 0.254373 -0.202364
H7    H     H_    0.669837 0.831956 0.260518 0.133638
C16   C     C_R   0.920821 0.784066 0.211249 -0.021129
C17   C     C_R   0.700020 0.658309 0.341035 -0.140038
H8    H     H_    0.568485 0.670477 0.323822 0.103478
C18   C     C_R   0.688374 0.623107 0.377657 -0.165439
H9    H     H_    0.548172 0.609727 0.388001 0.117881
C19   C     C_R   0.855507 0.604739 0.399841 -0.052993
C20   C     C_R   0.034334 0.623048 0.384744 -0.165270
H10   H     H_    0.166358 0.610207 0.401133 0.121281
C21   C     C_R   0.045886 0.658328 0.348346 -0.145048
H11   H     H_    0.186139 0.672131 0.338519 0.102416
C22   C     C_R   0.879073 0.676260 0.325659 0.119401
C23   C     C_R   0.853280 0.645467 0.660333 -0.061566
C24   C     C_R   0.957771 0.855352 0.839020 -0.110322
C25   C     C_R   0.130742 0.794715 0.744070 0.118572
C26   C     C_R   0.112498 0.848056 0.799129 -0.158437
C27   C     C_R   0.815603 0.808930 0.823149 -0.256719
C28   C     C_R   0.830277 0.754821 0.768998 0.147083
C29   C     C_R   0.988578 0.746794 0.729169 0.092347
C30   C     C_R   0.998756 0.691173 0.675247 -0.245113
C31   C     C_R   0.698554 0.654735 0.700527 -0.182731
C32   C     C_R   0.688101 0.708312 0.754352 -0.173908
H12   H     H_    0.115413 0.683586 0.643376 0.116425
H13   H     H_    0.583908 0.620407 0.690066 0.116337
H14   H     H_    0.566399 0.713833 0.784183 0.118323
H15   H     H_    0.219394 0.884860 0.812032 0.134191
H16   H     H_    0.696343 0.814058 0.853829 0.129128
C33   C     C_R   0.342203 0.354975 0.339478 -0.059285
C34   C     C_R   0.464416 0.147070 0.159613 -0.150234
C35   C     C_R   0.607055 0.205727 0.260230 -0.188599
C36   C     C_R   0.602825 0.153250 0.204993 -0.275178
C37   C     C_R   0.324214 0.194548 0.171157 0.377091
C38   C     C_R   0.331943 0.248918 0.226668 0.060012
C39   C     C_R   0.473455 0.253969 0.271592 0.102958
C40   C     C_R   0.479204 0.307190 0.327261 -0.204674
C41   C     C_R   0.204525 0.350064 0.294338 -0.181811
C42   C     C_R   0.201998 0.298628 0.238261 -0.162233
H17   H     H_    0.586731 0.310620 0.361726 0.118825
H18   H     H_    0.099418 0.386684 0.302238 0.122861
H19   H     H_    0.716437 0.208764 0.294011 0.131644
H20   H     H_    0.096456 0.297998 0.204311 0.154043
H21   H     H_    0.709007 0.117049 0.197612 0.136749
C43   C     C_R   0.269537 0.131429 0.889391 0.138439
C44   C     C_R   0.267150 0.170344 0.856034 -0.160247
H22   H     H_    0.133386 0.190527 0.849050 0.100731
C45   C     C_R   0.432335 0.180172 0.827930 0.067866
C46   C     C_R   0.600890 0.149990 0.832870 -0.147676
H23   H     H_    0.728128 0.153260 0.808259 0.113545
C47   C     C_R   0.602780 0.112053 0.866665 -0.225605
H24   H     H_    0.721578 0.083302 0.863737 0.150727
C48   C     C_R   0.444774 0.105075 0.899031 -0.073777
C49   C     C_R   0.552018 0.265891 0.797304 -0.155615
H25   H     H_    0.662133 0.277239 0.832497 0.113911
C50   C     C_R   0.537160 0.301881 0.761703 -0.156325
H26   H     H_    0.635853 0.340698 0.771108 0.106199
C51   C     C_R   0.394882 0.288636 0.715634 0.109690
C52   C     C_R   0.266978 0.238669 0.706805 -0.151804
H27   H     H_    0.158438 0.225841 0.671120 0.111461
C53   C     C_R   0.279523 0.203628 0.743297 -0.157282
H28   H     H_    0.179009 0.165479 0.735444 0.113384
C54   C     C_R   0.422232 0.216863 0.788786 0.087730
C55   C     C_R   0.204519 0.336394 0.653234 -0.147233
H29   H     H_    0.072599 0.318227 0.663920 0.120017
C56   C     C_R   0.194427 0.370587 0.615805 -0.240890
H30   H     H_    0.056443 0.375938 0.597443 0.201050
C57   C     C_R   0.359676 0.397418 0.602144 -0.158949
C58   C     C_R   0.537624 0.389079 0.627379 0.470384
C59   C     C_R   0.547432 0.352113 0.662307 -0.226255
H31   H     H_    0.687016 0.343515 0.677656 0.115580
C60   C     C_R   0.381620 0.326247 0.676693 0.032907
O11   O     O_R   0.309730 0.065160 0.075230 -0.523247
O12   O     O_R   0.633800 0.053970 0.954410 -0.543597
O13   O     O_R   0.797580 0.934860 0.924760 -0.537041
C61   C     C_R   0.462757 0.065856 0.937146 0.695877
O14   O     O_R   0.639820 0.072410 0.076610 -0.553218
O15   O     O_R   0.803650 0.953440 0.047830 -0.540097
C62   C     C_R   0.471351 0.091503 0.100230 0.747603
O16   O     O_R   0.303670 0.046590 0.952160 -0.529524
O17   O     O_3   0.468000 0.960960 0.990410 -0.368828
V3    V     V_3+5 0.745380 0.007240 0.001780 1.370823
O18   O     O_R   0.132940 0.946010 0.045600 -0.542100
C63   C     C_R   0.964468 0.934087 0.062462 0.686199
O19   O     O_R   0.126920 0.927560 0.923400 -0.540080
C64   C     C_R   0.958670 0.909297 0.899254 0.704944
V4    V     V_3+5 0.244590 0.992720 0.998240 1.404928
O20   O     O_3   0.972110 0.039040 0.009600 -0.370619
C65   C     C_3   0.298986 0.787991 0.701047 -0.363925
C66   C     C_3   0.444555 0.841918 0.720761 -0.757178
H32   H     H_    0.374688 0.886054 0.723742 0.220452
H33   H     H_    0.511103 0.848202 0.765479 0.230634
H34   H     H_    0.560357 0.830967 0.686271 0.225219
H35   H     H_    0.378115 0.744608 0.695489 0.189694
H36   H     H_    0.241247 0.782851 0.655465 0.179517
O21   O     O_3   0.192470 0.190461 0.125751 -0.565624
C67   C     C_3   0.016670 0.168217 0.138887 -0.192802
H37   H     H_    0.954102 0.201400 0.182222 0.120515
H38   H     H_    0.031868 0.121452 0.141373 0.138600
H39   H     H_    0.913367 0.163489 0.101520 0.173616
C68   C     C_3   0.079547 0.109414 0.902314 -0.320094
C69   C     C_3   0.045425 0.041459 0.856292 -0.692366
H40   H     H_    0.998222 0.041501 0.811393 0.194164
H41   H     H_    0.175918 0.012100 0.847495 0.207783
H42   H     H_    0.935104 0.018288 0.873825 0.209727
H43   H     H_    0.067991 0.114680 0.950674 0.207245
H44   H     H_    0.966780 0.140817 0.897810 0.148796
O22   O     O_3   0.705406 0.413792 0.615129 -0.552630
C70   C     C_3   0.756186 0.467551 0.666952 -0.247438
H45   H     H_    0.639420 0.502910 0.679670 0.115038
H46   H     H_    0.884183 0.489461 0.655697 0.155758
H47   H     H_    0.795192 0.455218 0.706525 0.124267
O23   O     O_3   0.198874 0.722092 0.162567 -0.563069
C71   C     C_3   0.135005 0.674181 0.107805 -0.262949
H48   H     H_    0.250951 0.663851 0.073514 0.165633
H49   H     H_    0.007029 0.689037 0.088546 0.142286
H50   H     H_    0.103372 0.630249 0.114764 0.136879

loop_
_geom_bond_atom_site_label_1
_geom_bond_atom_site_label_2
_ccdc_geom_bond_type
O17   V4    S    
C50   H26   S    
C59   H31   S    
C20   H10   S    
C13   C22   S    
C55   H29   S    
C70   H47   S    
C1    O6    A    
C67   H37   S    
C43   C48   A    
C56   H30   S    
C24   C26   A    
C38   C42   A    
C49   H25   S    
C65   C66   S    
O12   C61   A    
C2    C57   S    
O16   V4    S    
C5    C10   A    
C37   O21   S    
O12   V3    S    
C17   H8    S    
C6    C7    A    
C70   H46   S    
O5    C3    A    
C18   H9    S    
C65   H36   S    
C68   H44   S    
V2    O10   S    
C48   C61   S    
O19   C64   A    
V4    O20   S    
C53   H28   S    
C66   H34   S    
C34   C36   A    
C56   C57   A    
C10   C63   S    
O8    V2    S    
C6    H2    S    
O14   C62   A    
C68   C69   S    
C42   H20   S    
C69   H42   S    
C14   C15   A    
O1    V2    S    
O7    V1    S    
O15   V3    S    
C44   C45   A    
C38   C39   A    
C59   C60   A    
V3    O20   S    
C7    C8    A    
C51   C60   S    
C20   C21   A    
O17   V3    S    
C71   H49   S    
C55   C60   A    
C71   H48   S    
C24   C27   A    
O11   V4    S    
C43   C44   A    
C49   C50   A    
C35   C39   A    
O13   V3    S    
C28   C29   A    
C15   H7    S    
C9    H4    S    
C45   C54   S    
C25   C65   S    
O4    C2    A    
C65   H35   S    
C46   H23   S    
C35   H19   S    
C11   C16   A    
C68   H43   S    
C44   H22   S    
C1    C33   S    
C39   C40   A    
C3    C23   S    
O14   V3    S    
C41   H18   S    
O2    C1    A    
C21   H11   S    
C58   O22   S    
C49   C54   A    
C52   C53   A    
C57   C58   A    
C34   C62   S    
C24   C64   S    
O22   C70   S    
C23   C31   A    
C53   C54   A    
C5    H1    S    
C17   C22   A    
C27   C28   A    
C70   H45   S    
C21   C22   A    
C66   H32   S    
O18   V4    S    
O3    C4    A    
C46   C47   A    
C19   C20   A    
C47   H24   S    
O6    V2    S    
C47   C48   A    
O9    V2    S    
O13   C64   A    
C69   H40   S    
C8    C9    A    
C45   C46   A    
C5    C6    A    
O21   C67   S    
O2    V1    S    
C67   H39   S    
C71   H50   S    
C29   C30   A    
O11   C62   A    
C30   H12   S    
C33   C41   A    
C31   C32   A    
C12   H5    S    
C34   C37   A    
O1    C2    A    
C61   O16   A    
C14   H6    S    
C9    C10   A    
O23   C71   S    
C67   H38   S    
O5    V1    S    
O8    C3    A    
C55   C56   A    
O18   C63   A    
C7    C16   S    
C26   H15   S    
C27   H16   S    
C50   C51   A    
O7    V2    S    
O4    V1    S    
O3    V1    S    
V1    O10   S    
C17   C18   A    
C18   C19   A    
C43   C68   S    
C33   C40   A    
C11   O23   S    
C52   H27   S    
C13   C14   A    
C40   H17   S    
C25   C26   A    
C23   C30   A    
C12   C13   A    
C58   C59   A    
C15   C16   A    
C36   H21   S    
O19   V4    S    
C28   C32   A    
C41   C42   A    
C66   H33   S    
O15   C63   A    
C4    C19   S    
C35   C36   A    
C25   C29   A    
C37   C38   A    
C32   H14   S    
C11   C12   A    
C69   H41   S    
C8    H3    S    
C51   C52   A    
O9    C4    A    
C31   H13   S    
