data_mof_unit_24575.cif
_audit_creation_date              2012-10-26T20:05:02-0400
_audit_creation_method            fapswitch 2.2
_symmetry_space_group_name_H-M    P1
_symmetry_Int_Tables_number       1
_space_group_crystal_system       triclinic
_cell_length_a                    15.873639
_cell_length_b                    15.057965
_cell_length_c                    13.872384
_cell_angle_alpha                 90.392273
_cell_angle_beta                  88.070583
_cell_angle_gamma                 87.284057
_cell_volume                      3310.12172169

loop_
_atom_site_label
_atom_site_type_symbol
_atom_type_description
_atom_site_fract_x
_atom_site_fract_y
_atom_site_fract_z
_atom_type_partial_charge
C1    C     C_R   0.497274 0.329023 0.499906 0.547163
C2    C     C_R   0.498122 0.046559 0.499568 0.014639
C3    C     C_R   0.480643 0.907867 0.585850 0.014582
C4    C     C_R   0.521977 0.092097 0.414730 0.015408
C5    C     C_R   0.544120 0.950710 0.328737 -0.001609
C6    C     C_R   0.459084 0.049272 0.671829 -0.001963
C7    C     C_R   0.540858 0.044631 0.327353 0.012219
C8    C     C_R   0.462733 0.955390 0.673371 0.011740
C9    C     C_R   0.552597 0.440766 0.790794 0.111089
C10   C     C_R   0.452407 0.563056 0.207984 0.107914
C11   C     C_R   0.445567 0.558047 0.797997 0.129656
C12   C     C_R   0.502785 0.670979 0.500116 0.549544
C13   C     C_R   0.553519 0.440168 0.202905 0.149727
C14   C     C_R   0.457044 0.568423 0.899360 0.016516
C15   C     C_R   0.550675 0.436216 0.099868 0.009409
C16   C     C_R   0.340046 0.501260 0.501389 0.546869
C17   C     C_R   0.659949 0.498654 0.498597 0.544196
C18   C     C_R   0.503985 0.502474 0.947874 0.036583
C19   C     C_R   0.503760 0.502073 0.051244 0.036202
C20   C     C_R   0.551218 0.437210 0.893352 -0.027042
C21   C     C_R   0.457684 0.568512 0.105394 -0.028469
C22   C     C_R   0.423925 0.641871 0.954303 -0.131316
C23   C     C_R   0.508852 0.767667 0.500703 0.012830
C24   C     C_R   0.595768 0.369709 0.043484 -0.133974
C25   C     C_R   0.420737 0.640376 0.055101 -0.130579
C26   C     C_R   0.596656 0.370760 0.943010 -0.128089
C27   C     C_3   0.971395 0.443200 0.566012 -0.026159
C28   C     C_3   0.028588 0.556048 0.433605 -0.026231
C29   C     C_3   0.033483 0.417814 0.481117 -0.025468
C30   C     C_3   0.966508 0.581432 0.518504 -0.025470
C31   C     C_1   0.250527 0.501515 0.504270 -0.013619
C32   C     C_1   0.749462 0.498120 0.495642 -0.013901
C33   C     C_3   0.021692 0.525913 0.587657 -0.024693
C34   C     C_R   0.491917 0.232281 0.499431 0.014115
C35   C     C_3   0.978283 0.473333 0.411961 -0.024943
C36   C     C_3   0.083650 0.500539 0.502807 -0.018370
C37   C     C_3   0.916341 0.498715 0.496821 -0.018584
C38   C     C_1   0.175142 0.501279 0.504682 -0.032463
C39   C     C_1   0.824851 0.498132 0.495081 -0.034141
C40   C     C_R   0.474683 0.815654 0.580207 -0.140243
C41   C     C_R   0.526606 0.184474 0.420123 -0.140428
C42   C     C_1   0.071048 0.328316 0.461024 0.214856
C43   C     C_1   0.928974 0.670940 0.538622 0.214687
C44   C     C_1   0.939239 0.381379 0.638331 0.226810
C45   C     C_R   0.550866 0.812241 0.425322 0.011145
C46   C     C_1   0.060707 0.617875 0.361272 0.226672
C47   C     C_1   0.954004 0.444742 0.315794 0.213357
C48   C     C_1   0.045869 0.554454 0.683873 0.215323
C49   C     C_3   0.623533 0.764751 0.367185 -0.265622
C50   C     C_3   0.693462 0.730112 0.432417 -0.411923
C51   C     C_3   0.377909 0.234275 0.633667 -0.265257
C52   C     C_3   0.307488 0.268601 0.568924 -0.412277
C53   C     C_1   0.545648 0.901783 0.237997 0.176128
C54   C     C_1   0.458020 0.098351 0.762469 0.176323
C55   C     C_3   0.553476 0.093263 0.231942 -0.273525
C56   C     C_R   0.450643 0.187412 0.575059 0.011644
C57   C     C_3   0.646781 0.107460 0.210660 -0.430062
C58   C     C_3   0.451584 0.907230 0.769224 -0.272628
C59   C     C_3   0.358282 0.898721 0.795544 -0.430131
C60   C     C_1   0.608236 0.379543 0.735467 0.270833
C61   C     C_1   0.395910 0.624402 0.261943 0.268434
C62   C     C_3   0.363249 0.590905 0.752551 -0.245766
C63   C     C_3   0.291965 0.640526 0.811090 -0.473889
C64   C     C_3   0.621641 0.381778 0.249930 -0.244221
C65   C     C_3   0.710012 0.414883 0.228217 -0.421102
C66   C     C_R   0.534416 0.905177 0.417334 0.004819
C67   C     C_R   0.467998 0.094660 0.583124 0.004558
C68   C     C_R   0.504531 0.953338 0.500948 0.014823
Cu1   Cu    Cu3+1 0.500010 0.499990 0.597420 0.939623
Cu2   Cu    Cu3+1 0.499990 0.500010 0.402580 0.944076
H1    H     H_    0.402198 0.702312 0.920362 0.123075
H2    H     H_    0.600737 0.710042 0.322584 0.186313
H3    H     H_    0.655547 0.810280 0.317251 0.157259
H4    H     H_    0.330439 0.317009 0.515708 0.160606
H5    H     H_    0.281396 0.212235 0.529431 0.177744
H6    H     H_    0.255887 0.302000 0.613800 0.151872
H7    H     H_    0.346457 0.188342 0.683646 0.156552
H8    H     H_    0.400531 0.289062 0.678292 0.185985
H9    H     H_    0.673534 0.146631 0.269409 0.152178
H10   H     H_    0.682491 0.042382 0.203447 0.175298
H11   H     H_    0.654221 0.144225 0.142018 0.144531
H12   H     H_    0.631809 0.315521 0.074993 0.116674
H13   H     H_    0.528052 0.056139 0.170876 0.172176
H14   H     H_    0.516883 0.157859 0.231362 0.142107
H15   H     H_    0.325794 0.965534 0.802517 0.175710
H16   H     H_    0.327639 0.859957 0.739259 0.152735
H17   H     H_    0.351635 0.864112 0.865595 0.141437
H18   H     H_    0.484583 0.840649 0.768419 0.142318
H19   H     H_    0.481771 0.942801 0.828262 0.171390
H20   H     H_    0.279076 0.608061 0.881302 0.181102
H21   H     H_    0.304350 0.711809 0.819465 0.136276
H22   H     H_    0.233099 0.639019 0.770107 0.175662
H23   H     H_    0.390944 0.697144 0.093175 0.139539
H24   H     H_    0.376868 0.631331 0.688214 0.187286
H25   H     H_    0.332559 0.529121 0.733141 0.185999
H26   H     H_    0.727124 0.411169 0.150138 0.163969
H27   H     H_    0.757224 0.373221 0.267107 0.158118
H28   H     H_    0.713590 0.484885 0.252896 0.178698
H29   H     H_    0.615648 0.377144 0.327379 0.214788
H30   H     H_    0.617926 0.311432 0.227379 0.090573
H31   H     H_    0.633107 0.318277 0.904702 0.137761
H32   H     H_    0.444095 0.779883 0.637774 0.121635
H33   H     H_    0.556327 0.220594 0.362380 0.116971
H34   H     H_    0.720078 0.786443 0.471451 0.178085
H35   H     H_    0.669858 0.682457 0.486072 0.160445
H36   H     H_    0.744822 0.695791 0.387971 0.151223
N1    N     N_R   0.499960 0.499930 0.743810 -0.256833
N2    N     N_1   0.457414 0.137396 0.834686 -0.307442
N3    N     N_1   0.653191 0.330169 0.691969 -0.278491
N4    N     N_1   0.350238 0.673794 0.304443 -0.277067
N5    N     N_R   0.500040 0.500070 0.256190 -0.249688
N6    N     N_1   0.100709 0.257836 0.445226 -0.282778
N7    N     N_1   0.899347 0.741430 0.554445 -0.283277
N8    N     N_1   0.913837 0.332703 0.695288 -0.254698
N9    N     N_1   0.086075 0.666559 0.304304 -0.253930
N10   N     N_1   0.934954 0.422255 0.239979 -0.286061
N11   N     N_1   0.064823 0.576882 0.759744 -0.287263
N12   N     N_1   0.546608 0.862834 0.165696 -0.310620
O1    O     O_R   0.500020 0.370250 0.582280 -0.493198
O2    O     O_R   0.499980 0.629750 0.417720 -0.493620
O3    O     O_R   0.500010 0.370270 0.417740 -0.532888
O4    O     O_R   0.499990 0.629730 0.582260 -0.521417
O5    O     O_R   0.379080 0.499980 0.582260 -0.537504
O6    O     O_R   0.620920 0.500020 0.417740 -0.528611
O7    O     O_R   0.379070 0.500000 0.417710 -0.473498
O8    O     O_R   0.620930 0.500000 0.582290 -0.475564

loop_
_geom_bond_atom_site_label_1
_geom_bond_atom_site_label_2
_ccdc_geom_bond_type
C66   C68   A    
C15   C19   A    
C34   C56   A    
C23   C45   A    
C29   C42   S    
C27   C29   S    
C14   C18   A    
C3    C68   A    
C7    C55   S    
C52   H5    S    
C35   C47   S    
C59   H15   S    
Cu1   N1    S    
C27   C33   S    
C16   C31   S    
C25   H23   S    
C29   C36   S    
C28   C46   S    
C46   N9    T    
C5    C53   S    
C35   C37   S    
C16   O5    A    
C24   C26   A    
C65   H28   S    
C18   C19   A    
C2    C68   A    
C26   H31   S    
C11   C14   A    
C17   O8    A    
C4    C41   A    
Cu1   O5    S    
C23   C40   A    
C33   C36   S    
C22   C25   A    
C51   C56   S    
C1    O1    A    
C32   C39   T    
C57   H9    S    
C42   N6    T    
C60   N3    T    
C17   O6    A    
C8    C58   S    
C12   O2    A    
C27   C44   S    
C65   H26   S    
C28   C35   S    
Cu2   O2    S    
C49   H2    S    
C63   H22   S    
C50   H35   S    
C24   H12   S    
C16   O7    A    
C18   C20   A    
C11   C62   S    
C44   N8    T    
C62   H25   S    
C57   H10   S    
C34   C41   A    
C6    C54   S    
C4    C7    A    
C61   N4    T    
C1    C34   S    
C1    O3    A    
C64   H29   S    
C10   C21   A    
C47   N10   T    
C51   C52   S    
C2    C67   A    
C5    C7    A    
C53   N12   T    
C6    C8    A    
C58   C59   S    
Cu1   O1    S    
C41   H33   S    
C30   C37   S    
C2    C4    A    
C51   H7    S    
C62   H24   S    
C62   C63   S    
C9    C20   A    
C12   C23   S    
C45   C49   S    
C10   N5    A    
Cu2   O7    S    
C6    C67   A    
C3    C40   A    
C3    C8    A    
C13   C15   A    
C11   N1    A    
C49   H3    S    
C30   C43   S    
C10   C61   S    
C55   H13   S    
C22   H1    S    
C33   C48   S    
C21   C25   A    
C15   C24   A    
C30   C33   S    
C19   C21   A    
C5    C66   A    
C52   H6    S    
C58   H18   S    
Cu1   O8    S    
C48   N11   T    
C9    N1    A    
C56   C67   A    
C29   C35   S    
C52   H4    S    
C31   C38   T    
C54   N2    T    
C9    C60   S    
C64   C65   S    
C14   C22   A    
C55   C57   S    
C51   H8    S    
C65   H27   S    
C28   C30   S    
C13   N5    A    
C43   N7    T    
Cu2   O3    S    
C13   C64   S    
C20   C26   A    
Cu1   O4    S    
C27   C37   S    
C63   H20   S    
C36   C38   S    
C57   H11   S    
Cu1   Cu2   S    
C58   H19   S    
C59   H17   S    
C59   H16   S    
Cu2   N5    S    
C40   H32   S    
Cu2   O6    S    
C64   H30   S    
C12   O4    A    
C28   C36   S    
C37   C39   S    
C49   C50   S    
C63   H21   S    
C45   C66   A    
C50   H36   S    
C17   C32   S    
C55   H14   S    
C50   H34   S    
