data_mof_unit_58647.cif
_audit_creation_date              2012-12-10T17:04:21-0500
_audit_creation_method            fapswitch 2.2
_symmetry_space_group_name_H-M    P1
_symmetry_Int_Tables_number       1
_space_group_crystal_system       triclinic
_cell_length_a                    11.664369
_cell_length_b                    11.052551
_cell_length_c                    9.909104
_cell_angle_alpha                 111.659452
_cell_angle_beta                  97.122642
_cell_angle_gamma                 91.688924
_cell_volume                      1174.20376862

loop_
_atom_site_label
_atom_site_type_symbol
_atom_type_description
_atom_site_fract_x
_atom_site_fract_y
_atom_site_fract_z
_atom_type_partial_charge
C1    C     C_R   0.491440 0.254039 0.440287 0.844017
C2    C     C_R   0.508198 0.745929 0.559700 0.843314
C3    C     C_R   0.284428 0.499809 0.501791 0.805441
C4    C     C_R   0.715535 0.499015 0.498222 0.809191
C5    C     C_1   0.163000 0.499266 0.504756 -0.201166
C6    C     C_1   0.837040 0.497203 0.496507 -0.200536
C7    C     C_1   0.060216 0.498247 0.503351 -0.008586
C8    C     C_1   0.939954 0.497180 0.499398 -0.007613
C9    C     C_2   0.486529 0.113966 0.406842 -0.360030
C10   C     C_2   0.512224 0.885937 0.593101 -0.358695
C11   C     C_2   0.500899 0.069660 0.515872 -0.143660
C12   C     C_2   0.497277 0.930241 0.484094 -0.149814
C13   C     C_2   0.520113 0.495969 0.075222 0.510632
C14   C     C_2   0.481228 0.500218 0.923738 0.565343
Cu1   Cu    Cu3+1 0.519790 0.521810 0.644910 0.982132
Cu2   Cu    Cu3+1 0.480210 0.478190 0.355090 0.972915
H1    H     H_    0.482452 0.863394 0.369941 0.185942
H2    H     H_    0.515866 0.136574 0.630068 0.187403
H3    H     H_    0.527261 0.953104 0.707118 0.154136
H4    H     H_    0.471383 0.046757 0.292820 0.152509
N1    N     N_2   0.450460 0.445430 0.137370 -0.053617
N2    N     N_2   0.549540 0.554570 0.862630 -0.073093
O1    O     O_R   0.510560 0.332330 0.577400 -0.574522
O2    O     O_R   0.489440 0.667670 0.422600 -0.571809
O3    O     O_R   0.477140 0.295500 0.332650 -0.586738
O4    O     O_R   0.522860 0.704500 0.667350 -0.547966
O5    O     O_R   0.353910 0.518430 0.622380 -0.550291
O6    O     O_R   0.646090 0.481570 0.377620 -0.533919
O7    O     O_R   0.320490 0.481600 0.377630 -0.617718
O8    O     O_R   0.679510 0.518400 0.622370 -0.601306
O9    O     O_3   0.363792 0.470946 0.869117 -0.605628
C15   C     C_3   0.302979 0.586540 0.906582 0.093526
H5    H     H_    0.213493 0.557630 0.846106 0.163977
H6    H     H_    0.340193 0.659760 0.868431 0.204821
C16   C     C_3   0.294121 0.653462 0.070995 -0.414866
H7    H     H_    0.255001 0.583592 0.111509 0.225971
H8    H     H_    0.381386 0.691272 0.134699 0.217424
C17   C     C_3   0.219062 0.768718 0.098975 -0.916364
H9    H     H_    0.256522 0.842322 0.061377 0.258545
H10   H     H_    0.215128 0.815837 0.218387 0.264122
H11   H     H_    0.129538 0.734821 0.040371 0.260316
O10   O     O_3   0.628713 0.549422 0.149615 -0.640913
C18   C     C_3   0.710929 0.460858 0.088124 0.033938
H12   H     H_    0.701424 0.428859 0.966373 0.100099
H13   H     H_    0.700397 0.372609 0.115848 0.181005
C19   C     C_3   0.833435 0.526861 0.150246 -0.318122
H14   H     H_    0.850800 0.601405 0.103913 0.203111
H15   H     H_    0.841225 0.577633 0.270862 0.239007
C20   C     C_3   0.924969 0.428692 0.113049 -0.927477
H16   H     H_    0.912102 0.354224 0.161563 0.259291
H17   H     H_    0.012646 0.480074 0.158456 0.258874
H18   H     H_    0.919814 0.379540 0.992130 0.255395
O11   O     O_3   0.549994 0.686423 0.927685 -0.543485
C21   C     C_3   0.661220 0.746758 0.000837 0.102907
H19   H     H_    0.688995 0.723181 0.097566 0.168823
H20   H     H_    0.651221 0.853364 0.046918 0.146698
C22   C     C_3   0.756468 0.725393 0.902803 -0.317110
H21   H     H_    0.780640 0.623333 0.871815 0.227210
H22   H     H_    0.725417 0.745670 0.803585 0.253003
C23   C     C_3   0.865001 0.817060 0.982037 -0.991997
H23   H     H_    0.845495 0.920341 0.007929 0.266286
H24   H     H_    0.933699 0.795343 0.910176 0.267148
H25   H     H_    0.898174 0.804345 0.085506 0.257225
O12   O     O_3   0.401697 0.327392 0.041315 -0.561176
C24   C     C_3   0.294039 0.298891 0.077784 0.236166
H26   H     H_    0.240226 0.383287 0.103071 0.124667
H27   H     H_    0.306104 0.266714 0.171236 0.176946
C25   C     C_3   0.228710 0.185689 0.946165 -0.393253
H28   H     H_    0.204621 0.219121 0.854243 0.240295
H29   H     H_    0.286014 0.104659 0.909133 0.230263
C26   C     C_3   0.119471 0.133823 0.984177 -0.953588
H30   H     H_    0.142303 0.094960 0.071824 0.260131
H31   H     H_    0.073388 0.053631 0.885452 0.268097
H32   H     H_    0.060641 0.212599 0.021917 0.266800

loop_
_geom_bond_atom_site_label_1
_geom_bond_atom_site_label_2
_ccdc_geom_bond_type
C12   H1    S    
Cu2   O6    S    
C26   H32   S    
C1    O3    A    
C11   C12   S    
C20   H16   S    
C11   H2    S    
Cu2   N1    S    
C13   C14   S    
C9    C11   D    
C10   H3    S    
C9    H4    S    
Cu1   O5    S    
C16   H7    S    
C14   O9    S    
C18   H12   S    
C24   C25   S    
C15   H5    S    
C14   N2    D    
C20   H17   S    
Cu1   O1    S    
C13   N1    D    
C26   H30   S    
C2    O4    A    
O11   C21   S    
O12   C24   S    
C17   H10   S    
C18   H13   S    
C19   C20   S    
C3    O7    A    
C22   H21   S    
C10   C12   D    
Cu1   O8    S    
C23   H25   S    
C25   H29   S    
C13   O10   S    
C4    O6    A    
C1    O1    A    
N2    O11   S    
C19   H15   S    
C3    O5    A    
C25   C26   S    
C2    O2    A    
C17   H9    S    
C25   H28   S    
C18   C19   S    
C21   H20   S    
C22   H22   S    
C4    C6    S    
C24   H27   S    
O10   C18   S    
Cu1   Cu2   S    
C2    C10   S    
C15   C16   S    
C7    C8    S    
C16   C17   S    
C1    C9    S    
C16   H8    S    
C17   H11   S    
C23   H24   S    
C24   H26   S    
C26   H31   S    
Cu2   O3    S    
C5    C7    T    
C21   H19   S    
Cu1   O4    S    
C22   C23   S    
C6    C8    T    
C3    C5    S    
Cu2   O7    S    
C19   H14   S    
Cu2   O2    S    
Cu1   N2    S    
C4    O8    A    
O9    C15   S    
C20   H18   S    
C23   H23   S    
N1    O12   S    
C21   C22   S    
C15   H6    S    
