data_mof_unit_33581.cif
_audit_creation_date              2012-12-10T18:35:15-0500
_audit_creation_method            fapswitch 2.2
_symmetry_space_group_name_H-M    P1
_symmetry_Int_Tables_number       1
_space_group_crystal_system       triclinic
_cell_length_a                    14.931572
_cell_length_b                    15.446087
_cell_length_c                    16.866057
_cell_angle_alpha                 91.813558
_cell_angle_beta                  99.253475
_cell_angle_gamma                 98.11731
_cell_volume                      3794.92110239

loop_
_atom_site_label
_atom_site_type_symbol
_atom_type_description
_atom_site_fract_x
_atom_site_fract_y
_atom_site_fract_z
_atom_type_partial_charge
C1    C     C_R   0.557366 0.662442 0.514625 0.945461
C2    C     C_R   0.459922 0.193726 0.544947 0.378936
C3    C     C_R   0.551716 0.900286 0.556327 -0.045039
C4    C     C_R   0.440155 0.102208 0.533575 -0.042485
C5    C     C_R   0.643986 0.936944 0.555743 0.039673
C6    C     C_R   0.349473 0.065169 0.500268 0.051354
C7    C     C_R   0.482388 0.955358 0.547348 0.091060
C8    C     C_R   0.508782 0.047514 0.550419 0.080858
C9    C     C_R   0.603084 0.081885 0.559180 -0.174820
C10   C     C_R   0.388249 0.921177 0.524254 -0.205640
C11   C     C_R   0.669309 0.027307 0.561156 -0.207270
C12   C     C_R   0.441991 0.337813 0.492104 0.927707
C13   C     C_R   0.323447 0.975103 0.499214 -0.213126
C14   C     C_R   0.168784 0.620552 0.360994 -0.006356
C15   C     C_R   0.833635 0.359664 0.613742 0.006714
C16   C     C_R   0.511469 0.497555 0.350008 0.918969
C17   C     C_R   0.488108 0.502114 0.649716 0.938373
C18   C     C_R   0.258603 0.608592 0.394879 0.649603
C19   C     C_R   0.748938 0.392428 0.604660 0.645579
C20   C     C_R   0.201528 0.505764 0.483108 -0.124012
C21   C     C_R   0.790702 0.483048 0.501506 -0.127781
C22   C     C_R   0.110586 0.518516 0.454803 -0.085359
C23   C     C_R   0.591852 0.755695 0.533838 -0.270802
C24   C     C_R   0.878581 0.457354 0.510272 -0.084215
C25   C     C_R   0.094957 0.583016 0.398187 -0.035970
C26   C     C_R   0.896234 0.387410 0.561010 -0.031026
C27   C     C_R   0.035619 0.469842 0.482856 0.039507
C28   C     C_R   0.948836 0.498260 0.470017 0.051425
C29   C     C_R   0.936551 0.568131 0.419487 -0.318640
C30   C     C_R   0.044188 0.390144 0.518655 -0.334943
C31   C     C_R   0.006535 0.607461 0.380403 0.567836
C32   C     C_R   0.974776 0.346901 0.556093 0.564122
C33   C     C_R   0.516627 0.490737 0.265014 -0.189404
C34   C     C_R   0.404923 0.245524 0.497909 -0.285164
C35   C     C_R   0.481255 0.508862 0.734051 -0.200878
C36   C     C_R   0.443615 0.439535 0.213667 0.468597
C37   C     C_R   0.547641 0.568834 0.784050 0.454315
C38   C     C_R   0.451085 0.423627 0.133896 -0.337932
C39   C     C_R   0.537750 0.581963 0.864204 -0.360114
C40   C     C_R   0.527613 0.462509 0.103811 0.056398
C41   C     C_R   0.465687 0.533967 0.894138 0.067827
C42   C     C_R   0.602102 0.513693 0.154129 0.220940
C43   C     C_R   0.396330 0.476810 0.843815 0.216943
C44   C     C_R   0.595543 0.530000 0.235567 0.123441
C45   C     C_R   0.709107 0.882821 0.544700 -0.311390
C46   C     C_R   0.405267 0.462153 0.762869 0.110125
C47   C     C_2   0.517345 0.465753 0.016864 0.200808
C48   C     C_2   0.476146 0.530637 0.981067 0.188766
C49   C     C_3   0.292773 0.446928 0.214548 -0.282259
C50   C     C_3   0.701879 0.630386 0.802230 -0.329296
C51   C     C_3   0.920703 0.658598 0.270622 -0.392372
C52   C     C_3   0.060725 0.242694 0.612968 -0.370372
C53   C     C_3   0.702202 0.400429 0.728324 -0.264424
C54   C     C_3   0.344962 0.738461 0.370384 -0.295583
C55   C     C_3   0.152852 0.662167 0.280783 -0.822452
C56   C     C_R   0.286953 0.118765 0.466174 -0.324886
C57   C     C_3   0.856596 0.301857 0.683106 -0.793693
C58   C     C_3   0.335309 0.395047 0.709386 -0.895683
C59   C     C_3   0.670538 0.592082 0.288733 -0.912850
C60   C     C_3   0.443202 0.601858 0.027497 -0.952729
C61   C     C_3   0.552035 0.395539 0.970590 -0.963749
C62   C     C_3   0.686026 0.553938 0.120839 -0.928964
C63   C     C_3   0.315294 0.429285 0.876689 -0.918391
C64   C     C_3   0.502111 0.218914 0.680254 -0.255674
C65   C     C_3   0.472919 0.783609 0.674494 -0.273902
C66   C     C_3   0.241277 0.238863 0.337241 -0.238686
C67   C     C_R   0.681573 0.792775 0.526049 0.480210
C68   C     C_3   0.777463 0.771256 0.436327 -0.322106
C69   C     C_R   0.316417 0.208146 0.459024 0.455561
C70   C     C_R   0.532080 0.808730 0.559924 0.366572
H1    H     H_    0.627129 0.150656 0.555904 0.216000
H2    H     H_    0.253388 0.945777 0.476073 0.150302
H3    H     H_    0.779657 0.911398 0.544684 0.164186
H4    H     H_    0.217117 0.090593 0.441016 0.166314
H5    H     H_    0.267163 0.430437 0.149475 0.141442
H6    H     H_    0.311650 0.519212 0.225780 0.188548
H7    H     H_    0.235592 0.426219 0.247590 0.182070
H8    H     H_    0.714877 0.571319 0.835993 0.139256
H9    H     H_    0.706941 0.688388 0.844210 0.166767
H10   H     H_    0.756897 0.644143 0.765343 0.200740
H11   H     H_    0.855469 0.671280 0.288450 0.177529
H12   H     H_    0.363388 0.852302 0.517227 0.204018
H13   H     H_    0.914226 0.589893 0.245504 0.155023
H14   H     H_    0.933851 0.702337 0.221549 0.201068
H15   H     H_    0.097647 0.297763 0.655455 0.149613
H16   H     H_    0.103399 0.226729 0.567869 0.200309
H17   H     H_    0.050006 0.184266 0.648809 0.195907
H18   H     H_    0.638965 0.419069 0.745763 0.193147
H19   H     H_    0.755412 0.459926 0.736810 0.125074
H20   H     H_    0.722105 0.351072 0.771441 0.142996
H21   H     H_    0.415391 0.763592 0.401626 0.192190
H22   H     H_    0.295679 0.765697 0.403814 0.138559
H23   H     H_    0.768375 0.528975 0.458824 0.176924
H24   H     H_    0.338063 0.764620 0.309556 0.165425
H25   H     H_    0.210738 0.659604 0.247409 0.229396
H26   H     H_    0.092309 0.624989 0.241035 0.244384
H27   H     H_    0.143401 0.731588 0.289733 0.268799
H28   H     H_    0.855675 0.337356 0.740729 0.195540
H29   H     H_    0.806857 0.240360 0.676015 0.257257
H30   H     H_    0.926847 0.285992 0.692438 0.263712
H31   H     H_    0.268508 0.419880 0.696734 0.243702
H32   H     H_    0.356039 0.378337 0.651311 0.233745
H33   H     H_    0.325926 0.332412 0.739572 0.228901
H34   H     H_    0.218351 0.460710 0.528967 0.162061
H35   H     H_    0.732167 0.559368 0.303467 0.239112
H36   H     H_    0.687862 0.652869 0.257635 0.230521
H37   H     H_    0.650285 0.614405 0.345411 0.248501
H38   H     H_    0.412706 0.648436 0.986117 0.247778
H39   H     H_    0.389842 0.572804 0.061696 0.238921
H40   H     H_    0.501534 0.639262 0.069724 0.249553
H41   H     H_    0.585420 0.350819 0.012223 0.250557
H42   H     H_    0.494227 0.355803 0.929643 0.247998
H43   H     H_    0.603393 0.425811 0.934941 0.233071
H44   H     H_    0.749046 0.538027 0.158469 0.241941
H45   H     H_    0.873367 0.594461 0.409209 0.148623
H46   H     H_    0.686742 0.529099 0.058632 0.244895
H47   H     H_    0.688868 0.626099 0.120414 0.234130
H48   H     H_    0.312163 0.452742 0.938846 0.240868
H49   H     H_    0.250218 0.439991 0.838814 0.245091
H50   H     H_    0.319136 0.358073 0.877084 0.233748
H51   H     H_    0.499655 0.148874 0.694365 0.152196
H52   H     H_    0.434688 0.240648 0.683136 0.136903
H53   H     H_    0.553408 0.257638 0.727659 0.197177
H54   H     H_    0.474478 0.853785 0.692442 0.156644
H55   H     H_    0.537790 0.760706 0.701864 0.196883
H56   H     H_    0.102646 0.358159 0.512592 0.175829
H57   H     H_    0.416079 0.745165 0.699037 0.190177
H58   H     H_    0.306899 0.245937 0.313008 0.187894
H59   H     H_    0.198463 0.284964 0.306590 0.188957
H60   H     H_    0.202879 0.171730 0.322478 0.137711
H61   H     H_    0.722850 0.788880 0.389013 0.145786
H62   H     H_    0.807969 0.718709 0.409558 0.195877
H63   H     H_    0.833163 0.827513 0.453392 0.180367
H64   H     H_    0.587948 0.626895 0.904927 0.167928
H65   H     H_    0.394400 0.385029 0.093861 0.171359
H66   H     H_    0.740096 0.056066 0.562154 0.163259
N1    N     N_R   0.271750 0.551950 0.454510 -0.147252
N2    N     N_R   0.728250 0.448050 0.545490 -0.157485
O1    O     O_R   0.615140 0.606020 0.522930 -0.575535
O2    O     O_3   0.616429 0.617711 0.750266 -0.605045
O3    O     O_3   0.993288 0.680145 0.336117 -0.603314
O4    O     O_3   0.974041 0.259391 0.574185 -0.599641
O5    O     O_3   0.681926 0.361472 0.649059 -0.538666
O6    O     O_3   0.334048 0.645801 0.362909 -0.592001
O7    O     O_3   0.529365 0.233641 0.604853 -0.558592
O8    O     O_3   0.456165 0.769585 0.590067 -0.604952
O9    O     O_3   0.256526 0.260204 0.420684 -0.592345
O10   O     O_3   0.742390 0.739781 0.504588 -0.582994
O11   O     O_R   0.384860 0.393980 0.477070 -0.581028
O12   O     O_R   0.468580 0.639400 0.493740 -0.549047
O13   O     O_R   0.531420 0.360600 0.506260 -0.551533
O14   O     O_R   0.581950 0.481350 0.400520 -0.637589
O15   O     O_R   0.418050 0.518650 0.599480 -0.621435
O16   O     O_R   0.435380 0.514730 0.371330 -0.542853
O17   O     O_R   0.564620 0.485270 0.628670 -0.558608
O18   O     O_3   0.366522 0.401801 0.242812 -0.610153
Zn1   Zn    Zn3+2 0.597860 0.477710 0.519490 1.023634
Zn2   Zn    Zn3+2 0.402140 0.522290 0.480510 1.028031

loop_
_geom_bond_atom_site_label_1
_geom_bond_atom_site_label_2
_ccdc_geom_bond_type
C25   C31   A    
C40   C47   S    
C54   O6    S    
C30   H56   S    
C26   C32   A    
C64   O7    S    
C18   N1    A    
C41   C43   A    
C14   C18   A    
C49   O18   S    
C23   C70   A    
C4    C8    A    
C17   O15   A    
C50   H9    S    
C43   C63   S    
C7    C8    A    
C39   C41   A    
C16   O16   A    
C2    O7    S    
C15   C19   A    
C28   C29   A    
C59   H35   S    
N1    Zn2   S    
O13   Zn1   S    
C52   H15   S    
C35   C37   A    
C24   C26   A    
O16   Zn2   S    
C3    C7    A    
C62   H44   S    
C50   O2    S    
O17   Zn1   S    
C68   O10   S    
C44   C59   S    
C64   H51   S    
C57   H29   S    
C33   C36   A    
C45   H3    S    
C65   H54   S    
C23   C67   A    
O15   Zn2   S    
C68   H62   S    
C62   H47   S    
C60   H39   S    
C66   H58   S    
C8    C9    A    
C37   O2    S    
C45   C67   A    
C49   H5    S    
C70   O8    S    
C52   H16   S    
O11   Zn2   S    
C42   C62   S    
C32   O4    S    
C60   H38   S    
C66   H59   S    
C2    C34   A    
C40   C42   A    
C14   C55   S    
C29   H45   S    
C38   C40   A    
C46   C58   S    
C27   C30   A    
C15   C57   S    
C12   O13   A    
C42   C44   A    
C21   N2    A    
C50   H8    S    
C48   C60   S    
C51   O3    S    
C59   H36   S    
C56   H4    S    
C9    H1    S    
C3    C70   A    
C55   H25   S    
C63   H48   S    
C15   C26   A    
C57   H30   S    
C5    C45   A    
C22   C25   A    
C52   O4    S    
C53   O5    S    
C65   H55   S    
C20   N1    A    
C31   O3    S    
C68   H61   S    
C2    C4    A    
C54   H22   S    
C16   C33   S    
C63   H49   S    
C47   C48   D    
C55   H27   S    
C49   H6    S    
C1    O12   A    
C16   O14   A    
C58   H31   S    
C38   H65   S    
C9    C11   A    
C34   C69   A    
C66   O9    S    
C58   H32   S    
C4    C6    A    
C20   C22   A    
C1    C23   S    
C22   C27   A    
C53   H19   S    
C69   O9    S    
C12   C34   S    
C17   O17   A    
C51   H13   S    
C27   C28   A    
C36   O18   S    
C1    O1    A    
C51   H11   S    
O14   Zn1   S    
C68   H63   S    
C19   O5    S    
O12   Zn2   S    
C33   C44   A    
C12   O11   A    
C65   H57   S    
C52   H17   S    
C24   C28   A    
C6    C56   A    
C55   H26   S    
C3    C5    A    
C10   C13   A    
C50   H10   S    
C47   C61   S    
C10   H12   S    
C5    C11   A    
C20   H34   S    
C13   H2    S    
C64   H53   S    
C7    C10   A    
C36   C38   A    
C53   H20   S    
C54   H21   S    
C37   C39   A    
C11   H66   S    
C6    C13   A    
C30   C32   A    
C63   H50   S    
C61   H42   S    
N2    Zn1   S    
C21   H23   S    
C19   N2    A    
C64   H52   S    
C57   H28   S    
C18   O6    S    
C41   C48   S    
C49   H7    S    
C53   H18   S    
C14   C25   A    
C43   C46   A    
C59   H37   S    
C54   H24   S    
C60   H40   S    
C62   H46   S    
C61   H43   S    
O1    Zn1   S    
C29   C31   A    
C56   C69   A    
C21   C24   A    
C67   O10   S    
C58   H33   S    
C17   C35   S    
C65   O8    S    
C35   C46   A    
C51   H14   S    
C66   H60   S    
C39   H64   S    
C61   H41   S    
