data_mof_unit_45506.cif
_audit_creation_date              2013-03-05T15:55:04-0500
_audit_creation_method            fapswitch 2.2
_symmetry_space_group_name_H-M    P1
_symmetry_Int_Tables_number       1
_space_group_crystal_system       triclinic
_cell_length_a                    14.830506
_cell_length_b                    14.802796
_cell_length_c                    14.884521
_cell_angle_alpha                 109.518017
_cell_angle_beta                  109.750227
_cell_angle_gamma                 109.243205
_cell_volume                      2512.35543603

loop_
_atom_site_label
_atom_site_type_symbol
_atom_site_description
_atom_site_fract_x
_atom_site_fract_y
_atom_site_fract_z
_atom_type_partial_charge
C1    C     C_R   0.184548 0.275485 0.251367 -0.124017
H1    H     H_    0.119339 0.295430 0.241586 0.110895
N1    N     N_R   0.291070 0.347930 0.293870 -0.044845
C2    C     C_R   0.526866 0.434971 0.750826 0.355053
N2    N     N_R   0.554050 0.497220 0.706150 -0.092169
C3    C     C_R   0.506648 0.201227 0.407367 -0.149706
H2    H     H_    0.487670 0.154876 0.323735 0.102667
N3    N     N_R   0.497240 0.291100 0.443210 -0.046516
C4    C     C_R   0.291379 0.598229 0.589801 -0.097710
H3    H     H_    0.325068 0.660022 0.673951 0.132575
N4    N     N_R   0.347890 0.554050 0.556810 -0.042019
C5    C     C_R   0.599404 0.291678 0.589357 -0.031110
H4    H     H_    0.666206 0.326744 0.671308 0.151845
N5    N     N_R   0.554050 0.347900 0.556830 -0.063475
C6    C     C_R   0.199172 0.503552 0.407434 -0.143293
H5    H     H_    0.147015 0.474074 0.321867 0.108992
N6    N     N_R   0.291070 0.497250 0.443190 -0.045987
C7    C     C_R   0.429863 0.522389 0.743790 -0.089521
H6    H     H_    0.373583 0.552148 0.748893 0.116464
N7    N     N_R   0.497240 0.554030 0.706140 -0.053129
C8    C     C_R   0.278388 0.184402 0.251267 -0.130568
H7    H     H_    0.302015 0.121803 0.242264 0.096748
N8    N     N_R   0.347890 0.291110 0.293870 -0.041391
C9    C     C_R   0.174814 0.171999 0.225864 0.052127
C10   C     C_R   0.444791 0.445732 0.772033 -0.105719
C11   C     C_R   0.570008 0.198426 0.497295 0.060198
C12   C     C_R   0.197847 0.569919 0.497592 0.036488
C13   C     C_R   0.474996 0.721451 0.406788 -0.073631
H8    H     H_    0.447784 0.696833 0.321606 0.098675
N9    N     N_R   0.445950 0.652100 0.443170 -0.047898
C14   C     C_R   0.815545 0.566693 0.593107 -0.135694
H9    H     H_    0.878490 0.617196 0.678929 0.115509
N10   N     N_R   0.708930 0.502750 0.556810 -0.046034
C15   C     C_R   0.495577 0.405556 0.194962 -0.132072
H10   H     H_    0.518570 0.344499 0.164782 0.100350
N11   N     N_R   0.502760 0.445970 0.293860 -0.043546
C16   C     C_R   0.709023 0.800242 0.805494 0.317609
N12   N     N_R   0.652110 0.708890 0.706130 -0.093546
C17   C     C_R   0.800065 0.708154 0.805358 -0.145058
H11   H     H_    0.849808 0.673176 0.832545 0.135148
N13   N     N_R   0.708930 0.652070 0.706130 -0.068889
C18   C     C_R   0.404052 0.497466 0.196766 -0.141399
H12   H     H_    0.341342 0.519405 0.169470 0.088860
N14   N     N_R   0.445950 0.502780 0.293850 -0.045678
C19   C     C_R   0.565662 0.815632 0.590456 -0.069620
H13   H     H_    0.620594 0.880528 0.674801 0.152213
N15   N     N_R   0.502760 0.708900 0.556790 -0.037456
C20   C     C_R   0.723307 0.477094 0.408902 -0.115363
H14   H     H_    0.700921 0.446557 0.323518 0.100561
N16   N     N_R   0.652110 0.445950 0.443190 -0.045492
Ni1   Ni    Ni4+2 0.369690 0.500010 0.369700 0.214247
Ni2   Ni    Ni4+2 0.630310 0.499990 0.630300 0.244205
Ni3   Ni    Ni4+2 0.500000 0.369720 0.369720 0.199321
Ni4   Ni    Ni4+2 0.500000 0.630280 0.630280 0.300013
C21   C     C_R   0.550496 0.825685 0.497401 0.058835
C22   C     C_R   0.827217 0.555932 0.501774 0.049213
C23   C     C_R   0.433778 0.437017 0.132538 0.092531
C24   C     C_R   0.802150 0.801366 0.871593 -0.099432
H15   H     H_    0.036624 0.485683 0.023737 0.128408
C25   C     C_R   0.110151 0.608959 0.193093 -0.243061
H16   H     H_    0.171681 0.669287 0.188931 0.147907
C26   C     C_R   0.106179 0.635831 0.291093 0.387829
C27   C     C_R   0.025327 0.554819 0.294546 -0.054181
C28   C     C_R   0.947190 0.451452 0.198480 -0.214121
H17   H     H_    0.884859 0.388741 0.199698 0.135809
C29   C     C_R   0.951403 0.426945 0.101399 -0.034907
H18   H     H_    0.891741 0.346723 0.028187 0.137500
C30   C     C_R   0.033245 0.505179 0.098981 -0.139644
C31   C     C_R   0.929712 0.569550 0.401341 -0.181217
H19   H     H_    0.854789 0.533607 0.324565 0.132813
C32   C     C_R   0.931193 0.606189 0.501829 0.032341
C33   C     C_R   0.034489 0.675182 0.600629 0.027038
C34   C     C_R   0.125770 0.669358 0.598015 -0.172172
H20   H     H_    0.203043 0.712849 0.674457 0.123213
C35   C     C_R   0.117004 0.607830 0.497245 0.089812
C36   C     C_R   0.024328 0.575613 0.398633 0.088911
C37   C     C_R   0.000566 0.825318 0.694046 -0.106097
H21   H     H_    0.947040 0.811042 0.614131 0.127390
C38   C     C_R   0.020932 0.910757 0.788956 -0.115047
H22   H     H_    0.982497 0.960689 0.781871 0.115968
C39   C     C_R   0.092070 0.932841 0.892960 -0.100983
H23   H     H_    0.109155 0.000332 0.966222 0.114903
C40   C     C_R   0.141070 0.867935 0.902347 -0.108580
H24   H     H_    0.195355 0.884604 0.983148 0.108821
C41   C     C_R   0.120778 0.782092 0.807605 -0.164103
H25   H     H_    0.159563 0.732772 0.816619 0.110096
C42   C     C_R   0.050887 0.760449 0.702274 0.114553
C43   C     C_R   0.422189 0.331494 0.861782 0.269315
C44   C     C_R   0.394849 0.401373 0.828553 0.020943
C45   C     C_R   0.345181 0.452666 0.875692 -0.155751
H26   H     H_    0.316023 0.501890 0.848727 0.127228
C46   C     C_R   0.348146 0.455946 0.970661 -0.183960
H27   H     H_    0.321129 0.507295 0.011695 0.122666
C47   C     C_R   0.397206 0.404621 0.017430 0.035534
C48   C     C_R   0.425153 0.334629 0.957916 0.119471
C49   C     C_3   0.360913 0.211815 0.903429 -0.539823
C50   C     C_3   0.353484 0.207483 0.798870 -0.394609
H28   H     H_    0.412035 0.177968 0.936897 0.214052
H29   H     H_    0.279458 0.180752 0.899254 0.207743
H30   H     H_    0.395711 0.165691 0.769068 0.250821
H31   H     H_    0.267999 0.176552 0.734482 0.188901
C51   C     C_R   0.562403 0.929472 0.395202 0.195364
C52   C     C_R   0.599475 0.927559 0.494393 0.035883
C53   C     C_R   0.670190 0.030069 0.593211 -0.178033
H32   H     H_    0.709612 0.034900 0.671780 0.144167
C54   C     C_R   0.674844 0.126188 0.593552 -0.162820
H33   H     H_    0.717230 0.200586 0.672474 0.144761
C55   C     C_R   0.609547 0.119562 0.494844 0.022230
C56   C     C_R   0.567512 0.024462 0.395608 0.172836
C57   C     C_3   0.460954 0.961000 0.288562 -0.513321
C58   C     C_3   0.455301 0.857122 0.287592 -0.502019
H34   H     H_    0.393342 0.973034 0.296716 0.213828
H35   H     H_    0.472696 0.970074 0.221514 0.198617
H36   H     H_    0.383754 0.811335 0.293895 0.232493
H37   H     H_    0.463903 0.806364 0.220061 0.205203
C59   C     C_R   0.972574 0.066836 0.136306 0.056894
C60   C     C_R   0.072853 0.067615 0.172093 0.086801
C61   C     C_R   0.072306 0.966895 0.131425 -0.183484
H38   H     H_    0.147496 0.962959 0.160511 0.120497
C62   C     C_R   0.976783 0.871999 0.040539 -0.087171
H39   H     H_    0.983214 0.799732 0.003410 0.122457
C63   C     C_R   0.880598 0.876654 0.990467 0.097553
C64   C     C_R   0.875955 0.970554 0.046684 0.070939
C65   C     C_3   0.815622 0.980442 0.109880 0.240034
C66   C     C_3   0.919768 0.085248 0.205058 -0.624898
H40   H     H_    0.746546 0.994762 0.073119 0.139598
H41   H     H_    0.912285 0.160503 0.219822 0.181153
H42   H     H_    0.958105 0.081390 0.281121 0.242107
N17   N     N_R   0.660131 0.861271 0.844516 0.209167
O1    O     O_R   0.707100 0.967060 0.880434 -0.469147
O2    O     O_R   0.558071 0.808614 0.820171 -0.418196
N18   N     N_R   0.182824 0.745216 0.385084 0.232616
O3    O     O_R   0.150345 0.795813 0.445964 -0.375817
O4    O     O_R   0.282018 0.799451 0.403135 -0.427448
N19   N     N_R   0.597021 0.398631 0.801046 0.215156
O5    O     O_R   0.558002 0.295325 0.774524 -0.449379
O6    O     O_R   0.703390 0.465338 0.860008 -0.419866
N20   N     N_R   0.783135 0.890960 0.134731 0.254880
O7    O     O_R   0.855017 0.866809 0.183720 -0.363984
O8    O     O_R   0.680665 0.834512 0.107419 -0.380739

loop_
_geom_bond_atom_site_label_1
_geom_bond_atom_site_label_2
_geom_bond_distance
_ccdc_geom_bond_type
C29   C30   1.395179 A    
N9    Ni1   1.839628 S    
C59   C64   1.398432 A    
C34   H20   1.079515 S    
N1    N8    1.372853 A    
C48   C49   1.490437 S    
N6    Ni1   1.848821 S    
C53   C54   1.399791 A    
C2    C10   1.400193 A    
C64   C65   1.506651 S    
C17   N13   1.337653 A    
N2    N7    1.372611 A    
C37   H21   1.083039 S    
C55   C56   1.400689 A    
N10   Ni2   1.848824 S    
C9    C60   1.459551 S    
C26   C27   1.418986 A    
C65   N20   1.466512 S    
C13   H8    1.073185 S    
C1    H1    1.079532 S    
C41   H25   1.082568 S    
C27   C36   1.481596 S    
C6    H5    1.072941 S    
C49   H29   1.112951 S    
C21   C52   1.465889 S    
C59   C60   1.394567 A    
C31   C36   1.391516 A    
C20   C22   1.394460 A    
C15   H10   1.081811 S    
C31   C32   1.399897 A    
C57   C58   1.507013 S    
N11   Ni3   1.844728 S    
C61   H38   1.080593 S    
C6    C12   1.384180 A    
N5    Ni2   1.839628 S    
C40   H24   1.082516 S    
N18   O3    1.301298 A    
C49   H28   1.111713 S    
C15   C23   1.383897 A    
C14   N10   1.335037 A    
N2    Ni2   1.848979 S    
C14   C22   1.391384 A    
C4    H3    1.079543 S    
N13   Ni2   1.839539 S    
C15   N11   1.341546 A    
C43   C50   1.502828 S    
C19   N15   1.342044 A    
C29   H18   1.082427 S    
C43   C48   1.401201 A    
C8    H7    1.078040 S    
C34   C35   1.404821 A    
C51   C58   1.499490 S    
C31   H19   1.081439 S    
C7    C10   1.390967 A    
C18   N14   1.328703 A    
C12   C35   1.481099 S    
C18   C23   1.371951 A    
C53   H32   1.081232 S    
C39   C40   1.397162 A    
C13   C21   1.379682 A    
C62   C63   1.405580 A    
N8    Ni3   1.840707 S    
C61   C62   1.390495 A    
C41   C42   1.407910 A    
C24   C63   1.470632 S    
N16   Ni3   1.840762 S    
C26   N18   1.438577 S    
N9    N15   1.377246 A    
N19   O5    1.299280 A    
N12   N13   1.372852 A    
N7    Ni4   1.844729 S    
C11   C55   1.464656 S    
C17   H11   1.079859 S    
C38   C39   1.395379 A    
N1    Ni1   1.839539 S    
C7    H6    1.076727 S    
C3    N3    1.331306 A    
N10   N16   1.377245 A    
C19   H13   1.072223 S    
C17   C24   1.385300 A    
C20   N16   1.337335 A    
C39   H23   1.081614 S    
C38   H22   1.082373 S    
C5    C11   1.381637 A    
C25   H16   1.082600 S    
C1    N1    1.341806 A    
C28   C29   1.396131 A    
C35   C36   1.416928 A    
C16   N12   1.340154 A    
H15   C30   1.082409 S    
C66   H42   1.112597 S    
C45   C46   1.383173 A    
C14   H9    1.076135 S    
N12   Ni4   1.840706 S    
C22   C32   1.474385 S    
C49   C50   1.500375 S    
C46   C47   1.402377 A    
C37   C38   1.397292 A    
C47   C48   1.395657 A    
C5    H4    1.077060 S    
C33   C42   1.488026 S    
C4    N4    1.340166 A    
C57   H35   1.111724 S    
C19   C21   1.392989 A    
N4    Ni4   1.840762 S    
N20   O8    1.300538 A    
C2    N19   1.429199 S    
N14   Ni1   1.848979 S    
C20   H14   1.077854 S    
C40   C41   1.399158 A    
C5    N5    1.340735 A    
C23   C47   1.452969 S    
N15   Ni4   1.844489 S    
N11   N14   1.372609 A    
C18   H12   1.080438 S    
C50   H30   1.109690 S    
C62   H39   1.080158 S    
C4    C12   1.388985 A    
C65   H40   1.111572 S    
N17   O1    1.301225 A    
N19   O6    1.300876 A    
N4    N6    1.377245 A    
N3    N5    1.377244 A    
C16   C24   1.389722 A    
C33   C34   1.397090 A    
N3    Ni3   1.844490 S    
C6    N6    1.332742 A    
C3    H2    1.079243 S    
C10   C44   1.468725 S    
C59   C66   1.493564 S    
C25   C30   1.396583 A    
C28   H17   1.083287 S    
C8    N8    1.332430 A    
C63   C64   1.400634 A    
C32   C33   1.412465 A    
C56   C57   1.496026 S    
C25   C26   1.405440 A    
C45   H26   1.079270 S    
C3    C11   1.374435 A    
C54   C55   1.409095 A    
C13   N9    1.330543 A    
C46   H27   1.080411 S    
C16   N17   1.430052 S    
C58   H36   1.108964 S    
C7    N7    1.333135 A    
C51   C52   1.404447 A    
C57   H34   1.112414 S    
N20   O7    1.302312 A    
C27   C28   1.406458 A    
C2    N2    1.341475 A    
C43   C44   1.400648 A    
C37   C42   1.408260 A    
C1    C9    1.392912 A    
N18   O4    1.300417 A    
C54   H33   1.080789 S    
C8    C9    1.382507 A    
C52   C53   1.408190 A    
C66   H41   1.111742 S    
C51   C56   1.380844 A    
C58   H37   1.111917 S    
C44   C45   1.404777 A    
C60   C61   1.405348 A    
C50   H31   1.112845 S    
C65   C66   1.507493 S    
N17   O2    1.301060 A    
