data_mof_unit_45649.cif
_audit_creation_date              2012-12-10T17:07:08-0500
_audit_creation_method            fapswitch 2.2
_symmetry_space_group_name_H-M    P1
_symmetry_Int_Tables_number       1
_space_group_crystal_system       triclinic
_cell_length_a                    17.287277
_cell_length_b                    11.097019
_cell_length_c                    10.157476
_cell_angle_alpha                 112.323078
_cell_angle_beta                  95.891256
_cell_angle_gamma                 94.593919
_cell_volume                      1777.95182568

loop_
_atom_site_label
_atom_site_type_symbol
_atom_type_description
_atom_site_fract_x
_atom_site_fract_y
_atom_site_fract_z
_atom_type_partial_charge
C1    C     C_R   0.493055 0.253994 0.439485 0.710507
C2    C     C_R   0.506676 0.745999 0.560522 0.709996
C3    C     C_2   0.480817 0.111241 0.403606 0.219367
C4    C     C_2   0.518075 0.888781 0.596365 0.219359
C5    C     C_2   0.516830 0.062060 0.494168 0.149264
C6    C     C_2   0.482177 0.937251 0.505009 0.149788
C7    C     C_2   0.505979 0.512612 0.080766 0.317529
C8    C     C_2   0.493864 0.487535 0.919220 0.320748
C9    C     C_R   0.352183 0.508469 0.518274 0.871455
C10   C     C_R   0.647852 0.492195 0.481905 0.874924
C11   C     C_R   0.268864 0.529728 0.526910 -0.194885
C12   C     C_R   0.731356 0.472832 0.473588 -0.194297
C13   C     C_R   0.227679 0.568702 0.424845 0.326650
C14   C     C_R   0.772427 0.430158 0.572449 0.326697
C15   C     C_R   0.146644 0.576474 0.422638 0.060517
C16   C     C_R   0.853623 0.423405 0.574616 0.056640
C17   C     C_R   0.109651 0.563145 0.534533 -0.011619
C18   C     C_R   0.890921 0.442635 0.465795 -0.014380
C19   C     C_R   0.152930 0.541847 0.647599 0.088662
C20   C     C_R   0.847831 0.468705 0.355975 0.091870
C21   C     C_R   0.231217 0.515296 0.637691 0.351050
C22   C     C_R   0.769442 0.493839 0.366648 0.351035
C23   C     C_2   0.023443 0.561083 0.526765 0.378052
C24   C     C_2   0.977132 0.444799 0.473036 0.381755
Cu1   Cu    Cu3+1 0.513640 0.521550 0.643210 0.970734
Cu2   Cu    Cu3+1 0.486360 0.478450 0.356790 0.970021
N1    N     N_2   0.465840 0.446060 0.141630 -0.141897
N2    N     N_2   0.534160 0.553940 0.858370 -0.141682
O1    O     O_R   0.507280 0.332200 0.576490 -0.586860
O2    O     O_R   0.492720 0.667800 0.423510 -0.587358
O3    O     O_R   0.484240 0.295800 0.334620 -0.587207
O4    O     O_R   0.515760 0.704200 0.665380 -0.587159
O5    O     O_R   0.399260 0.520290 0.634950 -0.544727
O6    O     O_R   0.600740 0.479710 0.365050 -0.546611
O7    O     O_R   0.376220 0.483890 0.393080 -0.536592
O8    O     O_R   0.623780 0.516110 0.606920 -0.537400
O9    O     O_3   0.267578 0.597133 0.327092 -0.713234
H1    H     H_    0.248466 0.675338 0.316737 0.324715
O10   O     O_3   0.732178 0.397123 0.667023 -0.714192
H2    H     H_    0.751922 0.318499 0.675203 0.325061
O11   O     O_3   0.728979 0.540058 0.275168 -0.741769
H3    H     H_    0.766562 0.591031 0.242458 0.331347
O12   O     O_3   0.272346 0.475647 0.734640 -0.736959
H4    H     H_    0.235239 0.432222 0.775950 0.331958
O13   O     O_3   0.010160 0.328970 0.428191 -0.755759
H5    H     H_    0.966889 0.255047 0.391347 0.324269
O14   O     O_3   0.990484 0.676971 0.571876 -0.757687
H6    H     H_    0.033784 0.750827 0.608007 0.324777
C25   C     C_3   0.116511 0.549537 0.779267 -0.867033
H7    H     H_    0.069693 0.614327 0.797522 0.237882
H8    H     H_    0.092187 0.449672 0.767207 0.242909
H9    H     H_    0.160648 0.594340 0.877634 0.246582
C26   C     C_3   0.884794 0.467156 0.226833 -0.863797
H10   H     H_    0.915706 0.566120 0.249649 0.246681
H11   H     H_    0.926361 0.393098 0.199018 0.234825
H12   H     H_    0.840205 0.436941 0.129532 0.247127
C27   C     C_3   0.901628 0.402217 0.695679 -0.822627
H13   H     H_    0.868504 0.402918 0.783608 0.242013
H14   H     H_    0.926140 0.307682 0.652708 0.234669
H15   H     H_    0.950117 0.483632 0.746956 0.239604
C28   C     C_3   0.098382 0.591813 0.298050 -0.826241
H16   H     H_    0.131698 0.590208 0.210080 0.242726
H17   H     H_    0.051286 0.507917 0.248140 0.240826
H18   H     H_    0.072122 0.684937 0.337044 0.233384
C29   C     C_3   0.401874 0.868860 0.421966 -0.750149
H19   H     H_    0.360024 0.941877 0.433836 0.238941
H20   H     H_    0.406261 0.813469 0.306730 0.284784
H21   H     H_    0.375357 0.800014 0.465409 0.212598
C30   C     C_3   0.597531 0.129416 0.575971 -0.750058
H22   H     H_    0.638862 0.055665 0.564497 0.238078
H23   H     H_    0.624263 0.196903 0.531059 0.213215
H24   H     H_    0.593685 0.186047 0.691181 0.285576
O15   O     O_3   0.568851 0.970981 0.717575 -0.751399
H25   H     H_    0.594144 0.917624 0.764450 0.332872
O16   O     O_3   0.429180 0.029964 0.283207 -0.751673
H26   H     H_    0.403980 0.083925 0.237041 0.332604
C31   C     C_3   0.432064 0.376015 0.822757 -0.727131
H27   H     H_    0.451489 0.280703 0.813250 0.193300
H28   H     H_    0.374496 0.391624 0.857662 0.219834
H29   H     H_    0.416735 0.365071 0.713644 0.283978
C32   C     C_3   0.567628 0.624279 0.177208 -0.727422
H30   H     H_    0.625118 0.608861 0.142049 0.221926
H31   H     H_    0.548058 0.719529 0.186802 0.193271
H32   H     H_    0.583139 0.634950 0.286194 0.286326
C33   C     C_3   0.601572 0.653980 0.922627 -0.497213
H33   H     H_    0.618955 0.690393 0.841481 0.229456
H34   H     H_    0.587468 0.743259 0.007580 0.168347
H35   H     H_    0.653778 0.611499 0.949742 0.190344
C34   C     C_3   0.398439 0.346011 0.077308 -0.494676
H36   H     H_    0.380998 0.309661 0.158470 0.229605
H37   H     H_    0.346253 0.388446 0.050041 0.190561
H38   H     H_    0.412591 0.256702 0.992472 0.168100

loop_
_geom_bond_atom_site_label_1
_geom_bond_atom_site_label_2
_ccdc_geom_bond_type
C30   H24   S    
O11   H3    S    
O16   H26   S    
C32   H30   S    
C7    C8    S    
C26   H10   S    
Cu1   N2    S    
Cu2   N1    S    
C17   C23   S    
C18   C24   S    
C24   O13   S    
C19   C21   A    
C5    C6    S    
C27   H14   S    
C22   O11   S    
C12   C22   A    
C1    O3    A    
C7    N1    D    
C2    O4    A    
O15   H25   S    
C30   H23   S    
C5    C30   S    
C14   O10   S    
C21   O12   S    
Cu2   O6    S    
C6    C29   S    
C25   H8    S    
C23   C24   D    
C34   H37   S    
C3    O16   S    
C13   O9    S    
C31   H27   S    
C29   H21   S    
Cu1   O4    S    
C31   H28   S    
Cu2   O3    S    
C9    O5    A    
C28   H16   S    
C1    O1    A    
C32   H31   S    
C26   H11   S    
Cu1   O1    S    
C23   O14   S    
C33   H34   S    
C4    C6    D    
O10   H2    S    
C27   H15   S    
C29   H20   S    
Cu1   Cu2   S    
C33   H33   S    
C11   C21   A    
C1    C3    S    
C28   H18   S    
C2    C4    S    
O12   H4    S    
O9    H1    S    
C19   C25   S    
O14   H6    S    
C25   H9    S    
C28   H17   S    
C15   C28   S    
C10   O6    A    
C34   H38   S    
C9    C11   S    
C4    O15   S    
C10   C12   S    
C7    C32   S    
C12   C14   A    
Cu2   O2    S    
C13   C15   A    
C8    C31   S    
C8    N2    D    
C25   H7    S    
C14   C16   A    
C32   H32   S    
C33   H35   S    
C15   C17   A    
C20   C22   A    
C20   C26   S    
C3    C5    D    
C2    O2    A    
C11   C13   A    
C27   H13   S    
C31   H29   S    
C17   C19   A    
N1    C34   S    
C18   C20   A    
C16   C27   S    
C30   H22   S    
C26   H12   S    
Cu1   O8    S    
O13   H5    S    
Cu2   O7    S    
C16   C18   A    
C29   H19   S    
N2    C33   S    
C9    O7    A    
C10   O8    A    
C34   H36   S    
Cu1   O5    S    
