data_mof_unit_60673.cif
_audit_creation_date              2013-03-05T16:47:47-0500
_audit_creation_method            fapswitch 2.2
_symmetry_space_group_name_H-M    P1
_symmetry_Int_Tables_number       1
_space_group_crystal_system       triclinic
_cell_length_a                    22.261614
_cell_length_b                    22.258899
_cell_length_c                    22.204948
_cell_angle_alpha                 108.337026
_cell_angle_beta                  110.147151
_cell_angle_gamma                 110.144785
_cell_volume                      8445.41973841

loop_
_atom_site_label
_atom_site_type_symbol
_atom_site_description
_atom_site_fract_x
_atom_site_fract_y
_atom_site_fract_z
_atom_type_partial_charge
Zn1   Zn    Zn3+2 0.438420 0.731820 0.293400 0.998657
Zn2   Zn    Zn3+2 0.561580 0.268180 0.706600 0.999764
Zn3   Zn    Zn3+2 0.561600 0.855040 0.293450 0.972265
Zn4   Zn    Zn3+2 0.438400 0.144960 0.706550 0.972401
Zn5   Zn    Zn3+2 0.438510 0.706680 0.145100 0.994202
Zn6   Zn    Zn3+2 0.561490 0.293320 0.854900 0.991098
Zn7   Zn    Zn3+2 0.561670 0.706730 0.268320 0.978327
Zn8   Zn    Zn3+2 0.438330 0.293270 0.731680 0.977390
O1    O     O_3   0.500050 0.750060 0.250070 -0.489727
O2    O     O_3   0.499950 0.249940 0.749930 -0.489203
O3    O     O_R   0.664480 0.780430 0.323540 -0.632966
O4    O     O_R   0.335520 0.219570 0.676460 -0.633880
O5    O     O_R   0.335610 0.676590 0.219700 -0.629076
O6    O     O_R   0.664390 0.323410 0.780300 -0.627700
O7    O     O_R   0.543050 0.908950 0.365840 -0.646348
O8    O     O_R   0.456950 0.091050 0.634160 -0.646346
O9    O     O_R   0.457060 0.634290 0.091200 -0.631412
O10   O     O_R   0.542940 0.365710 0.908800 -0.632462
O11   O     O_R   0.543140 0.884190 0.219790 -0.637562
O12   O     O_R   0.456860 0.115810 0.780210 -0.637383
O13   O     O_R   0.543170 0.659080 0.323490 -0.638285
O14   O     O_R   0.456830 0.340920 0.676510 -0.638451
O15   O     O_R   0.456990 0.780350 0.115960 -0.628783
O16   O     O_R   0.543010 0.219650 0.884040 -0.629591
O17   O     O_R   0.456900 0.676640 0.341050 -0.620152
O18   O     O_R   0.543100 0.323360 0.658950 -0.619779
O19   O     O_R   0.456830 0.822700 0.365800 -0.627060
O20   O     O_R   0.543170 0.177300 0.634200 -0.626878
O21   O     O_R   0.543260 0.634320 0.177440 -0.645498
O22   O     O_R   0.456740 0.365680 0.822560 -0.645590
O23   O     O_R   0.664430 0.884240 0.341140 -0.637584
O24   O     O_R   0.335570 0.115760 0.658860 -0.637144
O25   O     O_R   0.335680 0.659000 0.115900 -0.619240
O26   O     O_R   0.664320 0.341000 0.884100 -0.622593
C1    C     C_R   0.699635 0.850003 0.349952 0.823602
C2    C     C_R   0.300365 0.149997 0.650048 0.823411
C3    C     C_R   0.300399 0.650075 0.150029 0.814989
C4    C     C_R   0.699606 0.349889 0.849966 0.814399
C5    C     C_R   0.499200 0.890268 0.389504 0.789976
C6    C     C_R   0.500794 0.109730 0.610490 0.790053
C7    C     C_R   0.498838 0.608768 0.109575 0.796914
C8    C     C_R   0.501130 0.391208 0.890420 0.797011
C9    C     C_R   0.499987 0.849837 0.150152 0.823480
C10   C     C_R   0.500013 0.150163 0.849848 0.823387
C11   C     C_R   0.500010 0.650322 0.349809 0.816891
C12   C     C_R   0.499990 0.349677 0.650191 0.817331
C13   C     C_3   0.455057 0.426968 0.452030 -0.275008
C14   C     C_3   0.544942 0.573031 0.547968 -0.274868
C15   C     C_3   0.432040 0.485562 0.461945 0.396158
C16   C     C_3   0.567959 0.514436 0.538054 0.395871
H1    H     H_    0.417211 0.367180 0.412798 0.178815
H2    H     H_    0.582787 0.632819 0.587201 0.178854
H3    H     H_    0.454250 0.537100 0.583488 0.180514
H4    H     H_    0.545748 0.462899 0.416511 0.180662
C17   C     C_1   0.499948 0.610681 0.389430 -0.103768
C18   C     C_1   0.500051 0.389319 0.610569 -0.103648
C19   C     C_3   0.524459 0.479084 0.453598 -0.270525
C20   C     C_3   0.475540 0.520915 0.546401 -0.270596
C21   C     C_3   0.499732 0.536721 0.463149 0.039760
C22   C     C_3   0.500267 0.463278 0.536850 0.039817
C23   C     C_1   0.499856 0.577301 0.422723 0.049721
C24   C     C_1   0.500143 0.422698 0.577276 0.049747
C25   C     C_3   0.975460 0.449532 0.020115 -0.121793
C26   C     C_3   0.024577 0.549637 0.979762 -0.107076
C27   C     C_3   0.024122 0.452314 0.984111 -0.141772
C28   C     C_3   0.975930 0.546863 0.015791 -0.153012
H5    H     H_    0.044929 0.413950 0.971677 0.164114
H6    H     H_    0.955109 0.585197 0.028321 0.173072
H7    H     H_    0.954340 0.407943 0.036269 0.180977
H8    H     H_    0.045732 0.591216 0.963607 0.183125
H9    H     H_    0.952293 0.437142 0.866998 0.172482
H10   H     H_    0.048264 0.562079 0.132935 0.143399
C29   C     C_1   0.220945 0.609993 0.109987 -0.117292
C30   C     C_1   0.779070 0.389674 0.889956 -0.117555
C31   C     C_3   0.025630 0.533608 0.072606 -0.136218
C32   C     C_3   0.974426 0.465556 0.927263 -0.107267
C33   C     C_3   0.072968 0.535751 0.035944 0.162486
C34   C     C_3   0.927062 0.463417 0.963913 0.146555
C35   C     C_1   0.154132 0.576358 0.076462 -0.005870
C36   C     C_1   0.845888 0.423030 0.923420 -0.004786
C37   C     C_R   0.255922 0.493375 0.961846 -0.217934
C38   C     C_R   0.744816 0.508297 0.039289 -0.193715
H11   H     H_    0.221307 0.478519 0.985020 0.163961
H12   H     H_    0.779657 0.523650 0.016459 0.168904
C39   C     C_R   0.321192 0.490315 0.984816 -0.194231
C40   C     C_R   0.678875 0.510108 0.015421 -0.208052
H13   H     H_    0.336235 0.472959 0.025384 0.131692
H14   H     H_    0.663554 0.527037 0.974532 0.135133
C41   C     C_R   0.367032 0.510011 0.955775 0.153025
C42   C     C_R   0.632931 0.490098 0.044277 0.153179
C43   C     C_R   0.346262 0.531816 0.902861 -0.218716
C44   C     C_R   0.654080 0.468907 0.097647 -0.223505
H15   H     H_    0.380930 0.547004 0.879806 0.157947
H16   H     H_    0.619337 0.453504 0.120575 0.160316
C45   C     C_R   0.281041 0.534868 0.879989 -0.207000
C46   C     C_R   0.719955 0.467094 0.121411 -0.221666
H17   H     H_    0.266172 0.552316 0.839513 0.184774
H18   H     H_    0.735194 0.450346 0.162424 0.188050
C47   C     C_R   0.235537 0.515507 0.909257 0.483466
C48   C     C_R   0.765761 0.487101 0.092586 0.548837
C49   C     C_R   0.440272 0.456437 0.927674 -0.250999
C50   C     C_R   0.559574 0.543449 0.072289 -0.248910
H19   H     H_    0.393088 0.421631 0.871905 0.173710
H20   H     H_    0.606771 0.578285 0.128050 0.175297
C51   C     C_R   0.502709 0.448340 0.947018 -0.061665
C52   C     C_R   0.497170 0.551567 0.052954 -0.062094
C53   C     C_R   0.563552 0.492894 0.020179 0.018111
C54   C     C_R   0.436301 0.507001 0.979796 0.015264
C55   C     C_3   0.024931 0.999178 0.563931 -0.160085
C56   C     C_3   0.975069 0.000821 0.436068 -0.158549
C57   C     C_3   0.975734 0.031968 0.540517 -0.161226
C58   C     C_3   0.024266 0.968031 0.459483 -0.158477
H21   H     H_    0.954776 0.057739 0.573305 0.141044
H22   H     H_    0.045224 0.942260 0.426694 0.143266
H23   H     H_    0.046438 0.999003 0.616977 0.142312
H24   H     H_    0.953562 0.000996 0.383022 0.142888
H25   H     H_    0.046650 0.127564 0.525356 0.146711
H26   H     H_    0.953350 0.872435 0.474644 0.148207
C59   C     C_1   0.779091 0.889867 0.389697 -0.134570
C60   C     C_1   0.220909 0.110132 0.610302 -0.135428
C61   C     C_3   0.974954 0.930260 0.486362 -0.151406
C62   C     C_3   0.025046 0.069739 0.513637 -0.153678
C63   C     C_3   0.927054 0.963698 0.463596 0.190914
C64   C     C_3   0.072946 0.036301 0.536404 0.190528
C65   C     C_1   0.845901 0.923258 0.423080 -0.071646
C66   C     C_1   0.154099 0.076742 0.576919 -0.072491
C67   C     C_3   0.461478 0.033667 0.009058 -0.162392
C68   C     C_3   0.538516 0.966328 0.990937 -0.162421
C69   C     C_3   0.429687 0.949606 0.974145 -0.153150
C70   C     C_3   0.570307 0.050389 0.025850 -0.153558
H27   H     H_    0.371885 0.907695 0.953368 0.148414
H28   H     H_    0.628109 0.092300 0.046627 0.147901
H29   H     H_    0.429819 0.061835 0.016035 0.141340
H30   H     H_    0.570175 0.938160 0.983960 0.141402
H31   H     H_    0.442249 0.915095 0.868509 0.144754
H32   H     H_    0.557745 0.084900 0.131486 0.144741
C71   C     C_1   0.499854 0.889412 0.110268 -0.132833
C72   C     C_1   0.500144 0.110586 0.889731 -0.133514
C73   C     C_3   0.531691 0.046857 0.071896 -0.155963
C74   C     C_3   0.468303 0.953138 0.928100 -0.155977
C75   C     C_3   0.499901 0.963436 0.036344 0.190118
C76   C     C_3   0.500093 0.036559 0.963652 0.190209
C77   C     C_1   0.499834 0.922782 0.076850 -0.070125
C78   C     C_1   0.500162 0.077215 0.923147 -0.070501
H33   H     H_    0.166030 0.697864 0.227335 0.121788
H34   H     H_    0.833947 0.302049 0.772742 0.124596
C79   C     C_R   0.263782 0.791518 0.254253 -0.123964
C80   C     C_R   0.736180 0.208374 0.745766 -0.127635
H35   H     H_    0.245004 0.778710 0.197531 0.126233
H36   H     H_    0.754947 0.221141 0.802476 0.125684
C81   C     C_R   0.332646 0.853536 0.310603 -0.129418
C82   C     C_R   0.667317 0.146375 0.689391 -0.129091
H37   H     H_    0.366508 0.888479 0.296783 0.105423
H38   H     H_    0.633439 0.111405 0.703180 0.105255
C83   C     C_R   0.357785 0.870090 0.384377 0.131748
C84   C     C_R   0.642196 0.129875 0.615634 0.132141
C85   C     C_R   0.312213 0.824440 0.400841 -0.136028
C86   C     C_R   0.687783 0.175558 0.599207 -0.138237
H39   H     H_    0.330431 0.836316 0.457293 0.136215
H40   H     H_    0.669577 0.163721 0.542767 0.136611
C87   C     C_R   0.243323 0.762507 0.344284 -0.115858
C88   C     C_R   0.756673 0.237473 0.655788 -0.113753
H41   H     H_    0.208683 0.727230 0.357227 0.143618
H42   H     H_    0.791325 0.272779 0.642876 0.146931
C89   C     C_R   0.219235 0.745935 0.271050 -0.091544
C90   C     C_R   0.780743 0.253992 0.729008 -0.091317
C91   C     C_R   0.434636 0.988795 0.500839 -0.244154
C92   C     C_R   0.565347 0.011199 0.499148 -0.244397
H43   H     H_    0.383668 0.981195 0.500479 0.159757
H44   H     H_    0.616316 0.018799 0.499512 0.159500
C93   C     C_R   0.502058 0.053603 0.555781 -0.047125
C94   C     C_R   0.497925 0.946391 0.444206 -0.046976
C95   C     C_R   0.568518 0.064815 0.555737 0.002744
C96   C     C_R   0.431463 0.935172 0.444253 0.002613
N1    N     N_R   0.356036 0.468578 0.420229 0.211641
O27   O     O_R   0.303515 0.423895 0.424237 -0.373560
O28   O     O_R   0.340137 0.497676 0.379000 -0.381999
N2    N     N_R   0.643963 0.531420 0.579770 0.211918
O29   O     O_R   0.696484 0.576105 0.575762 -0.372447
O30   O     O_R   0.659862 0.502323 0.620998 -0.380569
S1    S     S_3+6 0.153102 0.518772 0.880340 0.007464
O31   O     O_2   0.166842 0.588016 0.937464 -0.279739
O32   O     O_2   0.128674 0.518394 0.808046 -0.290379
O33   O     O_3   0.085869 0.446098 0.871431 -0.584902
H45   H     H_    0.080081 0.402606 0.833891 0.345492
S2    S     S_3+6 0.849585 0.486524 0.123376 -0.000566
O34   O     O_2   0.871675 0.484513 0.194490 -0.310225
O35   O     O_2   0.839532 0.419848 0.066158 -0.303035
O36   O     O_3   0.916194 0.562567 0.136004 -0.595389
H46   H     H_    0.962849 0.574945 0.177177 0.375066

loop_
_geom_bond_atom_site_label_1
_geom_bond_atom_site_label_2
_geom_bond_distance
_ccdc_geom_bond_type
C28   H6    1.110047 S    
C25   C27   1.548571 S    
Zn7   O21   1.940822 S    
C56   H24   1.110100 S    
C10   C72   1.432199 S    
C83   C85   1.405185 A    
C80   C90   1.397093 A    
C26   C33   1.535746 S    
C1    C59   1.430316 S    
H4    C19   1.110116 S    
C58   H22   1.110109 S    
N2    O29   1.300231 A    
C67   H29   1.110093 S    
C13   C15   1.539295 S    
H33   C89   1.082386 S    
S1    O31   1.501974 D    
Zn7   O3    1.909953 S    
C93   C95   1.413531 A    
C27   C32   1.549481 S    
C25   C31   1.548974 S    
O24   C2    1.277821 A    
C79   H35   1.082433 S    
C80   H36   1.082430 S    
C42   C53   1.481035 S    
C58   C64   1.535731 S    
H10   C31   1.109493 S    
H9    C32   1.110023 S    
C50   H20   1.084819 S    
C45   C47   1.401168 A    
C63   C65   1.460868 S    
C69   C75   1.536033 S    
O20   C6    1.269479 A    
O17   C11   1.277633 A    
C20   C22   1.545835 S    
C17   C23   1.201733 T    
C44   C46   1.397054 A    
O15   C9    1.275018 A    
O33   H45   0.990440 S    
C22   C24   1.460080 S    
O23   C1    1.277820 A    
C79   C89   1.397104 A    
O10   C8    1.266065 A    
C87   H41   1.082320 S    
C13   C22   1.545816 S    
C88   C90   1.397746 A    
O3    C1    1.277583 A    
C82   C84   1.406793 A    
C94   C96   1.413572 A    
C27   H5    1.110048 S    
C46   H18   1.082266 S    
Zn8   O14   1.912991 S    
Zn3   O11   1.911415 S    
C26   H8    1.109979 S    
O4    C2    1.277585 A    
C68   C75   1.536068 S    
O13   C11   1.277577 A    
C37   C39   1.398414 A    
O21   C7    1.272411 A    
C49   C54   1.390483 A    
C92   H44   1.084775 S    
C71   C77   1.203806 T    
Zn2   O6    1.908838 S    
C49   H19   1.084816 S    
C30   C36   1.202818 T    
C57   C62   1.549055 S    
C86   H40   1.083110 S    
C91   H43   1.084775 S    
C62   C64   1.535793 S    
C92   C95   1.394809 A    
C67   C73   1.549198 S    
H32   C73   1.110106 S    
Zn6   O10   1.945423 S    
C70   C73   1.549202 S    
C37   H11   1.082869 S    
O11   C9    1.274920 A    
C88   H42   1.082316 S    
C39   H13   1.083109 S    
C49   C51   1.399610 A    
H31   C74   1.110106 S    
C28   C34   1.535936 S    
C84   C95   1.485137 S    
C21   C23   1.460078 S    
O9    C7    1.265926 A    
C27   C33   1.535650 S    
C7    C52   1.459875 S    
C40   H14   1.083123 S    
C57   C63   1.535730 S    
C25   H7    1.109948 S    
Zn1   O1    1.935027 S    
N1    O28   1.300251 A    
C40   C42   1.404372 A    
S1    O32   1.503255 D    
O19   C5    1.269448 A    
C55   H23   1.110099 S    
C55   C57   1.549076 S    
C13   H1    1.110162 S    
C37   C47   1.401128 A    
Zn7   O13   1.912990 S    
O25   C3    1.275892 A    
C15   C20   1.539312 S    
Zn6   O26   1.912640 S    
Zn5   O25   1.912638 S    
C67   C76   1.536067 S    
C26   C28   1.548729 S    
Zn4   O8    1.944013 S    
C70   H28   1.110101 S    
H25   C62   1.110113 S    
C67   C69   1.549226 S    
Zn5   O1    1.927460 S    
C5    C94   1.459504 S    
Zn3   O1    1.932570 S    
C68   H30   1.110093 S    
C56   C63   1.535738 S    
C43   H15   1.083217 S    
C51   C53   1.415109 A    
C42   C44   1.403169 A    
N1    O27   1.300227 A    
Zn5   O15   1.913960 S    
C28   C31   1.549263 S    
C14   H2    1.110162 S    
Zn8   O4    1.909951 S    
Zn6   O16   1.913961 S    
C44   H16   1.083236 S    
C26   C32   1.549055 S    
C33   C35   1.461078 S    
C50   C53   1.390317 A    
C57   H21   1.110112 S    
C73   C75   1.536113 S    
Zn3   O23   1.912146 S    
C14   C16   1.539295 S    
C31   C33   1.535013 S    
O7    C5    1.270116 A    
Zn4   O24   1.912148 S    
C60   C66   1.202679 T    
O8    C6    1.270093 A    
C91   C96   1.394841 A    
C59   C65   1.202679 T    
C83   C96   1.485201 S    
Zn8   O2    1.936608 S    
O14   C12   1.277576 A    
C82   H38   1.083089 S    
O12   C10   1.274917 A    
C38   H12   1.082895 S    
O16   C10   1.275023 A    
C18   C24   1.201733 T    
Zn1   O5    1.908839 S    
S2    O35   1.501946 D    
O6    C4    1.275781 A    
Zn2   O2    1.935027 S    
C85   C87   1.399013 A    
C15   N1    1.457112 S    
C76   C78   1.462868 S    
Zn3   O7    1.944012 S    
C14   C21   1.545816 S    
C64   C66   1.460868 S    
C4    C30   1.430453 S    
S1    O33   1.680205 S    
Zn7   O1    1.936606 S    
C3    C29   1.430275 S    
C45   H17   1.082322 S    
C39   C41   1.404450 A    
C16   N2    1.457114 S    
O26   C4    1.275976 A    
C70   C76   1.536032 S    
C38   C48   1.401174 A    
C80   C82   1.398389 A    
C32   C34   1.535312 S    
C29   C35   1.202706 T    
C68   C70   1.549226 S    
Zn2   O18   1.913956 S    
Zn6   O2    1.927460 S    
N2    O30   1.300244 A    
H3    C20   1.110116 S    
Zn1   O17   1.913956 S    
C55   C64   1.535739 S    
C14   C20   1.561098 S    
C74   C76   1.536115 S    
C81   C83   1.406803 A    
C15   C21   1.529510 S    
C91   C93   1.400725 A    
C48   S2    1.758693 S    
C16   C22   1.529513 S    
S2    O36   1.681830 S    
C75   C77   1.462864 S    
C68   C74   1.549198 S    
Zn8   O22   1.940820 S    
C58   C61   1.549055 S    
C72   C78   1.203805 T    
C56   C62   1.549066 S    
C38   C40   1.398459 A    
C16   C19   1.539311 S    
C55   C61   1.549066 S    
C69   C74   1.549205 S    
C52   C54   1.415252 A    
O5    C3    1.275771 A    
C79   C81   1.398413 A    
C46   C48   1.401417 A    
C41   C54   1.481180 S    
C84   C86   1.405163 A    
C9    C71   1.432193 S    
C34   C36   1.461258 S    
C81   H37   1.083088 S    
H34   C90   1.082359 S    
O36   H46   0.990346 S    
C2    C60   1.430316 S    
C8    C51   1.459823 S    
C56   C58   1.549076 S    
C61   C63   1.535795 S    
C19   C21   1.545835 S    
C86   C88   1.398996 A    
C43   C45   1.397243 A    
Zn4   O12   1.911418 S    
C92   C94   1.400712 A    
Zn5   O9    1.945423 S    
C11   C17   1.428659 S    
C85   H39   1.083108 S    
C41   C43   1.403226 A    
C50   C52   1.399191 A    
C12   C18   1.428659 S    
C13   C19   1.561097 S    
Zn1   O19   1.942523 S    
O22   C8    1.272274 A    
C47   S1    1.759217 S    
Zn2   O20   1.942521 S    
S2    O34   1.504003 D    
O18   C12   1.277633 A    
Zn4   O2    1.932568 S    
H26   C61   1.110112 S    
C6    C93   1.459519 S    
C87   C89   1.397742 A    
C69   H27   1.110099 S    
C25   C34   1.536081 S    
