data_mof_unit_13727.cif
_audit_creation_date              2012-12-10T17:36:20-0500
_audit_creation_method            fapswitch 2.2
_symmetry_space_group_name_H-M    P1
_symmetry_Int_Tables_number       1
_space_group_crystal_system       triclinic
_cell_length_a                    12.402232
_cell_length_b                    13.280744
_cell_length_c                    15.853483
_cell_angle_alpha                 76.768937
_cell_angle_beta                  101.174275
_cell_angle_gamma                 117.132888
_cell_volume                      2250.10883862

loop_
_atom_site_label
_atom_site_type_symbol
_atom_type_description
_atom_site_fract_x
_atom_site_fract_y
_atom_site_fract_z
_atom_type_partial_charge
C1    C     C_R   0.854798 0.286800 0.509369 0.756037
C2    C     C_3   0.053635 0.418943 0.072607 -0.373569
C3    C     C_3   0.999866 0.499861 0.082863 0.327576
C4    C     C_3   0.077646 0.622293 0.037089 -0.372904
C5    C     C_3   0.077485 0.622120 0.939352 -0.379437
C6    C     C_1   0.000010 0.500037 0.175106 -0.114619
C7    C     C_1   0.999525 0.499440 0.824940 -0.117657
C8    C     C_1   0.999580 0.499450 0.749287 -0.175829
C9    C     C_R   0.281076 0.019688 0.380765 -0.193286
C10   C     C_R   0.227335 0.834737 0.471795 -0.037870
C11   C     C_R   0.810113 0.089198 0.582073 -0.194950
C12   C     C_R   0.999739 0.499576 0.659504 0.811329
C13   C     C_R   0.727490 0.977799 0.609095 -0.144197
C14   C     C_R   0.605022 0.940383 0.577846 -0.161658
C15   C     C_R   0.563016 0.012540 0.514346 0.066820
C16   C     C_R   0.649822 0.123381 0.481768 0.084701
C17   C     C_R   0.438202 0.978149 0.481342 0.065040
C18   C     C_R   0.403499 0.052619 0.414359 0.169675
C19   C     C_R   0.491623 0.157148 0.378953 -0.240241
C20   C     C_R   0.613095 0.190728 0.410511 -0.197252
C21   C     C_R   0.346709 0.870743 0.511094 -0.245795
C22   C     C_R   0.193361 0.910676 0.408852 -0.189403
C23   C     C_R   0.144876 0.713111 0.488047 0.808510
C24   C     C_R   0.771800 0.164031 0.520974 -0.094277
C25   C     C_R   0.336500 0.316367 0.631081 -0.297274
C26   C     C_R   0.756940 0.637406 0.377230 0.085370
C27   C     C_R   0.652362 0.650245 0.339858 -0.263796
C28   C     C_R   0.546522 0.589325 0.381335 -0.160061
C29   C     C_R   0.546002 0.521508 0.464355 0.011648
C30   C     C_R   0.651048 0.501190 0.494815 0.291446
C31   C     C_R   0.443044 0.467068 0.515074 -0.086150
C32   C     C_R   0.439023 0.377512 0.584654 0.167112
C33   C     C_R   0.538932 0.351737 0.609014 -0.268497
C34   C     C_R   0.000126 0.500248 0.340511 0.845327
C35   C     C_R   0.644338 0.415179 0.567203 -0.177316
C36   C     C_R   0.346796 0.501261 0.503010 0.127570
C37   C     C_R   0.239600 0.346419 0.610882 0.047931
C38   C     C_3   0.053474 0.418760 0.974868 -0.380443
C39   C     C_3   0.868019 0.457990 0.939257 -0.374282
C40   C     C_3   0.868171 0.458164 0.037000 -0.381815
C41   C     C_1   0.000093 0.500162 0.250750 -0.157531
C42   C     C_3   0.999610 0.499563 0.917191 0.331222
Cu1   Cu    Cu3+1 0.098280 0.475420 0.519630 0.966444
Cu2   Cu    Cu3+1 0.901720 0.524580 0.480370 0.923895
H1    H     H_    0.999168 0.330205 0.104911 0.159926
H2    H     H_    0.148246 0.446935 0.960322 0.161882
H3    H     H_    0.148484 0.447216 0.104955 0.165158
H4    H     H_    0.040735 0.682192 0.043433 0.159507
H5    H     H_    0.100748 0.883734 0.378053 0.144882
H6    H     H_    0.466812 0.212534 0.325421 0.142401
H7    H     H_    0.254152 0.076387 0.329950 0.130708
H8    H     H_    0.365880 0.810590 0.562404 0.158181
H9    H     H_    0.903224 0.118329 0.612124 0.146878
H10   H     H_    0.546555 0.854023 0.604350 0.159103
H11   H     H_    0.757759 0.921150 0.657198 0.141055
H12   H     H_    0.998922 0.329936 0.960276 0.158993
H13   H     H_    0.677988 0.269324 0.376810 0.169233
H14   H     H_    0.159629 0.297887 0.645708 0.126103
H15   H     H_    0.537266 0.284230 0.663014 0.147157
H16   H     H_    0.331498 0.245760 0.683026 0.135194
H17   H     H_    0.838303 0.682050 0.343730 0.123684
H18   H     H_    0.465010 0.592292 0.344954 0.162290
H19   H     H_    0.652062 0.704177 0.277318 0.140969
H20   H     H_    0.717624 0.392003 0.592344 0.201464
H21   H     H_    0.827251 0.514841 0.898693 0.163616
H22   H     H_    0.810130 0.369877 0.924011 0.158982
H23   H     H_    0.810354 0.370131 0.068656 0.160500
H24   H     H_    0.827472 0.515098 0.043335 0.160697
H25   H     H_    0.172692 0.653974 0.924163 0.161148
H26   H     H_    0.040484 0.681929 0.898802 0.161378
H27   H     H_    0.172927 0.654209 0.068798 0.167072
N1    N     N_R   0.246300 0.438200 0.549400 -0.218078
N2    N     N_R   0.754300 0.561180 0.451130 -0.208671
O1    O     O_R   0.972520 0.318130 0.524690 -0.586192
O2    O     O_R   0.806530 0.359650 0.491530 -0.601160
O3    O     O_R   0.083030 0.479240 0.637150 -0.580813
O4    O     O_R   0.917040 0.520750 0.603990 -0.591508
O5    O     O_R   0.193470 0.640350 0.508470 -0.563315
O6    O     O_R   0.027480 0.681870 0.475310 -0.591539
O7    O     O_R   0.082960 0.479250 0.396010 -0.529921
O8    O     O_R   0.916970 0.520760 0.362850 -0.601811
C43   C     C_2   0.366730 0.615784 0.453393 0.855755
O9    O     O_2   0.303935 0.626257 0.385446 -0.602056
O10   O     O_R   0.465987 0.712135 0.480774 -0.788875
H28   H     H_    0.477090 0.785045 0.438198 0.332481

loop_
_geom_bond_atom_site_label_1
_geom_bond_atom_site_label_2
_ccdc_geom_bond_type
C5    C42   S    
Cu1   N1    S    
C19   C20   A    
C9    H7    S    
C3    C6    S    
C7    C8    T    
C10   C22   A    
Cu1   O5    S    
C26   C27   A    
C5    H26   S    
C30   C35   A    
C1    O1    A    
Cu2   O4    S    
C26   H17   S    
C38   C42   S    
C9    C22   A    
C15   C16   A    
C11   C24   A    
C26   N2    A    
C18   C19   A    
C7    C42   S    
C5    H25   S    
C25   C37   A    
C36   C43   S    
C6    C41   T    
C35   H20   S    
C25   H16   S    
C37   H14   S    
C11   H9    S    
C16   C20   A    
C34   O7    A    
Cu1   O1    S    
C16   C24   A    
C13   C14   A    
C39   H21   S    
C34   C41   S    
C39   C42   S    
C10   C21   A    
C1    O2    A    
O10   H28   S    
Cu2   O8    S    
C39   C40   S    
C30   N2    A    
Cu1   O7    S    
C40   H23   S    
C17   C21   A    
Cu2   O2    S    
Cu1   Cu2   S    
C29   C30   A    
C2    C38   S    
C31   C32   A    
C8    C12   S    
C12   O4    A    
C17   C18   A    
C27   H19   S    
C22   H5    S    
C34   O8    A    
C3    C40   S    
C43   O10   S    
C12   O3    A    
C2    H3    S    
C39   H22   S    
C3    C4    S    
C4    H4    S    
Cu1   O3    S    
C15   C17   A    
C28   C29   A    
C14   H10   S    
C31   C36   A    
Cu2   O6    S    
C4    C5    S    
C10   C23   S    
C32   C33   A    
C2    C3    S    
C29   C31   A    
C11   C13   A    
C19   H6    S    
C25   C32   A    
C33   C35   A    
C4    H27   S    
C23   O5    A    
Cu2   N2    S    
C38   H2    S    
C2    H1    S    
C9    C18   A    
C38   H12   S    
C1    C24   S    
C33   H15   S    
C43   O9    D    
C40   H24   S    
C37   N1    A    
C27   C28   A    
C14   C15   A    
C23   O6    A    
C20   H13   S    
C21   H8    S    
C36   N1    A    
C13   H11   S    
C28   H18   S    
