data_mof_unit_31760.cif
_audit_creation_date              2012-12-11T14:14:05-0500
_audit_creation_method            fapswitch 2.2
_symmetry_space_group_name_H-M    P1
_symmetry_Int_Tables_number       1
_space_group_crystal_system       triclinic
_cell_length_a                    17.085353
_cell_length_b                    7.253777
_cell_length_c                    16.918316
_cell_angle_alpha                 89.965221
_cell_angle_beta                  99.159099
_cell_angle_gamma                 90.028314
_cell_volume                      2070.00969774

loop_
_atom_site_label
_atom_site_type_symbol
_atom_type_description
_atom_site_fract_x
_atom_site_fract_y
_atom_site_fract_z
_atom_type_partial_charge
O1    O     O_R   0.414560 0.494370 0.416770 -0.526587
O2    O     O_R   0.585440 0.994370 0.583230 -0.526384
O3    O     O_R   0.578370 0.819590 0.429320 -0.530517
O4    O     O_R   0.421630 0.319590 0.570680 -0.531236
C1    C     C_R   0.604672 0.656035 0.414143 0.766650
C2    C     C_R   0.395434 0.155861 0.585952 0.766260
O5    O     O_R   0.414740 0.823790 0.407360 -0.520852
O6    O     O_R   0.585260 0.323790 0.592640 -0.521182
O7    O     O_R   0.420650 0.998510 0.561120 -0.539192
O8    O     O_R   0.579350 0.498510 0.438880 -0.539268
C3    C     C_R   0.387787 0.655562 0.385876 0.773173
C4    C     C_R   0.612233 0.155547 0.614109 0.774181
O9    O     O_3   0.502130 0.662240 0.550470 -0.375178
O10   O     O_3   0.497870 0.162240 0.449530 -0.374510
V1    V     V_3+5 0.499600 0.935390 0.490640 1.620435
V2    V     V_3+5 0.500400 0.435390 0.509360 1.618889
C5    C     C_2   0.787821 0.260272 0.781119 0.205111
C6    C     C_2   0.212739 0.760765 0.218358 0.204849
C7    C     C_2   0.811302 0.113820 0.829449 0.039301
C8    C     C_2   0.188815 0.613840 0.170493 0.037002
C9    C     C_2   0.708022 0.270918 0.731607 0.305337
C10   C     C_2   0.292503 0.770740 0.268002 0.305741
C11   C     C_2   0.685016 0.144366 0.674162 -0.283930
C12   C     C_2   0.315069 0.644514 0.325751 -0.284736
H1    H     H_    0.723836 0.027946 0.668716 0.186357
H2    H     H_    0.275966 0.528635 0.331392 0.185921
C13   C     C_R   0.329670 0.152154 0.633315 -0.174441
C14   C     C_R   0.670394 0.653066 0.366685 -0.173972
C15   C     C_R   0.166210 0.117676 0.861779 -0.177687
C16   C     C_R   0.833642 0.616876 0.138104 -0.177479
C17   C     C_R   0.302865 0.055072 0.844436 0.271235
C18   C     C_R   0.698105 0.544947 0.156802 0.270963
C19   C     C_R   0.244012 0.064816 0.893699 -0.140382
C20   C     C_R   0.756594 0.556559 0.107144 -0.138499
C21   C     C_R   0.147141 0.162694 0.779634 -0.092747
C22   C     C_R   0.852159 0.668029 0.219568 -0.092374
C23   C     C_R   0.207734 0.170119 0.730084 -0.040014
C24   C     C_R   0.791596 0.674188 0.269129 -0.038821
C25   C     C_R   0.285218 0.106108 0.762663 0.044708
C26   C     C_R   0.715140 0.602165 0.237806 0.045701
C27   C     C_R   0.344303 0.095591 0.713119 -0.195554
C28   C     C_R   0.656446 0.590148 0.287774 -0.194061
C29   C     C_R   0.255092 0.224226 0.601493 0.233924
C30   C     C_R   0.743902 0.732740 0.397112 0.235978
C31   C     C_R   0.194774 0.238255 0.649452 0.258024
C32   C     C_R   0.803701 0.748564 0.348638 0.258155
H3    H     H_    0.403322 0.046802 0.736088 0.185928
H4    H     H_    0.598184 0.535519 0.265733 0.186097
O11   O     O_R   0.920750 0.773600 0.061260 -0.529286
O12   O     O_R   0.079250 0.273600 0.938740 -0.529326
O13   O     O_R   0.085340 0.439850 0.092570 -0.513367
O14   O     O_R   0.914660 0.939850 0.907430 -0.513724
C33   C     C_R   0.113257 0.608385 0.113326 0.736539
C34   C     C_R   0.886794 0.108376 0.886648 0.737118
O15   O     O_R   0.921720 0.444130 0.070790 -0.544203
O16   O     O_R   0.078280 0.944130 0.929210 -0.544129
O17   O     O_R   0.914480 0.269530 0.916840 -0.530888
O18   O     O_R   0.085520 0.769530 0.083160 -0.530973
C35   C     C_R   0.896480 0.611935 0.086321 0.685061
C36   C     C_R   0.103422 0.112098 0.913586 0.684566
O19   O     O_3   0.997840 0.601520 0.949550 -0.368129
O20   O     O_3   0.002160 0.101520 0.050450 -0.367922
V3    V     V_3+5 0.000400 0.328340 0.009360 1.602992
V4    V     V_3+5 0.999600 0.828340 0.990640 1.602381
Br1   Br    Br    0.855215 0.469296 0.770706 -0.364764
Br2   Br    Br    0.146173 0.971545 0.227939 -0.361753
C37   C     C_1   0.063665 0.173612 0.746639 0.412819
N1    N     N_1   0.996702 0.179767 0.721122 -0.239425
C38   C     C_1   0.935447 0.685554 0.252441 0.413184
N2    N     N_1   0.002274 0.696913 0.277961 -0.238211
Br3   Br    Br    0.739980 0.911131 0.838250 -0.397992
Br4   Br    Br    0.259712 0.410188 0.162280 -0.398165
Br5   Br    Br    0.642152 0.475444 0.751762 -0.341660
Br6   Br    Br    0.358999 0.974234 0.247724 -0.340185
Br7   Br    Br    0.236240 0.303517 0.490836 -0.403382
Br8   Br    Br    0.762253 0.819483 0.506675 -0.405326
Br9   Br    Br    0.408066 0.973614 0.891506 -0.386431
Br10  Br    Br    0.594222 0.452279 0.111324 -0.387533
Br11  Br    Br    0.102072 0.379597 0.604687 -0.331613
Br12  Br    Br    0.893935 0.900998 0.390518 -0.335022
C39   C     C_1   0.263061 0.014550 0.977440 0.439328
N3    N     N_1   0.278055 0.974073 0.044304 -0.218193
C40   C     C_1   0.737965 0.500988 0.024021 0.441070
N4    N     N_1   0.723296 0.456392 0.957652 -0.223771

loop_
_geom_bond_atom_site_label_1
_geom_bond_atom_site_label_2
_ccdc_geom_bond_type
C32   Br12  S    
O15   C35   A    
C7    Br3   S    
O1    C3    A    
O2    C4    A    
C2    O7    A    
C39   N3    T    
C25   C27   A    
O5    C3    A    
C4    C11   S    
C21   C23   A    
C12   H2    S    
C9    Br5   S    
C3    C12   S    
C30   Br8   S    
C40   N4    T    
C15   C19   A    
C30   C32   A    
O15   V3    S    
C17   C19   A    
O17   V3    S    
O5    V1    S    
O6    V2    S    
O11   V4    S    
C29   Br7   S    
O12   V3    S    
O14   C34   A    
C17   Br9   S    
O18   V4    S    
C16   C20   A    
C37   N1    T    
O13   V3    S    
O4    C2    A    
O14   V4    S    
C14   C30   A    
C5    C9    S    
O16   C36   A    
O13   C33   A    
C18   C20   A    
O4    V2    S    
O19   V4    S    
O20   V3    S    
C1    C14   S    
C13   C27   A    
C26   C28   A    
C2    C13   S    
C15   C36   S    
C21   C37   S    
O6    C4    A    
C16   C35   S    
O16   V4    S    
C27   H3    S    
C31   Br11  S    
O1    V2    S    
C28   H4    S    
O2    V1    S    
C29   C31   A    
C7    C34   S    
C9    C11   D    
C10   C12   D    
C20   C40   S    
C10   Br6   S    
C23   C31   A    
O3    V1    S    
C22   C38   S    
C6    C10   S    
C8    C33   S    
O3    C1    A    
C33   O18   A    
C6    Br2   S    
C15   C21   A    
C5    Br1   S    
O11   C35   A    
C16   C22   A    
O12   C36   A    
C22   C24   A    
O7    V1    S    
C1    O8    A    
C23   C25   A    
O8    V2    S    
C24   C26   A    
C14   C28   A    
C5    C7    D    
C17   C25   A    
C6    C8    D    
C18   C26   A    
C38   N2    T    
C24   C32   A    
C18   Br10  S    
C13   C29   A    
C11   H1    S    
O9    V2    S    
O10   V1    S    
C8    Br4   S    
C19   C39   S    
C34   O17   A    
