data_mof_unit_5305.cif
_audit_creation_date              2012-10-26T20:38:52-0400
_audit_creation_method            fapswitch 2.2
_symmetry_space_group_name_H-M    P1
_symmetry_Int_Tables_number       1
_space_group_crystal_system       triclinic
_cell_length_a                    23.479052
_cell_length_b                    13.117414
_cell_length_c                    11.818792
_cell_angle_alpha                 99.776131
_cell_angle_beta                  93.069834
_cell_angle_gamma                 92.447656
_cell_volume                      3577.03303362

loop_
_atom_site_label
_atom_site_type_symbol
_atom_type_description
_atom_site_fract_x
_atom_site_fract_y
_atom_site_fract_z
_atom_type_partial_charge
C1    C     C_R   0.501144 0.299505 0.478904 0.568802
C2    C     C_R   0.702409 0.588524 0.479753 -0.023867
C3    C     C_R   0.239149 0.396508 0.506570 0.003953
C4    C     C_R   0.762005 0.586842 0.475395 -0.007248
C5    C     C_R   0.208823 0.483694 0.494744 0.203562
C6    C     C_R   0.790404 0.498011 0.489481 0.199159
C7    C     C_R   0.498727 0.815445 0.534650 0.018165
C8    C     C_R   0.508712 0.186789 0.468674 0.014135
C9    C     C_R   0.530190 0.019964 0.356470 0.002500
C10   C     C_R   0.511278 0.985316 0.657987 0.011028
C11   C     C_R   0.529462 0.128834 0.367926 -0.034857
C12   C     C_R   0.499077 0.700815 0.521420 0.598846
C13   C     C_R   0.501443 0.877737 0.646137 -0.011101
C14   C     C_R   0.498207 0.136849 0.563390 0.050017
C15   C     C_R   0.500468 0.864139 0.436192 0.013813
C16   C     C_R   0.391323 0.500101 0.500683 0.566347
C17   C     C_R   0.608612 0.498520 0.499204 0.584852
C18   C     C_R   0.509935 0.032165 0.558420 0.048141
C19   C     C_R   0.514227 0.971252 0.449602 0.031558
C20   C     C_R   0.438156 0.419314 0.026406 -0.091319
C21   C     C_R   0.562916 0.578652 0.973506 -0.147215
C22   C     C_R   0.444696 0.422846 0.145714 0.146296
C23   C     C_R   0.237950 0.576570 0.485975 -0.076381
C24   C     C_R   0.556615 0.573335 0.854146 0.158756
C25   C     C_R   0.529429 0.531107 0.154215 0.146891
C26   C     C_R   0.469489 0.472700 0.847166 0.133904
C27   C     C_R   0.523461 0.527890 0.032532 -0.004509
C28   C     C_R   0.476406 0.473746 0.968416 -0.014876
C29   C     C_R   0.877993 0.502036 0.390368 0.412951
C30   C     C_R   0.121075 0.473558 0.591484 0.412831
C31   C     C_R   0.882130 0.491205 0.590470 0.409417
C32   C     C_R   0.117131 0.485270 0.391618 0.412204
C33   C     C_R   0.941714 0.486217 0.592608 0.031769
C34   C     C_R   0.759515 0.409513 0.507183 -0.078509
C35   C     C_R   0.057417 0.488451 0.388885 0.030243
C36   C     C_R   0.969556 0.489500 0.490588 -0.025485
C37   C     C_R   0.029508 0.484602 0.490741 -0.025617
C38   C     C_R   0.937604 0.497888 0.388509 0.029909
C39   C     C_R   0.061438 0.476398 0.592906 0.030056
C40   C     C_R   0.973942 0.477766 0.693941 -0.110629
C41   C     C_R   0.025148 0.496467 0.287445 -0.109793
C42   C     C_R   0.033178 0.472812 0.694063 -0.108762
C43   C     C_R   0.965866 0.501119 0.287255 -0.109798
C44   C     C_2   0.416705 0.423915 0.783742 0.283790
C45   C     C_R   0.297584 0.584518 0.489541 -0.006170
C46   C     C_2   0.579453 0.588041 0.220491 0.292557
C47   C     C_2   0.602941 0.626615 0.803764 0.286928
C48   C     C_2   0.402229 0.360199 0.197043 0.278447
C49   C     C_2   0.324321 0.687440 0.481131 0.294222
C50   C     C_2   0.671808 0.311377 0.536410 0.290598
C51   C     C_2   0.329826 0.305022 0.515358 0.281637
C52   C     C_2   0.673755 0.685755 0.468982 0.289537
C53   C     C_2   0.474161 0.811251 0.323018 0.312833
C54   C     C_2   0.465101 0.186282 0.659229 0.236329
C55   C     C_2   0.489203 0.834316 0.751141 0.298205
C56   C     C_R   0.700259 0.408536 0.513505 -0.009777
C57   C     C_2   0.552779 0.180555 0.276351 0.262369
C58   C     C_2   0.555308 0.959746 0.254120 0.241960
C59   C     C_2   0.527469 0.047248 0.774214 0.229745
C60   C     C_R   0.328731 0.495859 0.501216 0.016824
C61   C     C_R   0.671082 0.498455 0.498104 0.006478
C62   C     C_R   0.299052 0.400869 0.508715 -0.028157
Cu1   Cu    Cu3+1 0.504210 0.507730 0.615930 1.075456
Cu2   Cu    Cu3+1 0.495790 0.492270 0.384070 1.009816
H1    H     H_    0.953530 0.474968 0.773477 0.176848
H2    H     H_    0.574141 0.651193 0.289975 0.119246
H3    H     H_    0.646780 0.607414 0.820271 0.113835
H4    H     H_    0.412463 0.328842 0.273406 0.140308
H5    H     H_    0.297758 0.748130 0.459910 0.134744
H6    H     H_    0.694072 0.239872 0.522287 0.129856
H7    H     H_    0.375617 0.304000 0.508100 0.087049
H8    H     H_    0.628694 0.692311 0.482912 0.102093
H9    H     H_    0.215554 0.324928 0.512209 0.186680
H10   H     H_    0.786911 0.655162 0.463234 0.186194
H11   H     H_    0.494776 0.749252 0.271003 0.124552
H12   H     H_    0.045586 0.499517 0.207989 0.178074
H13   H     H_    0.485409 0.245771 0.725829 0.140217
H14   H     H_    0.519095 0.849259 0.826039 0.116350
H15   H     H_    0.538697 0.154108 0.186891 0.091120
H16   H     H_    0.547933 0.979893 0.169525 0.105078
H17   H     H_    0.508218 0.028957 0.850210 0.107406
H18   H     H_    0.403578 0.370462 0.978940 0.197135
H19   H     H_    0.599216 0.623984 0.019310 0.156033
H20   H     H_    0.056728 0.466597 0.773732 0.180697
H21   H     H_    0.942309 0.507367 0.207605 0.178508
H22   H     H_    0.213501 0.643431 0.477442 0.130263
H23   H     H_    0.782410 0.341505 0.518403 0.133235
H24   H     H_    0.418607 0.367650 0.706564 0.127667
N1    N     N_R   0.851565 0.498254 0.490234 -0.399662
N2    N     N_R   0.147609 0.478814 0.492083 -0.401747
N3    N     N_R   0.510550 0.519360 0.790130 -0.247459
N4    N     N_R   0.489450 0.480640 0.209870 -0.282226
O1    O     O_R   0.502990 0.354470 0.582000 -0.533641
O2    O     O_2   0.152405 0.467337 0.688954 -0.448523
O3    O     O_2   0.854874 0.489290 0.687834 -0.475506
O4    O     O_2   0.144613 0.488924 0.294869 -0.457833
O5    O     O_2   0.369939 0.449677 0.815314 -0.450914
O6    O     O_2   0.627707 0.562813 0.199058 -0.469017
O7    O     O_2   0.593729 0.697132 0.751434 -0.513947
O8    O     O_2   0.353969 0.341151 0.152315 -0.472729
O9    O     O_2   0.375427 0.707275 0.499725 -0.453002
O10   O     O_2   0.624802 0.309762 0.575186 -0.459695
O11   O     O_2   0.304233 0.225241 0.528458 -0.424016
O12   O     O_R   0.497010 0.645530 0.418000 -0.559175
O13   O     O_2   0.700295 0.760421 0.444775 -0.445547
O14   O     O_2   0.429293 0.840064 0.285499 -0.456841
O15   O     O_2   0.415674 0.156618 0.666725 -0.467392
O16   O     O_2   0.444268 0.785259 0.756029 -0.415525
O17   O     O_2   0.589331 0.251135 0.300204 -0.437909
O18   O     O_2   0.586049 0.888644 0.264391 -0.492373
O19   O     O_2   0.563968 0.118066 0.786019 -0.475631
O20   O     O_R   0.495870 0.341410 0.386200 -0.517467
O21   O     O_R   0.504130 0.658590 0.613800 -0.413658
O22   O     O_R   0.421440 0.506500 0.597920 -0.492777
O23   O     O_R   0.578560 0.493500 0.402080 -0.477778
O24   O     O_R   0.414320 0.493440 0.402120 -0.509742
O25   O     O_R   0.585680 0.506560 0.597880 -0.469494
O26   O     O_2   0.846627 0.508505 0.293032 -0.455723

loop_
_geom_bond_atom_site_label_1
_geom_bond_atom_site_label_2
_ccdc_geom_bond_type
C22   C48   S    
C45   C60   A    
C34   C56   A    
C23   C45   A    
C20   H18   S    
C1    C8    S    
C57   H15   S    
C30   N2    A    
C29   N1    A    
C26   C44   S    
C15   C19   A    
C54   O15   D    
Cu2   O24   S    
C15   C53   S    
C36   C37   A    
C35   C37   A    
C46   H2    S    
C1    O20   A    
C49   O9    D    
Cu1   O25   S    
Cu2   O20   S    
C51   O11   D    
C33   C36   A    
C47   O7    D    
C60   C62   A    
C9    C58   S    
C16   C60   S    
C14   C18   A    
C17   C61   S    
Cu1   O22   S    
C53   O14   D    
C9    C19   A    
C32   N2    A    
C21   H19   S    
C31   N1    A    
C23   H22   S    
C29   C38   A    
C59   O19   D    
C31   C33   A    
C4    H10   S    
C5    N2    S    
C2    C61   A    
C58   H16   S    
C54   H13   S    
C40   C42   A    
C21   C27   A    
Cu2   O23   S    
C49   H5    S    
C41   C43   A    
C53   H11   S    
C51   C62   S    
C51   H7    S    
C35   C41   A    
C16   O24   A    
C47   H3    S    
C39   C42   A    
C7    C12   S    
C48   O8    D    
C57   O17   D    
C33   C40   A    
C43   H21   S    
C32   C35   A    
C42   H20   S    
C4    C6    A    
C55   H14   S    
C18   C19   A    
C20   C28   A    
C26   N3    A    
C50   C56   S    
C6    C34   A    
C2    C4    A    
C52   H8    S    
C37   C39   A    
C44   O5    D    
C5    C23   A    
C45   C49   S    
C48   H4    S    
C9    C11   A    
C2    C52   S    
C32   O4    S    
C20   C22   A    
C52   O13   D    
C50   O10   D    
C40   H1    S    
Cu2   N4    S    
C24   N3    A    
C17   O23   A    
C12   O21   A    
C3    C62   A    
Cu2   O12   S    
C25   N4    A    
C8    C14   A    
C14   C54   S    
C58   O18   D    
C24   C47   S    
C59   H17   S    
C3    C5    A    
C10   C13   A    
C16   O22   A    
C12   O12   A    
C17   O25   A    
C25   C27   A    
C6    N1    S    
C29   O26   S    
Cu1   O1    S    
C26   C28   A    
C55   O16   D    
C36   C38   A    
C10   C59   S    
C50   H6    S    
C38   C43   A    
C30   O2    S    
C11   C57   S    
C41   H12   S    
C10   C18   A    
C8    C11   A    
C31   O3    S    
C7    C15   A    
C30   C39   A    
C34   H23   S    
C46   O6    D    
C3    H9    S    
Cu1   Cu2   S    
Cu1   O21   S    
C7    C13   A    
C1    O1    A    
C21   C24   A    
Cu1   N3    S    
C27   C28   A    
C22   N4    A    
C56   C61   A    
C44   H24   S    
C25   C46   S    
C13   C55   S    
