data_mof_unit_65034.cif
_audit_creation_date              2012-10-26T20:08:30-0400
_audit_creation_method            fapswitch 2.2
_symmetry_space_group_name_H-M    P1
_symmetry_Int_Tables_number       1
_space_group_crystal_system       triclinic
_cell_length_a                    15.956372
_cell_length_b                    14.432268
_cell_length_c                    13.143708
_cell_angle_alpha                 90.000253
_cell_angle_beta                  90.064021
_cell_angle_gamma                 89.972991
_cell_volume                      3026.81808732

loop_
_atom_site_label
_atom_site_type_symbol
_atom_type_description
_atom_site_fract_x
_atom_site_fract_y
_atom_site_fract_z
_atom_type_partial_charge
C1    C     C_R   0.500007 0.328695 0.500000 0.549364
C2    C     C_1   0.500006 0.500033 0.949319 -0.049674
C3    C     C_R   0.338002 0.498754 0.499958 0.558953
C4    C     C_R   0.661999 0.498258 0.500101 0.553690
C5    C     C_R   0.500064 0.671301 0.500001 0.552991
C6    C     C_3   0.047316 0.454602 0.588698 -0.268020
C7    C     C_3   0.045960 0.483836 0.400691 -0.261788
C8    C     C_3   0.951945 0.468996 0.598985 -0.279982
C9    C     C_3   0.950125 0.474224 0.408765 -0.241562
C10   C     C_1   0.750906 0.505656 0.500754 -0.065380
C11   C     C_1   0.248908 0.503663 0.500052 -0.015312
C12   C     C_1   0.500054 0.142301 0.500003 -0.045502
C13   C     C_3   0.082174 0.518009 0.503293 0.081479
C14   C     C_3   0.917263 0.523894 0.506236 0.045848
C15   C     C_3   0.953545 0.628262 0.506336 0.559093
C16   C     C_3   0.054903 0.621201 0.525325 0.604941
C17   C     C_1   0.825709 0.514309 0.502913 -0.081566
C18   C     C_1   0.173920 0.509384 0.500988 0.014021
C19   C     C_1   0.500031 0.227114 0.500001 -0.049213
C20   C     C_3   0.048103 0.691611 0.696901 -0.109593
C21   C     C_3   0.098207 0.771603 0.476348 -0.058914
C22   C     C_3   0.841306 0.678162 0.622047 -0.162117
C23   C     C_1   0.500080 0.042397 0.500006 -0.004435
C24   C     C_3   0.869407 0.710200 0.383918 -0.098788
C25   C     C_1   0.500096 0.957586 0.500007 -0.004968
C26   C     C_1   0.500102 0.857686 0.500006 -0.046768
C27   C     C_1   0.500090 0.772875 0.500004 -0.049952
C28   C     C_1   0.500003 0.500028 0.173624 0.120292
C29   C     C_1   0.500003 0.500028 0.826376 0.119861
C30   C     C_1   0.500005 0.500032 0.050680 -0.049451
Cu1   Cu    Cu3+1 0.500000 0.499990 0.592680 0.977209
Cu2   Cu    Cu3+1 0.500000 0.499990 0.407320 0.977431
H1    H     H_    0.921151 0.399964 0.604765 0.129337
H2    H     H_    0.031725 0.761534 0.668233 0.148261
H3    H     H_    0.091064 0.703289 0.762019 0.125192
H4    H     H_    0.141711 0.785725 0.540513 0.136637
H5    H     H_    0.034428 0.798469 0.492643 0.151381
H6    H     H_    0.122053 0.810545 0.409660 0.123550
H7    H     H_    0.840651 0.613939 0.667895 0.115660
H8    H     H_    0.789567 0.681326 0.566020 0.125857
H9    H     H_    0.829179 0.735224 0.676578 0.133755
H10   H     H_    0.863268 0.774748 0.429321 0.152996
H11   H     H_    0.814490 0.664298 0.393418 0.113348
H12   H     H_    0.933470 0.399276 0.411320 0.121038
H13   H     H_    0.870061 0.731538 0.302874 0.124463
H14   H     H_    0.060392 0.380732 0.570001 0.116836
H15   H     H_    0.073286 0.415430 0.379773 0.106388
H16   H     H_    0.062251 0.533155 0.338759 0.182537
H17   H     H_    0.078344 0.468765 0.662951 0.162113
H18   H     H_    0.920382 0.502825 0.338819 0.158598
H19   H     H_    0.938849 0.506008 0.671076 0.120735
H20   H     H_    0.994063 0.652838 0.728337 0.142924
N1    N     N_1   0.500000 0.500020 0.268070 -0.166097
N2    N     N_1   0.500000 0.500020 0.731930 -0.166245
O1    O     O_R   0.500000 0.376050 0.578280 -0.473087
O2    O     O_3   0.097869 0.676426 0.451707 -0.540316
O3    O     O_3   0.919846 0.694892 0.576543 -0.623138
O4    O     O_3   0.945465 0.663915 0.404827 -0.557963
O5    O     O_R   0.500000 0.376050 0.421720 -0.473033
O6    O     O_R   0.379430 0.500000 0.578300 -0.478318
O7    O     O_R   0.379430 0.500000 0.421700 -0.481556
O8    O     O_R   0.620570 0.500000 0.578300 -0.486196
O9    O     O_R   0.620570 0.500000 0.421700 -0.483757
O10   O     O_R   0.500000 0.623940 0.578240 -0.471244
O11   O     O_R   0.500000 0.623940 0.421760 -0.470922
O12   O     O_3   0.091264 0.638172 0.624464 -0.591918

loop_
_geom_bond_atom_site_label_1
_geom_bond_atom_site_label_2
_ccdc_geom_bond_type
Cu1   O6    S    
C21   O2    S    
C6    C8    S    
C28   N1    T    
C16   O2    S    
C11   C18   T    
C24   H10   S    
Cu2   N1    S    
Cu1   Cu2   S    
Cu1   O8    S    
C2    C30   T    
C14   C17   S    
C9    C14   S    
C20   H2    S    
C7    H16   S    
C22   O3    S    
C28   C30   S    
C1    O1    A    
C22   H8    S    
C20   H20   S    
C21   H4    S    
C3    O6    A    
C6    C13   S    
C15   O3    S    
C12   C23   S    
C26   C27   T    
C13   C18   S    
C2    C29   S    
C24   H13   S    
C12   C19   T    
C20   O12   S    
Cu2   O7    S    
C8    H1    S    
C1    O5    A    
C6    H17   S    
C15   O4    S    
C1    C19   S    
C22   H9    S    
C3    C11   S    
C29   N2    T    
C22   H7    S    
C10   C17   T    
C4    C10   S    
C15   C16   S    
C4    O9    A    
C24   O4    S    
C4    O8    A    
Cu1   N2    S    
C7    C13   S    
C23   C25   T    
C16   O12   S    
C5    O10   A    
C21   H5    S    
C5    O11   A    
C13   C16   S    
C8    H19   S    
C3    O7    A    
C7    C9    S    
C24   H11   S    
C14   C15   S    
C21   H6    S    
C9    H12   S    
C8    C14   S    
C6    H14   S    
Cu2   O5    S    
Cu1   O1    S    
C25   C26   S    
C5    C27   S    
C20   H3    S    
Cu1   O10   S    
C9    H18   S    
Cu2   O9    S    
Cu2   O11   S    
C7    H15   S    
