data_mof_unit_67225.cif
_audit_creation_date              2013-03-05T16:01:25-0500
_audit_creation_method            fapswitch 2.2
_symmetry_space_group_name_H-M    P1
_symmetry_Int_Tables_number       1
_space_group_crystal_system       triclinic
_cell_length_a                    20.122436
_cell_length_b                    20.292074
_cell_length_c                    8.439122
_cell_angle_alpha                 89.961461
_cell_angle_beta                  92.137654
_cell_angle_gamma                 90.074768
_cell_volume                      3443.51096859

loop_
_atom_site_label
_atom_site_type_symbol
_atom_site_description
_atom_site_fract_x
_atom_site_fract_y
_atom_site_fract_z
_atom_type_partial_charge
P1    P     P_3+3 0.136530 0.426510 0.931350 0.478181
P2    P     P_3+3 0.136530 0.573490 0.431350 0.475285
P3    P     P_3+3 0.636530 0.926510 0.931350 0.476019
P4    P     P_3+3 0.636530 0.073490 0.431350 0.475690
O1    O     O_2   0.130070 0.404060 0.104920 -0.357363
O2    O     O_2   0.130070 0.595940 0.604920 -0.357825
O3    O     O_2   0.630070 0.904060 0.104920 -0.359114
O4    O     O_2   0.630070 0.095940 0.604920 -0.359322
O5    O     O_3   0.075780 0.466370 0.861070 -0.377064
O6    O     O_3   0.075780 0.533630 0.361070 -0.375257
O7    O     O_3   0.575780 0.966370 0.861070 -0.372814
O8    O     O_3   0.575780 0.033630 0.361070 -0.373918
O9    O     O_3   0.022320 0.344950 0.359800 -0.363838
O10   O     O_3   0.022320 0.655050 0.859800 -0.393188
O11   O     O_3   0.522320 0.844950 0.359800 -0.398230
O12   O     O_3   0.522320 0.155050 0.859800 -0.397724
O13   O     O_2   0.127229 0.289673 0.242027 -0.276305
O14   O     O_2   0.127415 0.711431 0.742938 -0.323308
O15   O     O_2   0.627338 0.788880 0.246576 -0.311926
O16   O     O_2   0.627644 0.211074 0.747288 -0.311289
O17   O     O_3   0.206827 0.478082 0.925742 -0.638516
O18   O     O_3   0.206563 0.521746 0.425744 -0.634346
O19   O     O_3   0.706835 0.978090 0.925925 -0.634813
O20   O     O_3   0.706875 0.022149 0.425954 -0.635081
O21   O     O_3   0.033424 0.210911 0.332417 -0.401952
O22   O     O_3   0.036466 0.791986 0.839575 -0.445981
O23   O     O_3   0.534132 0.708891 0.335761 -0.433161
O24   O     O_3   0.534347 0.291060 0.834701 -0.431482
H1    H     H_    0.970924 0.243244 0.511688 0.000098
H2    H     H_    0.942127 0.750584 0.834821 0.127050
H3    H     H_    0.440556 0.751095 0.315815 0.133796
H4    H     H_    0.440601 0.248866 0.817109 0.131207
C1    C     C_3   0.929585 0.159866 0.388843 -0.748451
C2    C     C_3   0.938207 0.854007 0.884842 -0.794286
C3    C     C_3   0.434078 0.648400 0.373696 -0.776253
C4    C     C_3   0.434603 0.351795 0.872439 -0.774156
P5    P     P_3+3 0.863410 0.426100 0.379280 0.467576
P6    P     P_3+3 0.863410 0.573900 0.879280 0.464330
P7    P     P_3+3 0.363410 0.926100 0.379280 0.471317
P8    P     P_3+3 0.363410 0.073900 0.879280 0.473844
P9    P     P_3+3 0.914432 0.285615 0.933135 0.524898
P10   P     P_3+3 0.915142 0.714565 0.431392 0.504827
P11   P     P_3+3 0.415816 0.784630 0.931349 0.516002
P12   P     P_3+3 0.416409 0.215726 0.430761 0.514860
O25   O     O_2   0.869860 0.403670 0.205810 -0.344047
O26   O     O_2   0.869860 0.596330 0.705810 -0.350543
O27   O     O_2   0.369860 0.903670 0.205810 -0.375542
O28   O     O_2   0.369860 0.096330 0.705810 -0.377061
O29   O     O_3   0.977590 0.344880 0.951200 -0.367015
O30   O     O_3   0.977590 0.655120 0.451200 -0.396188
O31   O     O_3   0.477590 0.844880 0.951200 -0.389357
O32   O     O_3   0.477590 0.155120 0.451200 -0.388705
O33   O     O_2   0.864783 0.298729 0.064239 -0.324689
O34   O     O_2   0.868871 0.707979 0.572698 -0.335354
O35   O     O_2   0.369803 0.790977 0.073167 -0.339185
O36   O     O_2   0.370250 0.209250 0.572270 -0.342159
O37   O     O_3   0.793814 0.476227 0.362027 -0.564431
O38   O     O_3   0.794082 0.523381 0.862078 -0.560345
O39   O     O_3   0.295770 0.980601 0.371933 -0.598543
O40   O     O_3   0.295697 0.019295 0.873942 -0.598952
O41   O     O_3   0.948732 0.209801 0.989460 -0.461421
O42   O     O_3   0.952924 0.791258 0.459278 -0.498651
O43   O     O_3   0.454585 0.708241 0.958880 -0.508497
O44   O     O_3   0.455606 0.291896 0.459611 -0.508197
C5    C     C_3   0.980418 0.183498 0.858824 0.178249
C6    C     C_3   0.016381 0.788949 0.394944 0.214937
C7    C     C_3   0.515476 0.709849 0.882050 0.225491
C8    C     C_3   0.516500 0.290436 0.382896 0.224090
H5    H     H_    0.019310 0.217826 0.816845 0.056824
H6    H     H_    0.052425 0.767097 0.483101 0.144902
H7    H     H_    0.552933 0.738116 0.954662 0.135720
H8    H     H_    0.553762 0.261743 0.454939 0.135090
H9    H     H_    0.943242 0.173034 0.761627 -0.014247
H10   H     H_    0.017366 0.759687 0.283707 -0.027678
H11   H     H_    0.510500 0.732934 0.763026 -0.034822
H12   H     H_    0.511408 0.267927 0.263321 -0.034718
C9    C     C_3   0.012850 0.118271 0.905647 0.011679
C10   C     C_3   0.038277 0.858469 0.354863 -0.021886
C11   C     C_3   0.540343 0.639723 0.859365 -0.054555
C12   C     C_3   0.541743 0.360609 0.362036 -0.052264
H13   H     H_    0.973655 0.082343 0.937110 0.121066
H14   H     H_    0.006117 0.877859 0.255453 0.128847
H15   H     H_    0.502236 0.610956 0.789968 0.150014
H16   H     H_    0.503968 0.389709 0.292583 0.151311
C13   C     C_3   0.808066 0.463785 0.787770 0.209544
C14   C     C_3   0.807508 0.535943 0.287633 0.208027
C15   C     C_3   0.279692 0.996435 0.720488 0.221949
C16   C     C_3   0.285848 0.006532 0.219203 0.207063
H17   H     H_    0.843985 0.470004 0.692694 0.081462
H18   H     H_    0.843283 0.529860 0.192271 0.084407
H19   H     H_    0.278343 0.036233 0.630305 0.151330
H20   H     H_    0.280098 0.966948 0.129045 0.157260
H21   H     H_    0.828913 0.428812 0.877922 0.116514
H22   H     H_    0.828479 0.570915 0.377645 0.115331
H23   H     H_    0.315810 0.957900 0.690189 0.072449
H24   H     H_    0.327923 0.039422 0.193619 0.079578
C17   C     C_3   0.742532 0.436052 0.716046 -0.009219
C18   C     C_3   0.741854 0.563595 0.216248 -0.005808
C19   C     C_3   0.209942 0.967245 0.718854 -0.025087
C20   C     C_3   0.221321 0.045213 0.210154 -0.039750
H25   H     H_    0.737091 0.449161 0.590501 0.156779
H26   H     H_    0.736673 0.551356 0.090063 0.156007
H27   H     H_    0.202512 0.934739 0.613832 0.141428
H28   H     H_    0.219746 0.076285 0.101809 0.151068
H29   H     H_    0.743136 0.381666 0.716891 0.116795
H30   H     H_    0.742134 0.617967 0.219084 0.119260
H31   H     H_    0.204210 0.936984 0.826468 0.205428
H32   H     H_    0.219030 0.077857 0.314022 0.202074
Ba1   Ba    Ba6+2 0.999980 0.452130 0.155200 1.647783
Ba2   Ba    Ba6+2 0.999980 0.547870 0.655200 1.626550
Ba3   Ba    Ba6+2 0.499980 0.952130 0.155200 1.636004
Ba4   Ba    Ba6+2 0.499980 0.047870 0.655200 1.634127
C21   C     C_3   0.221631 0.513560 0.065289 0.810180
C22   C     C_3   0.221605 0.486672 0.565808 0.810296
C23   C     C_3   0.721584 0.013507 0.065636 0.811559
C24   C     C_3   0.721581 0.986622 0.565580 0.818785
H33   H     H_    0.180049 0.512706 0.146886 0.069660
H34   H     H_    0.180192 0.487738 0.647802 0.069113
H35   H     H_    0.680156 0.012260 0.147618 0.071191
H36   H     H_    0.680116 0.987664 0.647460 0.069123
C25   C     C_3   0.285004 0.484024 0.143500 -0.891208
C26   C     C_3   0.285195 0.516421 0.642762 -0.888566
C27   C     C_3   0.785253 0.984308 0.143212 -0.895263
C28   C     C_3   0.785229 0.015901 0.643426 -0.905734
H37   H     H_    0.303414 0.514102 0.245701 0.264364
H38   H     H_    0.303672 0.486677 0.745489 0.263982
H39   H     H_    0.803606 0.014400 0.245441 0.266014
H40   H     H_    0.803671 0.985613 0.745251 0.263205
H41   H     H_    0.324984 0.481494 0.056380 0.241853
H42   H     H_    0.325031 0.518618 0.555208 0.241608
H43   H     H_    0.825126 0.982129 0.055764 0.234341
H44   H     H_    0.825077 0.018512 0.555960 0.247303
O45   O     O_3   0.924190 0.533610 0.949240 -0.395105
O46   O     O_3   0.924190 0.466390 0.449240 -0.398212
O47   O     O_3   0.424190 0.033610 0.949240 -0.361040
O48   O     O_3   0.424190 0.966390 0.449240 -0.361235
P13   P     P_3+3 0.079351 0.718555 0.880703 0.576149
P14   P     P_3+3 0.079338 0.281798 0.379895 0.633530
P15   P     P_3+3 0.578339 0.218787 0.882357 0.591590
P16   P     P_3+3 0.578301 0.781283 0.382298 0.589827
C29   C     C_3   0.989776 0.197835 0.454909 0.412920
C30   C     C_3   0.972729 0.787596 0.901651 0.452572
C31   C     C_3   0.469036 0.714705 0.389119 0.447699
C32   C     C_3   0.469377 0.285518 0.889093 0.448164
H45   H     H_    0.016092 0.167005 0.545652 0.073777
H46   H     H_    0.975593 0.774318 0.029334 -0.019746
H47   H     H_    0.468922 0.729953 0.515158 -0.026132
H48   H     H_    0.469544 0.270799 0.015563 -0.025560
H49   H     H_    0.895762 0.148040 0.485861 0.171882
H50   H     H_    0.888126 0.851300 0.935468 0.193412
H51   H     H_    0.461496 0.610804 0.445979 0.265405
H52   H     H_    0.383363 0.348062 0.916062 0.189265
H53   H     H_    0.039089 0.098216 0.803056 0.141433
H54   H     H_    0.090256 0.856963 0.315774 0.113910
H55   H     H_    0.586595 0.640547 0.791794 0.105058
H56   H     H_    0.588219 0.359998 0.295437 0.106727
C33   C     C_R   0.238651 0.302420 0.006432 -0.085542
C34   C     C_R   0.238144 0.697996 0.507059 -0.092081
C35   C     C_R   0.737934 0.802387 0.008731 -0.084536
C36   C     C_R   0.737848 0.197398 0.508490 -0.085440
C37   C     C_R   0.149259 0.346587 0.821006 0.249197
C38   C     C_R   0.149710 0.653146 0.320251 0.227780
C39   C     C_R   0.648992 0.847064 0.822138 0.229226
C40   C     C_R   0.648845 0.152854 0.322092 0.231407
C41   C     C_R   0.111461 0.337214 0.679553 -0.444278
C42   C     C_R   0.112755 0.661851 0.177558 -0.463957
C43   C     C_R   0.611401 0.838384 0.680255 -0.464804
C44   C     C_R   0.611291 0.161415 0.180158 -0.462839
C45   C     C_R   0.123349 0.284275 0.577613 0.078123
C46   C     C_R   0.124119 0.715312 0.076751 0.154280
C47   C     C_R   0.621897 0.784608 0.580801 0.147323
C48   C     C_R   0.621486 0.215494 0.081330 0.147855
C49   C     C_R   0.171721 0.237170 0.620172 0.247571
C50   C     C_R   0.171182 0.763523 0.121105 0.221957
C51   C     C_R   0.668413 0.736453 0.626993 0.196986
C52   C     C_R   0.667434 0.264056 0.128515 0.194248
C53   C     C_R   0.208932 0.242806 0.765134 -0.023043
C54   C     C_R   0.208307 0.757936 0.266133 -0.072569
C55   C     C_R   0.706638 0.742159 0.770024 -0.063144
C56   C     C_R   0.706149 0.258072 0.270705 -0.066032
C57   C     C_R   0.198778 0.298039 0.865617 0.023454
C58   C     C_R   0.198636 0.702210 0.365759 -0.003437
C59   C     C_R   0.697843 0.798094 0.868276 0.002406
C60   C     C_R   0.697614 0.201895 0.368379 0.001541
H57   H     H_    0.074907 0.373839 0.643421 0.170100
H58   H     H_    0.076758 0.624766 0.140506 0.177301
H59   H     H_    0.575819 0.875690 0.642611 0.177325
H60   H     H_    0.575972 0.123868 0.142083 0.177283
C61   C     C_R   0.795683 0.698708 0.950723 -0.043084
C62   C     C_R   0.795781 0.301092 0.450542 -0.039952
C63   C     C_R   0.296750 0.198968 0.949038 -0.048333
C64   C     C_R   0.295791 0.801871 0.450557 -0.038389
C65   C     C_R   0.785453 0.753569 0.051281 0.053361
C66   C     C_R   0.785494 0.246127 0.550973 0.074948
C67   C     C_R   0.286345 0.253844 0.049377 0.058967
C68   C     C_R   0.285474 0.746840 0.550650 0.055126
C69   C     C_R   0.847002 0.651721 0.991924 0.192494
C70   C     C_R   0.847341 0.347928 0.491536 0.214986
C71   C     C_R   0.346914 0.151238 0.993013 0.181712
C72   C     C_R   0.346246 0.849341 0.494127 0.188335
C73   C     C_R   0.884064 0.660351 0.133845 -0.562525
C74   C     C_R   0.884802 0.338839 0.632893 -0.527266
C75   C     C_R   0.383205 0.159372 0.136257 -0.508497
C76   C     C_R   0.382369 0.841393 0.637600 -0.497525
C77   C     C_R   0.869486 0.710836 0.238918 0.271517
C78   C     C_R   0.870452 0.287944 0.737611 0.214251
C79   C     C_R   0.370067 0.211248 0.238670 0.290851
C80   C     C_R   0.369115 0.789493 0.740045 0.287766
C81   C     C_R   0.821805 0.758307 0.196347 -0.226385
C82   C     C_R   0.821900 0.241139 0.695874 -0.241571
C83   C     C_R   0.323026 0.259138 0.194097 -0.211143
C84   C     C_R   0.321962 0.741614 0.695632 -0.220501
C85   C     C_R   0.753880 0.692741 0.814499 -0.042773
C86   C     C_R   0.753665 0.307366 0.314815 -0.054049
C87   C     C_R   0.256662 0.194003 0.809374 0.012158
C88   C     C_R   0.255315 0.807299 0.311598 -0.042171
H61   H     H_    0.232473 0.343018 0.085810 0.161763
H62   H     H_    0.232127 0.657206 0.586069 0.167858
H63   H     H_    0.732278 0.843177 0.087798 0.165504
H64   H     H_    0.732316 0.156444 0.587251 0.165146
H65   H     H_    0.758062 0.649177 0.742672 0.202025
H66   H     H_    0.757894 0.350932 0.242798 0.203401
H67   H     H_    0.262136 0.151661 0.734218 0.175732
H68   H     H_    0.260135 0.850264 0.237828 0.179388
N1    N     N_R   0.685213 0.461010 0.799256 0.341975
O49   O     O_R   0.686532 0.461004 0.952864 -0.276600
O50   O     O_R   0.638913 0.494330 0.723715 -0.237909
N2    N     N_R   0.684461 0.537746 0.298005 0.339914
O51   O     O_R   0.684993 0.537573 0.451571 -0.277901
O52   O     O_R   0.638091 0.505056 0.220853 -0.238191
N3    N     N_R   0.160336 0.019771 0.715429 0.284557
O53   O     O_R   0.164343 0.067375 0.818215 -0.386449
O54   O     O_R   0.112694 0.020412 0.607241 -0.249541
N4    N     N_R   0.164942 0.000033 0.207430 0.299414
O55   O     O_R   0.154479 0.963043 0.329757 -0.356405
O56   O     O_R   0.127991 0.992648 0.079045 -0.283464
N5    N     N_R   0.233954 0.582327 0.022393 0.193968
O57   O     O_R   0.201035 0.608459 0.902934 -0.410897
O58   O     O_R   0.273226 0.619630 0.109624 -0.439839
N6    N     N_R   0.233716 0.417792 0.524113 0.192514
O59   O     O_R   0.200925 0.391436 0.404714 -0.415006
O60   O     O_R   0.272870 0.380689 0.612075 -0.448032
N7    N     N_R   0.733358 0.082419 0.023201 0.191527
O61   O     O_R   0.700081 0.108482 0.904216 -0.410779
O62   O     O_R   0.772178 0.119962 0.110966 -0.444366
N8    N     N_R   0.733381 0.917792 0.522934 0.194225
O63   O     O_R   0.700170 0.891778 0.403750 -0.411149
O64   O     O_R   0.772062 0.880224 0.610853 -0.435582
H69   H     H_    0.275531 0.433857 0.187632 0.239164
H70   H     H_    0.275989 0.566729 0.685915 0.238259
H71   H     H_    0.776173 0.934040 0.187233 0.241182
H72   H     H_    0.776080 0.065989 0.688190 0.236948
H73   H     H_    0.902014 0.190109 0.298587 0.278236
H74   H     H_    0.932559 0.867771 0.757664 0.302623
H75   H     H_    0.382675 0.652407 0.416129 0.192790
H76   H     H_    0.431709 0.367075 0.746015 0.301430
N9    N     N_R   0.185618 0.185556 0.511304 0.226415
O65   O     O_R   0.241217 0.185987 0.437913 -0.425826
O66   O     O_R   0.140493 0.141819 0.474442 -0.344102
N10   N     N_R   0.181539 0.817961 0.017267 0.230028
O67   O     O_R   0.235994 0.822159 0.939742 -0.420403
O68   O     O_R   0.135229 0.861907 0.995340 -0.355376
N11   N     N_R   0.677244 0.681680 0.525956 0.244418
O69   O     O_R   0.733964 0.673097 0.460676 -0.416157
O70   O     O_R   0.626851 0.643984 0.489205 -0.305216
N12   N     N_R   0.675127 0.319601 0.029351 0.245934
O71   O     O_R   0.730647 0.327953 0.958602 -0.407629
O72   O     O_R   0.624224 0.357074 0.996244 -0.308153
H77   H     H_    0.812767 0.798551 0.277128 0.189319
H78   H     H_    0.812343 0.201118 0.777104 0.182082
H79   H     H_    0.314525 0.300009 0.273436 0.183893
H80   H     H_    0.313450 0.700655 0.774902 0.185351
H81   H     H_    0.922436 0.625147 0.167365 0.175374
H82   H     H_    0.923127 0.374139 0.666602 0.166468
H83   H     H_    0.420571 0.123393 0.171551 0.173641
H84   H     H_    0.419756 0.877438 0.672847 0.174303
H85   H     H_    0.945287 0.112995 0.334110 0.287474
H86   H     H_    0.967820 0.892489 0.949032 0.262114
H87   H     H_    0.431605 0.632539 0.247711 0.301663
H88   H     H_    0.462403 0.389687 0.943052 0.268194
N13   N     N_R   0.059854 0.127219 0.039585 0.319494
O73   O     O_R   0.051266 0.095591 0.171261 -0.272349
O74   O     O_R   0.110953 0.166024 0.027734 -0.344429
N14   N     N_R   0.034033 0.901151 0.492903 0.316280
O75   O     O_R   0.070588 0.889282 0.619997 -0.301817
O76   O     O_R   0.992393 0.950161 0.491158 -0.323127
N15   N     N_R   0.554243 0.608688 0.012477 0.307027
O77   O     O_R   0.520099 0.557635 0.055320 -0.298036
O78   O     O_R   0.601358 0.631824 0.106390 -0.316510
N16   N     N_R   0.555331 0.391008 0.515917 0.306687
O79   O     O_R   0.602293 0.367598 0.609741 -0.316157
O80   O     O_R   0.521171 0.441837 0.559399 -0.297906

loop_
_geom_bond_atom_site_label_1
_geom_bond_atom_site_label_2
_geom_bond_distance
_ccdc_geom_bond_type
C8    C12   1.523512 S    
C17   N1    1.463675 S    
P7    C72   1.872511 S    
C16   H24   1.104924 S    
P1    O17   1.760527 S    
C44   H60   1.082003 S    
C15   H19   1.108972 S    
C10   H14   1.112272 S    
C27   H71   1.102690 S    
C30   H46   1.109969 S    
P3    O19   1.760653 S    
Ba3   Ba4   4.646509 S    
P9    O41   1.745397 S    
C32   H48   1.107997 S    
O22   P13   1.750925 S    
C12   N16   1.454599 S    
P2    C38   1.891415 S    
N2    O52   1.299322 A    
C2    H50   1.110438 S    
P11   O43   1.747716 S    
N11   O69   1.297715 A    
P8    Ba4   3.435115 S    
C61   C85   1.404149 A    
C1    H85   1.109078 S    
P12   O44   1.747405 S    
C25   H37   1.109018 S    
O12   Ba4   2.803247 S    
C4    H76   1.110304 S    
C3    H87   1.110375 S    
P10   C77   1.837598 S    
N4    O56   1.299625 A    
P1    O1    1.543747 D    
O44   C8    1.407389 S    
O16   P15   1.546966 D    
P7    O27   1.543482 D    
N14   O75   1.300288 A    
C22   H34   1.103083 S    
C63   C71   1.438355 A    
N9    O65   1.298849 A    
P3    O3    1.543747 D    
O4    Ba4   2.838956 S    
C50   N10   1.429451 S    
P4    O20   1.760633 S    
O25   Ba1   2.842744 S    
Ba3   O48   2.975161 S    
O31   Ba3   2.801401 S    
C66   C82   1.405507 A    
O32   Ba4   2.800515 S    
N7    O61   1.298627 A    
C6    H10   1.111922 S    
C51   N11   1.416704 S    
C20   H28   1.109817 S    
C26   H42   1.111101 S    
C5    H9    1.109763 S    
O37   C14   1.396238 S    
C28   H44   1.111124 S    
O6    Ba1   2.807058 S    
P8    O28   1.542801 D    
N16   O79   1.300171 A    
C18   H30   1.103593 S    
P6    O45   1.568730 S    
P9    O29   1.751124 S    
P9    C78   1.843694 S    
C79   C83   1.399010 A    
C78   C82   1.397498 A    
O39   C16   1.399356 S    
C4    H88   1.110809 S    
O9    Ba1   2.802354 S    
C14   H22   1.111188 S    
C63   C87   1.406808 A    
C38   C42   1.402698 A    
C13   H21   1.111147 S    
C74   H82   1.082233 S    
C2    C30   1.521043 S    
C16   H20   1.109729 S    
P3    Ba3   3.432378 S    
O15   P16   1.546931 D    
N7    O62   1.302009 A    
C15   H23   1.104831 S    
P2    O18   1.760557 S    
O23   C31   1.406049 S    
P4    C40   1.875946 S    
C69   C73   1.398071 A    
O13   P14   1.546259 D    
O24   C32   1.405986 S    
C73   C77   1.393993 A    
C77   C81   1.397791 A    
P4    O8    1.563433 S    
C86   H66   1.077539 S    
P10   O42   1.743376 S    
C15   C19   1.522284 S    
C13   C17   1.536575 S    
P4    O4    1.544428 D    
C28   H40   1.109035 S    
P1    Ba1   3.432378 S    
P12   O32   1.745194 S    
C21   N5    1.464533 S    
P4    Ba4   3.430903 S    
H1    C29   1.112485 S    
P6    O38   1.731912 S    
N5    O57   1.298721 A    
P14   C45   1.860296 S    
C83   H79   1.084008 S    
O2    Ba2   2.838956 S    
P2    O2    1.544428 D    
O24   P15   1.752795 S    
C3    H51   1.110805 S    
C19   H31   1.105443 S    
C71   C75   1.398550 A    
O30   Ba2   2.800515 S    
N6    O60   1.302234 A    
C80   C84   1.398651 A    
O40   C15   1.401882 S    
C12   H56   1.109012 S    
C18   N2    1.463659 S    
P7    O48   1.567480 S    
C41   C45   1.403070 A    
P5    O37   1.733602 S    
C6    C10   1.519051 S    
P8    O47   1.568730 S    
N8    O64   1.301993 A    
C20   H32   1.101424 S    
C23   C27   1.536224 S    
C33   H61   1.072425 S    
Ba4   O48   2.807168 S    
C35   C65   1.414566 A    
Ba1   O45   2.808133 S    
C12   H16   1.112432 S    
C53   C57   1.425419 A    
C55   C59   1.421223 A    
O11   Ba3   2.802354 S    
C40   C44   1.403024 A    
C35   C59   1.411382 A    
P1    O5    1.564673 S    
O17   C21   1.402961 S    
C19   H27   1.110677 S    
C14   H18   1.106664 S    
C85   H65   1.077340 S    
C33   C57   1.411622 A    
O42   C6    1.406895 S    
C43   H59   1.082008 S    
C10   H54   1.108857 S    
C43   C47   1.398173 A    
C52   N12   1.415135 S    
N2    O51   1.295613 A    
C75   H83   1.082372 S    
N13   O73   1.299871 A    
C18   H26   1.094782 S    
C75   C79   1.394266 A    
P12   C79   1.841988 S    
C41   H57   1.082004 S    
C24   H36   1.103263 S    
C34   H62   1.072086 S    
N9    O66   1.298525 A    
C22   C26   1.536241 S    
C20   N4    1.457217 S    
C26   H38   1.109028 S    
O14   P13   1.546751 D    
C31   H47   1.108035 S    
C88   H68   1.077340 S    
O43   C7    1.407800 S    
C67   C83   1.407349 A    
C40   C60   1.440596 A    
O41   C5    1.400326 S    
C72   C76   1.398131 A    
C26   H70   1.102319 S    
C5    C9    1.521931 S    
C34   C58   1.410883 A    
P12   O36   1.545433 D    
C17   H25   1.093758 S    
C65   C81   1.405780 A    
N15   O77   1.300825 A    
O10   P13   1.729188 S    
C9    H13   1.112630 S    
C39   C43   1.403301 A    
C8    H8    1.112424 S    
P7    O39   1.754152 S    
C55   C85   1.423215 A    
N15   O78   1.300261 A    
N1    O49   1.295602 A    
P6    C69   1.879682 S    
C7    C11   1.523596 S    
P15   C48   1.862547 S    
N3    O54   1.299049 A    
C54   C58   1.426115 A    
P5    C70   1.880897 S    
C42   H58   1.082016 S    
C62   C86   1.405024 A    
C11   N15   1.454941 S    
P9    O33   1.541631 D    
P13   C46   1.855248 S    
C16   C20   1.517568 S    
N12   O72   1.298408 A    
P10   O30   1.746458 S    
P11   C80   1.840147 S    
C23   N7    1.464449 S    
C70   C74   1.399393 A    
N10   O68   1.298824 A    
O28   Ba4   2.845309 S    
C24   N8    1.464447 S    
O20   C24   1.403266 S    
P16   C47   1.863002 S    
C23   H35   1.103269 S    
N14   O76   1.301003 A    
N5    O58   1.301999 A    
C51   C55   1.411641 A    
C21   H33   1.103417 S    
C10   N14   1.457207 S    
O12   P15   1.720522 S    
P6    Ba2   3.435115 S    
N4    O55   1.299298 A    
Ba4   O47   2.974449 S    
P5    O25   1.543482 D    
P2    O6    1.563433 S    
O38   C13   1.396418 S    
C64   C68   1.419450 A    
C27   H39   1.109011 S    
O8    Ba3   2.807058 S    
C56   C60   1.420291 A    
C9    H53   1.108636 S    
C76   C80   1.393902 A    
C62   C70   1.438901 A    
N16   O80   1.300822 A    
C22   N6    1.464494 S    
O11   P16   1.720936 S    
C46   C50   1.402032 A    
C44   C48   1.397454 A    
C61   C69   1.439343 A    
O5    Ba2   2.808024 S    
O10   Ba2   2.803247 S    
Ba2   O46   2.807168 S    
C50   C54   1.414457 A    
N8    O63   1.298677 A    
P2    Ba2   3.430903 S    
C13   H17   1.106796 S    
C24   C28   1.536451 S    
N6    O59   1.298821 A    
C27   H43   1.111142 S    
O7    Ba4   2.808024 S    
C33   C67   1.414241 A    
P5    Ba1   3.433621 S    
O21   C29   1.406131 S    
C25   H41   1.111158 S    
N10   O67   1.299683 A    
C87   H67   1.076488 S    
C19   N3    1.460789 S    
C56   C86   1.422947 A    
C42   C46   1.401954 A    
P11   O35   1.545781 D    
P8    C71   1.876545 S    
P3    C39   1.879240 S    
C82   H78   1.084021 S    
N13   O74   1.301079 A    
C11   H55   1.109585 S    
C34   C68   1.413024 A    
C6    H6    1.111893 S    
O18   C22   1.402879 S    
C35   H63   1.072345 S    
O23   P16   1.753112 S    
H2    C30   1.111220 S    
C38   C58   1.441439 A    
C54   C88   1.419959 A    
C2    H74   1.110589 S    
C1    C29   1.522892 S    
O9    P14   1.725214 S    
O26   Ba2   2.845309 S    
C49   N9    1.428457 S    
C4    C32   1.520866 S    
O29   Ba1   2.801401 S    
C17   H29   1.103711 S    
C28   H72   1.102649 S    
N11   O70   1.297842 A    
Ba1   Ba2   4.646509 S    
P10   O34   1.545681 D    
P6    O26   1.542801 D    
C11   H15   1.112431 S    
P7    Ba3   3.433621 S    
C8    H12   1.109153 S    
C45   C49   1.402131 A    
Ba3   O47   2.808133 S    
C36   H64   1.072075 S    
C47   C51   1.399132 A    
C21   C25   1.536149 S    
P11   O31   1.746055 S    
C5    H5    1.114502 S    
C25   H69   1.102559 S    
C81   H77   1.084017 S    
C29   H45   1.108243 S    
N1    O50   1.299353 A    
O19   C23   1.403271 S    
C64   C88   1.406959 A    
O21   P14   1.747268 S    
C2    H86   1.110662 S    
C7    H7    1.112439 S    
C64   C72   1.436633 A    
C39   C59   1.441812 A    
H3    C31   1.109256 S    
C14   C18   1.537935 S    
C76   H84   1.082416 S    
C63   C67   1.419834 A    
Ba1   O46   2.975161 S    
H4    C32   1.109388 S    
P3    O7    1.564673 S    
N12   O71   1.297106 A    
C62   C66   1.420009 A    
P1    C37   1.893111 S    
C53   C87   1.420497 A    
C68   C84   1.407249 A    
P8    O40   1.754397 S    
C61   C65   1.420129 A    
C52   C56   1.411328 A    
C7    H11   1.109224 S    
O27   Ba3   2.842744 S    
C1    H73   1.110540 S    
C74   C78   1.395699 A    
C36   C66   1.413461 A    
C3    C31   1.520855 S    
N3    O53   1.299136 A    
C3    H75   1.110226 S    
C84   H80   1.084008 S    
P5    O46   1.567480 S    
Ba2   O45   2.974449 S    
C1    H49   1.109969 S    
O1    Ba1   2.841498 S    
C9    N13   1.457820 S    
C49   C53   1.414908 A    
O22   C30   1.406079 S    
O3    Ba3   2.841498 S    
C36   C60   1.410856 A    
C37   C57   1.441960 A    
C37   C41   1.404236 A    
C4    H52   1.110154 S    
C48   C52   1.398270 A    
C73   H81   1.082314 S    
