data_mof_unit_36337.cif
_audit_creation_date              2012-12-10T18:06:01-0500
_audit_creation_method            fapswitch 2.2
_symmetry_space_group_name_H-M    P1
_symmetry_Int_Tables_number       1
_space_group_crystal_system       triclinic
_cell_length_a                    12.608389
_cell_length_b                    12.969223
_cell_length_c                    14.862582
_cell_angle_alpha                 90.229356
_cell_angle_beta                  103.024019
_cell_angle_gamma                 81.763126
_cell_volume                      2342.39114664

loop_
_atom_site_label
_atom_site_type_symbol
_atom_type_description
_atom_site_fract_x
_atom_site_fract_y
_atom_site_fract_z
_atom_type_partial_charge
C1    C     C_R   0.438260 0.691900 0.493156 0.870238
C2    C     C_R   0.475658 0.596600 0.807781 -0.251637
C3    C     C_R   0.502155 0.502172 0.768049 -0.048315
C4    C     C_R   0.500680 0.501060 0.672559 0.840642
C5    C     C_R   0.523968 0.408040 0.817568 -0.256225
C6    C     C_R   0.710726 0.061644 0.644019 0.090896
C7    C     C_R   0.602323 0.197384 0.534455 -0.198914
C8    C     C_R   0.296124 0.844087 0.435970 -0.182975
C9    C     C_R   0.266558 0.951564 0.423923 -0.169407
C10   C     C_R   0.342255 0.017251 0.462066 -0.170498
C11   C     C_R   0.447521 0.975493 0.515070 0.118630
C12   C     C_R   0.519228 0.408953 0.097168 0.089324
C13   C     C_R   0.466011 0.870611 0.542910 0.028214
C14   C     C_R   0.534772 0.034459 0.541576 -0.057812
C15   C     C_R   0.625498 0.998521 0.616871 -0.057809
C16   C     C_R   0.562131 0.307829 0.512052 0.882339
C17   C     C_R   0.627496 0.900702 0.660664 0.488559
C18   C     C_R   0.551622 0.835827 0.619019 -0.348529
C19   C     C_R   0.536626 0.125879 0.491952 0.112306
C20   C     C_R   0.693716 0.164675 0.607439 0.384920
C21   C     C_R   0.397528 0.803029 0.493751 -0.113556
C22   C     C_R   0.088206 0.345864 0.372224 -0.306292
C23   C     C_R   0.431170 0.692597 0.031596 0.485843
C24   C     C_R   0.799901 0.629457 0.609872 0.022886
C25   C     C_R   0.904370 0.658012 0.632771 -0.235901
C26   C     C_R   0.985759 0.609101 0.591101 -0.206978
C27   C     C_R   0.962825 0.530285 0.526542 0.014802
C28   C     C_R   0.498558 0.501162 0.327271 0.939231
C29   C     C_R   0.854931 0.503731 0.506053 0.211274
C30   C     C_R   0.042093 0.476936 0.481732 -0.014019
C31   C     C_R   0.011878 0.398506 0.417827 0.187500
C32   C     C_R   0.905914 0.373068 0.400126 -0.276502
C33   C     C_R   0.828894 0.424656 0.443986 -0.171089
C34   C     C_R   0.438044 0.690976 0.939433 -0.341878
C35   C     C_R   0.150874 0.497828 0.497511 -0.047744
C36   C     C_R   0.193954 0.370794 0.390473 0.012692
C37   C     C_R   0.517342 0.409494 0.189697 -0.314606
C38   C     C_R   0.495621 0.503635 0.231278 -0.150235
C39   C     C_R   0.475224 0.599455 0.182896 0.390911
C40   C     C_R   0.465753 0.599840 0.086974 -0.105331
C41   C     C_R   0.492849 0.503930 0.045280 -0.066804
C42   C     C_3   0.665074 0.824152 0.807805 0.053541
C43   C     C_3   0.744374 0.829227 0.901491 -0.321614
C44   C     C_3   0.702894 0.781805 0.978590 -0.964193
C45   C     C_R   0.470161 0.597462 0.899783 0.095408
C46   C     C_3   0.819527 0.021662 0.709526 -0.768132
C47   C     C_3   0.486734 0.140985 0.388921 -0.905660
C48   C     C_3   0.565095 0.729510 0.251083 0.127375
C49   C     C_3   0.552250 0.831893 0.301395 -0.306497
C50   C     C_3   0.662293 0.871971 0.333440 -0.966876
C51   C     C_3   0.281425 0.788598 0.070207 0.157933
C52   C     C_3   0.204467 0.836717 0.980713 -0.410103
C53   C     C_3   0.083919 0.844697 0.985600 -0.962403
C54   C     C_3   0.495905 0.168698 0.886223 0.057876
C55   C     C_3   0.497368 0.072994 0.946434 -0.319392
C56   C     C_R   0.495016 0.502839 0.951947 0.019626
C57   C     C_3   0.406281 0.010304 0.903200 -0.992583
C58   C     C_3   0.754671 0.278402 0.717830 0.095852
C59   C     C_3   0.844107 0.346676 0.751426 -0.292313
C60   C     C_3   0.824911 0.407889 0.835668 -0.945744
C61   C     C_R   0.523123 0.407255 0.910662 0.025418
C62   C     C_R   0.549370 0.313152 0.962981 0.464778
C63   C     C_R   0.548055 0.314853 0.056344 -0.286848
H1    H     H_    0.535488 0.337094 0.230339 0.142192
H2    H     H_    0.736654 0.666533 0.642479 0.156876
H3    H     H_    0.065332 0.634310 0.611033 0.140713
H4    H     H_    0.922189 0.717869 0.682627 0.167360
H5    H     H_    0.749535 0.400540 0.428132 0.213748
H6    H     H_    0.416056 0.762810 0.898230 0.160238
H7    H     H_    0.456977 0.668467 0.766398 0.114483
H8    H     H_    0.540391 0.335890 0.782993 0.140223
H9    H     H_    0.570863 0.242716 0.097162 0.154987
H10   H     H_    0.656690 0.740966 0.794323 0.151072
H11   H     H_    0.583591 0.868553 0.811383 0.140663
H12   H     H_    0.241049 0.793333 0.399025 0.160237
H13   H     H_    0.826456 0.786031 0.899133 0.229769
H14   H     H_    0.753652 0.911849 0.916779 0.220731
H15   H     H_    0.621618 0.824724 0.983281 0.275971
H16   H     H_    0.762058 0.786830 0.045659 0.261602
H17   H     H_    0.695081 0.698504 0.965559 0.273945
H18   H     H_    0.854577 0.945121 0.686845 0.251903
H19   H     H_    0.882446 0.073649 0.710980 0.242431
H20   H     H_    0.807982 0.015016 0.781016 0.245824
H21   H     H_    0.546104 0.170592 0.354060 0.223308
H22   H     H_    0.469382 0.066495 0.355882 0.248354
H23   H     H_    0.317775 0.100293 0.450376 0.156939
H24   H     H_    0.410318 0.197993 0.375300 0.241845
H25   H     H_    0.593246 0.744584 0.187081 0.152803
H26   H     H_    0.629231 0.672725 0.296523 0.152332
H27   H     H_    0.493428 0.891380 0.254671 0.230842
H28   H     H_    0.518601 0.819603 0.362559 0.237547
H29   H     H_    0.721439 0.814141 0.381618 0.273338
H30   H     H_    0.650325 0.945818 0.370308 0.278778
H31   H     H_    0.697034 0.886942 0.273195 0.262047
H32   H     H_    0.266701 0.838422 0.128439 0.173932
H33   H     H_    0.260593 0.710564 0.085231 0.132149
H34   H     H_    0.187205 0.983778 0.381455 0.143502
H35   H     H_    0.223154 0.915948 0.968603 0.235607
H36   H     H_    0.217427 0.788059 0.921391 0.223659
H37   H     H_    0.062606 0.766073 0.995967 0.264505
H38   H     H_    0.030436 0.879853 0.919943 0.269537
H39   H     H_    0.067833 0.894688 0.043327 0.264633
H40   H     H_    0.506172 0.142272 0.817041 0.158728
H41   H     H_    0.413776 0.218712 0.874921 0.128788
H42   H     H_    0.578270 0.022565 0.955368 0.232871
H43   H     H_    0.486066 0.097969 0.015648 0.216855
H44   H     H_    0.324367 0.058441 0.895967 0.266947
H45   H     H_    0.557660 0.758443 0.648083 0.148051
H46   H     H_    0.410689 0.941431 0.948497 0.291784
H47   H     H_    0.416112 0.983140 0.834192 0.256101
H48   H     H_    0.757687 0.220039 0.773496 0.145766
H49   H     H_    0.673647 0.328491 0.703404 0.147810
H50   H     H_    0.925589 0.296597 0.769664 0.211228
H51   H     H_    0.845085 0.402375 0.695119 0.241056
H52   H     H_    0.746981 0.463118 0.817397 0.280356
H53   H     H_    0.893581 0.453342 0.860282 0.259892
H54   H     H_    0.821085 0.354067 0.892437 0.272315
H55   H     H_    0.254014 0.331352 0.355611 0.125040
H56   H     H_    0.882338 0.312752 0.352119 0.154977
H57   H     H_    0.066294 0.286165 0.323090 0.141805
H58   H     H_    0.181720 0.555218 0.544993 0.128830
N1    N     N_R   0.222190 0.444670 0.452360 -0.101206
N2    N     N_R   0.776970 0.554790 0.547140 -0.140792
O1    O     O_R   0.366740 0.627160 0.477250 -0.613154
O2    O     O_3   0.462964 0.691253 0.229985 -0.643013
O3    O     O_3   0.393146 0.786304 0.066556 -0.641968
O4    O     O_3   0.586057 0.220711 0.925411 -0.660309
O5    O     O_3   0.772025 0.229916 0.636164 -0.626439
O6    O     O_R   0.544830 0.662520 0.507680 -0.609576
O7    O     O_R   0.410940 0.482340 0.616930 -0.610701
O8    O     O_R   0.589030 0.517700 0.647360 -0.637790
O9    O     O_R   0.455170 0.337480 0.492320 -0.611974
O10   O     O_R   0.633260 0.372840 0.522750 -0.598281
O11   O     O_R   0.410970 0.482300 0.352640 -0.609670
O12   O     O_R   0.589060 0.517660 0.383070 -0.649007
O13   O     O_3   0.709040 0.865635 0.738477 -0.664048
Zn1   Zn    Zn3+2 0.381090 0.476390 0.479680 0.938894
Zn2   Zn    Zn3+2 0.618910 0.523610 0.520320 0.925610

loop_
_geom_bond_atom_site_label_1
_geom_bond_atom_site_label_2
_ccdc_geom_bond_type
O12   Zn2   S    
C1    C21   S    
C39   O2    S    
C27   C29   A    
C28   O12   A    
C25   H4    S    
C49   H27   S    
O11   Zn1   S    
C22   H57   S    
N2    Zn2   S    
C26   C27   A    
C37   C38   A    
C13   C18   A    
C55   H42   S    
C58   H49   S    
C47   H22   S    
C54   H41   S    
C20   O5    S    
C1    O6    A    
C38   C39   A    
C11   C14   A    
C19   C47   S    
C23   C40   A    
C29   C33   A    
C42   O13   S    
C12   C37   A    
C6    C15   A    
C46   H19   S    
C57   H46   S    
O6    Zn2   S    
C57   H47   S    
C45   C56   A    
C53   H38   S    
C8    C9    A    
C48   H25   S    
C36   H55   S    
C9    C10   A    
C51   H33   S    
C35   H58   S    
C48   O2    S    
O10   Zn2   S    
C53   H37   S    
C27   C30   A    
C49   H28   S    
C16   O10   A    
C8    C21   A    
C4    O8    A    
C44   H16   S    
C2    C45   A    
C42   H11   S    
C22   C31   A    
C55   H43   S    
C5    C61   A    
C51   C52   S    
C26   H3    S    
C54   H40   S    
C44   H17   S    
C24   C25   A    
C39   C40   A    
C12   C63   A    
C50   H31   S    
C4    O7    A    
C25   C26   A    
C24   N2    A    
C58   H48   S    
C47   H24   S    
C36   N1    A    
C43   C44   S    
C41   C56   A    
C62   C63   A    
C46   H18   S    
O1    Zn1   S    
C31   C32   A    
C28   C38   S    
C53   H39   S    
C59   H50   S    
C23   C34   A    
C17   O13   S    
C17   C18   A    
C13   C21   A    
C60   H54   S    
C34   C45   A    
C47   H21   S    
C34   H6    S    
C24   H2    S    
C23   O3    S    
C30   C35   A    
C50   H29   S    
C7    C16   S    
C57   H44   S    
C49   C50   S    
C7    C19   A    
C48   H26   S    
C55   C57   S    
C28   O11   A    
C60   H53   S    
C42   C43   S    
C32   H56   S    
C3    C4    S    
C37   H1    S    
C6    C20   A    
C52   C53   S    
C12   C41   A    
C43   H13   S    
C15   C17   A    
C54   C55   S    
C10   H23   S    
C42   H10   S    
C9    H34   S    
C6    C46   S    
C14   C15   A    
C51   O3    S    
C14   C19   A    
C35   N1    A    
N1    Zn1   S    
C3    C5    A    
C50   H30   S    
C43   H14   S    
C22   C36   A    
C54   O4    S    
C52   H36   S    
C32   C33   A    
C44   H15   S    
C2    C3    A    
C58   C59   S    
C1    O1    A    
C5    H8    S    
O8    Zn2   S    
C58   O5    S    
C11   C13   A    
C30   C31   A    
C62   O4    S    
C59   H51   S    
C48   C49   S    
C29   N2    A    
C52   H35   S    
C8    H12   S    
C61   C62   A    
C16   O9    A    
C18   H45   S    
C10   C11   A    
C46   H20   S    
C59   C60   S    
C63   H9    S    
C7    C20   A    
C56   C61   A    
C60   H52   S    
C40   C41   A    
O9    Zn1   S    
C2    H7    S    
O7    Zn1   S    
C33   H5    S    
C51   H32   S    
