data_mof_unit_62769.cif
_audit_creation_date              2012-12-10T18:55:35-0500
_audit_creation_method            fapswitch 2.2
_symmetry_space_group_name_H-M    P1
_symmetry_Int_Tables_number       1
_space_group_crystal_system       triclinic
_cell_length_a                    30.301195
_cell_length_b                    30.301213
_cell_length_c                    23.494216
_cell_angle_alpha                 89.990463
_cell_angle_beta                  89.993224
_cell_angle_gamma                 89.998493
_cell_volume                      21571.5185387

loop_
_atom_site_label
_atom_site_type_symbol
_atom_type_description
_atom_site_fract_x
_atom_site_fract_y
_atom_site_fract_z
_atom_type_partial_charge
C1    C     C_R   0.586083 0.000003 0.500294 0.969479
C2    C     C_R   0.976386 0.842682 0.544337 -0.089290
C3    C     C_R   0.527376 0.842427 0.964125 0.340417
C4    C     C_R   0.156218 0.472936 0.041091 0.342980
C5    C     C_R   0.472962 0.843762 0.041072 0.342942
C6    C     C_R   0.843769 0.527057 0.041070 0.342986
C7    C     C_R   0.527044 0.156220 0.041088 0.342965
C8    C     C_R   0.633810 0.000046 0.501780 -0.220193
C9    C     C_R   0.999948 0.633810 0.501776 -0.220193
C10   C     C_R   0.366189 0.999954 0.501768 -0.220188
C11   C     C_R   0.000052 0.366189 0.501755 -0.220187
C12   C     C_R   0.133810 0.500045 0.001780 -0.220198
C13   C     C_R   0.157315 0.976386 0.544314 -0.089259
C14   C     C_R   0.499948 0.133810 0.001776 -0.220196
C15   C     C_R   0.866189 0.499954 0.001769 -0.220202
C16   C     C_R   0.500051 0.866190 0.001755 -0.220181
C17   C     C_R   0.725183 0.000199 0.504776 0.005685
C18   C     C_R   0.999777 0.725183 0.504773 0.005677
C19   C     C_R   0.274816 0.999799 0.504744 0.005672
C20   C     C_R   0.000228 0.274816 0.504724 0.005666
C21   C     C_R   0.225183 0.500199 0.004778 0.005690
C22   C     C_R   0.499778 0.225183 0.004776 0.005680
C23   C     C_R   0.774815 0.499801 0.004746 0.005685
C24   C     C_R   0.023622 0.157312 0.544301 -0.089278
C25   C     C_R   0.500223 0.774817 0.004717 0.005652
C26   C     C_R   0.796485 0.022552 0.546348 -0.042229
C27   C     C_R   0.977424 0.796487 0.546347 -0.042231
C28   C     C_R   0.203509 0.977433 0.546322 -0.042237
C29   C     C_R   0.022590 0.203506 0.546299 -0.042234
C30   C     C_R   0.794934 0.976890 0.460273 -0.038310
C31   C     C_R   0.976930 0.205072 0.460218 -0.038310
C32   C     C_R   0.205069 0.023106 0.460236 -0.038312
C33   C     C_R   0.023094 0.794933 0.460263 -0.038312
C34   C     C_R   0.296486 0.522551 0.046351 -0.042229
C35   C     C_R   0.841090 0.978020 0.457483 -0.091400
C36   C     C_R   0.477426 0.296488 0.046351 -0.042230
C37   C     C_R   0.703509 0.477436 0.046326 -0.042234
C38   C     C_R   0.522580 0.703508 0.046297 -0.042231
C39   C     C_R   0.294934 0.476890 0.960274 -0.038312
C40   C     C_R   0.476927 0.705071 0.960211 -0.038312
C41   C     C_R   0.705068 0.523106 0.960237 -0.038313
C42   C     C_R   0.523094 0.294933 0.960264 -0.038312
C43   C     C_R   0.772362 0.048353 0.590056 0.135941
C44   C     C_R   0.763799 0.093317 0.581105 -0.130462
C45   C     C_R   0.740948 0.117680 0.622151 -0.124661
C46   C     C_R   0.978044 0.158916 0.457448 -0.091404
C47   C     C_R   0.726586 0.097276 0.672218 -0.107106
C48   C     C_R   0.735112 0.052484 0.681344 -0.107065
C49   C     C_R   0.757980 0.028027 0.640415 -0.155638
C50   C     C_R   0.951615 0.772367 0.590060 0.135950
C51   C     C_R   0.906656 0.763799 0.581108 -0.130477
C52   C     C_R   0.882284 0.740951 0.622158 -0.124671
C53   C     C_R   0.902677 0.726597 0.672230 -0.107108
C54   C     C_R   0.947465 0.735128 0.681356 -0.107067
C55   C     C_R   0.971929 0.757993 0.640423 -0.155625
C56   C     C_R   0.227629 0.951627 0.590033 0.135926
C57   C     C_R   0.158913 0.021977 0.457454 -0.091405
C58   C     C_R   0.236222 0.906676 0.581073 -0.130470
C59   C     C_R   0.259072 0.882309 0.622120 -0.124663
C60   C     C_R   0.273403 0.902696 0.672196 -0.107129
C61   C     C_R   0.264848 0.947476 0.681329 -0.107056
C62   C     C_R   0.241982 0.971937 0.640399 -0.155629
C63   C     C_R   0.048390 0.227621 0.590009 0.135858
C64   C     C_R   0.093327 0.236226 0.581048 -0.130504
C65   C     C_R   0.117686 0.259069 0.622096 -0.124656
C66   C     C_R   0.097305 0.273383 0.672176 -0.107228
C67   C     C_R   0.052539 0.264818 0.681311 -0.107084
C68   C     C_R   0.021975 0.841089 0.457479 -0.091398
C69   C     C_R   0.028086 0.241957 0.640380 -0.155534
C70   C     C_R   0.769178 0.952530 0.416601 0.133406
C71   C     C_R   0.749056 0.912201 0.430354 -0.142657
C72   C     C_R   0.724415 0.889531 0.389431 -0.123329
C73   C     C_R   0.719761 0.906987 0.334674 -0.104143
C74   C     C_R   0.739720 0.947165 0.320772 -0.106159
C75   C     C_R   0.764345 0.969955 0.361596 -0.136021
C76   C     C_R   0.952579 0.230835 0.416534 0.133432
C77   C     C_R   0.912235 0.250937 0.430261 -0.142628
C78   C     C_R   0.889572 0.275583 0.389327 -0.123336
C79   C     C_R   0.342680 0.523599 0.044335 -0.089288
C80   C     C_R   0.907048 0.280262 0.334584 -0.104137
C81   C     C_R   0.947239 0.260321 0.320707 -0.106141
C82   C     C_R   0.970023 0.235691 0.361543 -0.136085
C83   C     C_R   0.230829 0.047470 0.416554 0.133409
C84   C     C_R   0.250949 0.087799 0.430295 -0.142660
C85   C     C_R   0.275594 0.110473 0.389363 -0.123343
C86   C     C_R   0.280253 0.093023 0.334610 -0.104138
C87   C     C_R   0.260295 0.052847 0.320720 -0.106152
C88   C     C_R   0.235667 0.030052 0.361553 -0.136030
C89   C     C_R   0.047453 0.769175 0.416584 0.133418
C90   C     C_R   0.476389 0.342682 0.044340 -0.089292
C91   C     C_R   0.087787 0.749058 0.430320 -0.142645
C92   C     C_R   0.110457 0.724416 0.389391 -0.123334
C93   C     C_R   0.092997 0.719757 0.334643 -0.104140
C94   C     C_R   0.052815 0.739711 0.320758 -0.106137
C95   C     C_R   0.030025 0.764336 0.361589 -0.136047
C96   C     C_R   0.272363 0.548351 0.090061 0.135936
C97   C     C_R   0.263811 0.593318 0.081119 -0.130463
C98   C     C_R   0.240962 0.617680 0.122168 -0.124661
C99   C     C_R   0.226591 0.597272 0.172228 -0.107110
C100  C     C_R   0.235106 0.552477 0.181345 -0.107070
C101  C     C_R   0.657316 0.476389 0.044317 -0.089271
C102  C     C_R   0.257973 0.528021 0.140413 -0.155631
C103  C     C_R   0.451618 0.272369 0.090066 0.135941
C104  C     C_R   0.406657 0.263809 0.081123 -0.130478
C105  C     C_R   0.382287 0.240964 0.122176 -0.124669
C106  C     C_R   0.402683 0.226603 0.172242 -0.107118
C107  C     C_R   0.447473 0.235124 0.181359 -0.107072
C108  C     C_R   0.471936 0.257988 0.140423 -0.155614
C109  C     C_R   0.727627 0.451631 0.090038 0.135933
C110  C     C_R   0.736184 0.406667 0.081102 -0.130466
C111  C     C_R   0.759029 0.382299 0.122152 -0.124660
C112  C     C_R   0.999996 0.586083 0.500293 0.969480
C113  C     C_R   0.523615 0.657314 0.044301 -0.089284
C114  C     C_R   0.773391 0.402698 0.172209 -0.107120
C115  C     C_R   0.764872 0.447491 0.181320 -0.107067
C116  C     C_R   0.742009 0.471952 0.140387 -0.155622
C117  C     C_R   0.548377 0.727623 0.090007 0.135954
C118  C     C_R   0.593325 0.736244 0.081026 -0.130492
C119  C     C_R   0.617685 0.759089 0.122073 -0.124670
C120  C     C_R   0.597292 0.773389 0.172170 -0.107093
C121  C     C_R   0.552515 0.764808 0.181324 -0.107040
C122  C     C_R   0.528062 0.741946 0.140394 -0.155616
C123  C     C_R   0.269178 0.452533 0.916601 0.133410
C124  C     C_R   0.341090 0.478021 0.957484 -0.091400
C125  C     C_R   0.249060 0.412200 0.930350 -0.142653
C126  C     C_R   0.224419 0.389532 0.889426 -0.123328
C127  C     C_R   0.219761 0.406992 0.834672 -0.104146
C128  C     C_R   0.239716 0.447172 0.820773 -0.106159
C129  C     C_R   0.264341 0.469961 0.861599 -0.136028
C130  C     C_R   0.452575 0.730833 0.916526 0.133423
C131  C     C_R   0.412235 0.750943 0.930256 -0.142623
C132  C     C_R   0.389572 0.775588 0.889321 -0.123348
C133  C     C_R   0.407044 0.780258 0.834574 -0.104122
C134  C     C_R   0.447231 0.760310 0.820694 -0.106127
C135  C     C_R   0.478041 0.658915 0.957444 -0.091396
C136  C     C_R   0.470015 0.735681 0.861531 -0.136093
C137  C     C_R   0.730829 0.547468 0.916553 0.133413
C138  C     C_R   0.750945 0.587799 0.930288 -0.142655
C139  C     C_R   0.775590 0.610471 0.889354 -0.123340
C140  C     C_R   0.780252 0.593016 0.834604 -0.104143
C141  C     C_R   0.760298 0.552837 0.820720 -0.106159
C142  C     C_R   0.735670 0.530044 0.861555 -0.136033
C143  C     C_R   0.547453 0.269175 0.916585 0.133421
C144  C     C_R   0.587789 0.249061 0.930320 -0.142639
C145  C     C_R   0.610458 0.224420 0.889390 -0.123332
C146  C     C_R   0.658913 0.521976 0.957454 -0.091407
C147  C     C_R   0.592996 0.219756 0.834645 -0.104142
C148  C     C_R   0.552812 0.239708 0.820761 -0.106140
C149  C     C_R   0.530022 0.264333 0.861592 -0.136054
C150  C     C_R   0.867075 0.050175 0.587301 0.162384
C151  C     C_R   0.869314 0.036166 0.644194 -0.106150
C152  C     C_R   0.892897 0.060881 0.684185 -0.141992
C153  C     C_R   0.914334 0.099676 0.667656 -0.111260
C154  C     C_R   0.912230 0.113809 0.611092 -0.115202
C155  C     C_R   0.888700 0.089128 0.571039 -0.138512
C156  C     C_R   0.949813 0.867081 0.587312 0.162385
C157  C     C_R   0.521975 0.341089 0.957480 -0.091398
C158  C     C_R   0.963825 0.869327 0.644197 -0.106129
C159  C     C_R   0.939112 0.892915 0.684194 -0.141999
C160  C     C_R   0.900314 0.914349 0.667678 -0.111228
C161  C     C_R   0.886177 0.912237 0.611121 -0.115190
C162  C     C_R   0.910856 0.888703 0.571063 -0.138538
C163  C     C_R   0.132914 0.949801 0.587285 0.162384
C164  C     C_R   0.130662 0.963798 0.644176 -0.106117
C165  C     C_R   0.107074 0.939072 0.684169 -0.142008
C166  C     C_R   0.085644 0.900279 0.667643 -0.111224
C167  C     C_R   0.087760 0.886158 0.611080 -0.115206
C168  C     C_R   0.865107 0.000901 0.500121 -0.164652
C169  C     C_R   0.111295 0.910850 0.571025 -0.138557
C170  C     C_R   0.050196 0.132905 0.587271 0.162407
C171  C     C_R   0.036165 0.130615 0.644149 -0.106058
C172  C     C_R   0.060876 0.107015 0.684138 -0.141996
C173  C     C_R   0.099690 0.085611 0.667619 -0.111180
C174  C     C_R   0.113845 0.087766 0.611069 -0.115203
C175  C     C_R   0.089168 0.111313 0.571019 -0.138629
C176  C     C_R   0.863505 0.954064 0.410478 0.155047
C177  C     C_R   0.877666 0.977049 0.361898 -0.091831
C178  C     C_R   0.898255 0.954513 0.317304 -0.142826
C179  C     C_R   0.999095 0.865108 0.500124 -0.164647
C180  C     C_R   0.904081 0.908824 0.320501 -0.124685
C181  C     C_R   0.889043 0.885588 0.368119 -0.133761
C182  C     C_R   0.868449 0.908057 0.412785 -0.155399
C183  C     C_R   0.954082 0.136509 0.410450 0.155074
C184  C     C_R   0.977060 0.122354 0.361868 -0.091817
C185  C     C_R   0.954519 0.101768 0.317284 -0.142822
C186  C     C_R   0.908832 0.095939 0.320491 -0.124663
C187  C     C_R   0.885601 0.110972 0.368112 -0.133759
C188  C     C_R   0.908076 0.131562 0.412768 -0.155432
C189  C     C_R   0.136502 0.045936 0.410445 0.155027
C190  C     C_R   0.134892 0.999093 0.500103 -0.164633
C191  C     C_R   0.122338 0.022954 0.361879 -0.091842
C192  C     C_R   0.101754 0.045493 0.317281 -0.142828
C193  C     C_R   0.095936 0.091183 0.320459 -0.124689
C194  C     C_R   0.110978 0.114417 0.368064 -0.133775
C195  C     C_R   0.131566 0.091944 0.412733 -0.155379
C196  C     C_R   0.045941 0.863501 0.410471 0.155052
C197  C     C_R   0.022965 0.877666 0.361892 -0.091812
C198  C     C_R   0.045509 0.898252 0.317296 -0.142838
C199  C     C_R   0.091198 0.904071 0.320487 -0.124691
C200  C     C_R   0.114426 0.889028 0.368104 -0.133773
C201  C     C_R   0.000914 0.134891 0.500099 -0.164656
C202  C     C_R   0.091948 0.868438 0.412773 -0.155435
C203  C     C_R   0.367076 0.550171 0.087305 0.162388
C204  C     C_R   0.369316 0.536159 0.144197 -0.106144
C205  C     C_R   0.392899 0.560870 0.184191 -0.141996
C206  C     C_R   0.414336 0.599668 0.167664 -0.111245
C207  C     C_R   0.412230 0.613805 0.111100 -0.115195
C208  C     C_R   0.388701 0.589126 0.071045 -0.138518
C209  C     C_R   0.449818 0.367082 0.087317 0.162387
C210  C     C_R   0.463836 0.369332 0.144200 -0.106123
C211  C     C_R   0.439127 0.392922 0.184199 -0.141998
C212  C     C_R   0.365107 0.500901 0.000122 -0.164648
C213  C     C_R   0.400326 0.414354 0.167686 -0.111221
C214  C     C_R   0.386182 0.412237 0.111133 -0.115185
C215  C     C_R   0.410858 0.388701 0.071073 -0.138545
C216  C     C_R   0.632915 0.449811 0.087296 0.162384
C217  C     C_R   0.630668 0.463816 0.144185 -0.106119
C218  C     C_R   0.607081 0.439099 0.184186 -0.142006
C219  C     C_R   0.585648 0.400303 0.167671 -0.111239
C220  C     C_R   0.587760 0.386173 0.111111 -0.115196
C221  C     C_R   0.611293 0.410858 0.071048 -0.138548
C222  C     C_R   0.550187 0.632911 0.087276 0.162410
C223  C     C_R   0.413916 0.999997 0.500293 0.969486
C224  C     C_R   0.499095 0.365108 0.000125 -0.164642
C225  C     C_R   0.536155 0.630631 0.144156 -0.106082
C226  C     C_R   0.560864 0.607034 0.184151 -0.141995
C227  C     C_R   0.599676 0.585623 0.167637 -0.111189
C228  C     C_R   0.613832 0.587768 0.111085 -0.115196
C229  C     C_R   0.589157 0.611312 0.071029 -0.138582
C230  C     C_R   0.363504 0.454065 0.910478 0.155055
C231  C     C_R   0.377663 0.477049 0.861896 -0.091832
C232  C     C_R   0.398252 0.454514 0.817303 -0.142820
C233  C     C_R   0.404084 0.408825 0.820504 -0.124670
C234  C     C_R   0.389049 0.385589 0.868124 -0.133760
C235  C     C_R   0.634892 0.499093 0.000104 -0.164631
C236  C     C_R   0.368454 0.408058 0.912789 -0.155393
C237  C     C_R   0.454081 0.636506 0.910446 0.155077
C238  C     C_R   0.477060 0.622351 0.861865 -0.091826
C239  C     C_R   0.454521 0.601764 0.817280 -0.142821
C240  C     C_R   0.408833 0.595933 0.820488 -0.124659
C241  C     C_R   0.385602 0.610966 0.868107 -0.133758
C242  C     C_R   0.408075 0.631557 0.912764 -0.155426
C243  C     C_R   0.636502 0.545934 0.910444 0.155039
C244  C     C_R   0.622343 0.522951 0.861875 -0.091843
C245  C     C_R   0.601758 0.545488 0.817277 -0.142822
C246  C     C_R   0.500911 0.634892 0.000097 -0.164657
C247  C     C_R   0.595932 0.591177 0.820458 -0.124683
C248  C     C_R   0.610968 0.614412 0.868065 -0.133774
C249  C     C_R   0.631558 0.591941 0.912735 -0.155373
C250  C     C_R   0.545940 0.363501 0.910472 0.155064
C251  C     C_R   0.522965 0.377659 0.861890 -0.091818
C252  C     C_R   0.545509 0.398246 0.817294 -0.142832
C253  C     C_R   0.591197 0.404074 0.820491 -0.124680
C254  C     C_R   0.614424 0.389038 0.868112 -0.133770
C255  C     C_R   0.591946 0.368447 0.912780 -0.155424
C256  C     C_R   0.773095 0.999119 0.504550 0.011040
C257  C     C_R   0.000856 0.773095 0.504543 0.011041
C258  C     C_R   0.226903 0.000873 0.504517 0.011038
C259  C     C_R   0.999162 0.226903 0.504491 0.011052
C260  C     C_R   0.273096 0.499119 0.004552 0.011042
C261  C     C_R   0.500857 0.273095 0.004545 0.011044
C262  C     C_R   0.726903 0.500875 0.004519 0.011041
C263  C     C_R   0.000004 0.413916 0.500290 0.969478
C264  C     C_R   0.499157 0.726904 0.004485 0.011049
C265  C     C_R   0.999963 0.913442 0.499945 0.894393
C266  C     C_R   0.086558 0.999961 0.499937 0.894412
C267  C     C_R   0.000040 0.086558 0.499936 0.894410
C268  C     C_R   0.913442 0.000038 0.499943 0.894386
C269  C     C_R   0.499963 0.413442 0.999945 0.894388
C270  C     C_R   0.586558 0.499961 0.999938 0.894402
C271  C     C_R   0.500039 0.586558 0.999936 0.894400
C272  C     C_R   0.413442 0.500038 0.999944 0.894387
C273  C     C_R   0.500000 0.999997 0.609346 0.924450
C274  C     C_R   0.086084 0.500003 0.000294 0.969468
C275  C     C_R   0.999998 0.500001 0.609346 0.924434
C276  C     C_R   0.499999 0.000003 0.390654 0.922489
C277  C     C_R   0.000002 0.499999 0.390654 0.922493
C278  C     C_R   0.000000 0.499997 0.109346 0.924433
C279  C     C_R   0.499998 0.000001 0.109346 0.924450
C280  C     C_R   1.000000 0.500003 0.890654 0.922471
C281  C     C_R   0.500002 0.999999 0.890654 0.922506
C282  C     C_1   0.500003 0.999991 0.669556 -0.119774
C283  C     C_1   0.999993 0.500005 0.669556 -0.119791
C284  C     C_1   0.499997 0.000009 0.330442 -0.123775
C285  C     C_R   0.499996 0.086084 0.000293 0.969470
C286  C     C_1   0.000007 0.499995 0.330442 -0.123773
C287  C     C_1   0.000003 0.499991 0.169556 -0.119788
C288  C     C_1   0.499993 0.000005 0.169556 -0.119777
C289  C     C_1   0.999997 0.500009 0.830442 -0.123788
C290  C     C_1   0.500007 0.999995 0.830442 -0.123761
C291  C     C_1   0.500006 0.999989 0.720361 0.036166
C292  C     C_1   0.999992 0.500008 0.720361 0.036160
C293  C     C_1   0.499994 0.000011 0.279637 0.035134
C294  C     C_1   0.000007 0.499992 0.279637 0.035127
C295  C     C_1   0.000006 0.499989 0.220361 0.036157
C296  C     C_R   0.913916 0.499997 0.000293 0.969461
C297  C     C_1   0.499992 0.000008 0.220361 0.036168
C298  C     C_1   0.999994 0.500011 0.779637 0.035127
C299  C     C_1   0.500008 0.999992 0.779637 0.035136
C300  C     C_R   0.703286 0.027466 0.466226 -0.190644
C301  C     C_R   0.972524 0.703284 0.466223 -0.190655
C302  C     C_R   0.296725 0.972546 0.466196 -0.190649
C303  C     C_R   0.027488 0.296733 0.466184 -0.190670
C304  C     C_R   0.701950 0.972948 0.541959 -0.208030
C305  C     C_R   0.972969 0.298028 0.541907 -0.207998
C306  C     C_R   0.298037 0.027039 0.541933 -0.208013
C307  C     C_R   0.500004 0.913917 0.000290 0.969514
C308  C     C_R   0.027024 0.701952 0.541957 -0.208008
C309  C     C_R   0.203286 0.527469 0.966232 -0.190643
C310  C     C_R   0.472521 0.203284 0.966229 -0.190655
C311  C     C_R   0.796724 0.472539 0.966207 -0.190633
C312  C     C_R   0.527472 0.796734 0.966162 -0.190668
C313  C     C_R   0.201951 0.472944 0.041956 -0.208037
C314  C     C_R   0.472979 0.798029 0.041922 -0.207967
C315  C     C_R   0.798037 0.527050 0.041925 -0.208048
C316  C     C_R   0.527028 0.201952 0.041955 -0.208014
C317  C     C_R   0.657593 0.027379 0.464172 0.340420
C318  C     C_R   0.842679 0.023600 0.544333 -0.089287
C319  C     C_R   0.972619 0.657591 0.464168 0.340426
C320  C     C_R   0.342419 0.972634 0.464152 0.340413
C321  C     C_R   0.027390 0.342427 0.464143 0.340433
C322  C     C_R   0.656218 0.972940 0.541094 0.342973
C323  C     C_R   0.972950 0.343760 0.541056 0.342962
C324  C     C_R   0.343769 0.027047 0.541078 0.342968
C325  C     C_R   0.027040 0.656220 0.541091 0.342960
C326  C     C_R   0.157594 0.527382 0.964177 0.340423
C327  C     C_R   0.472616 0.157592 0.964173 0.340430
C328  C     C_R   0.842417 0.472626 0.964162 0.340421
Cl1   Cl    Cl    0.631664 0.060200 0.411985 -0.601714
Cl2   Cl    Cl    0.439809 0.131662 0.911988 -0.601718
Cl3   Cl    Cl    0.868362 0.439811 0.911988 -0.601700
Cl4   Cl    Cl    0.560175 0.868385 0.911932 -0.601733
Cl5   Cl    Cl    0.128434 0.439896 0.091434 -0.605280
Cl6   Cl    Cl    0.439936 0.871522 0.091442 -0.605277
Cl7   Cl    Cl    0.871537 0.560088 0.091415 -0.605281
Cl8   Cl    Cl    0.560077 0.128436 0.091431 -0.605276
Cl9   Cl    Cl    0.939816 0.631661 0.411979 -0.601724
Cl10  Cl    Cl    0.368365 0.939830 0.411968 -0.601714
Cl11  Cl    Cl    0.060204 0.368382 0.411967 -0.601723
Cl12  Cl    Cl    0.628434 0.939905 0.591442 -0.605280
Cl13  Cl    Cl    0.939905 0.371518 0.591406 -0.605267
Cl14  Cl    Cl    0.371538 0.060068 0.591434 -0.605286
Cl15  Cl    Cl    0.060069 0.628437 0.591438 -0.605275
Cl16  Cl    Cl    0.131665 0.560207 0.911994 -0.601706
H1    H     H_    0.721887 0.048112 0.437165 0.169090
H2    H     H_    0.451876 0.221885 0.937171 0.169087
H3    H     H_    0.928914 0.143788 0.598238 0.124624
H4    H     H_    0.887463 0.100047 0.527370 0.100635
H5    H     H_    0.993918 0.853035 0.657377 0.105709
H6    H     H_    0.950076 0.894631 0.727975 0.124775
H7    H     H_    0.881238 0.932585 0.698710 0.116493
H8    H     H_    0.856195 0.928918 0.598279 0.124637
H9    H     H_    0.899934 0.887460 0.527399 0.100652
H10   H     H_    0.146949 0.993888 0.657364 0.105711
H11   H     H_    0.105354 0.950024 0.727955 0.124776
H12   H     H_    0.067409 0.881193 0.698672 0.116491
H13   H     H_    0.778131 0.451895 0.937149 0.169094
H14   H     H_    0.071081 0.856180 0.598229 0.124642
H15   H     H_    0.112541 0.899940 0.527357 0.100655
H16   H     H_    0.006059 0.146882 0.657329 0.105683
H17   H     H_    0.049898 0.105265 0.727914 0.124756
H18   H     H_    0.118764 0.067366 0.698645 0.116473
H19   H     H_    0.143838 0.071107 0.598223 0.124641
H20   H     H_    0.100104 0.112590 0.527359 0.100684
H21   H     H_    0.872935 0.012358 0.358931 0.120974
H22   H     H_    0.909582 0.972450 0.280238 0.117536
H23   H     H_    0.920025 0.891390 0.285951 0.120143
H24   H     H_    0.548113 0.778148 0.937085 0.169091
H25   H     H_    0.893130 0.850142 0.370269 0.128803
H26   H     H_    0.855765 0.889619 0.448645 0.112316
H27   H     H_    0.012369 0.127086 0.358894 0.120971
H28   H     H_    0.972451 0.090445 0.280216 0.117535
H29   H     H_    0.891393 0.079998 0.285949 0.120137
H30   H     H_    0.850156 0.106884 0.370269 0.128801
H31   H     H_    0.889643 0.144242 0.448630 0.112305
H32   H     H_    0.127062 0.987644 0.358926 0.121005
H33   H     H_    0.090424 0.027558 0.280226 0.117537
H34   H     H_    0.079996 0.108620 0.285907 0.120143
H35   H     H_    0.219477 0.451780 0.071477 0.165949
H36   H     H_    0.106899 0.149864 0.370198 0.128801
H37   H     H_    0.144254 0.110380 0.448582 0.112315
H38   H     H_    0.987656 0.872940 0.358929 0.120988
H39   H     H_    0.027579 0.909582 0.280231 0.117539
H40   H     H_    0.108640 0.920013 0.285936 0.120151
H41   H     H_    0.149872 0.893108 0.370249 0.128812
H42   H     H_    0.110379 0.855749 0.448630 0.112323
H43   H     H_    0.353022 0.506066 0.157385 0.105715
H44   H     H_    0.394611 0.549906 0.227977 0.124774
H45   H     H_    0.432568 0.618743 0.198693 0.116486
H46   H     H_    0.451834 0.780487 0.071452 0.165974
H47   H     H_    0.428914 0.643786 0.098249 0.124617
H48   H     H_    0.387462 0.600049 0.027376 0.100630
H49   H     H_    0.493931 0.353041 0.157376 0.105707
H50   H     H_    0.450097 0.394643 0.227977 0.124770
H51   H     H_    0.381253 0.432592 0.198720 0.116489
H52   H     H_    0.356198 0.428916 0.098293 0.124631
H53   H     H_    0.399930 0.387453 0.027411 0.100648
H54   H     H_    0.646960 0.493907 0.157363 0.105719
H55   H     H_    0.605364 0.450057 0.227970 0.124777
H56   H     H_    0.567413 0.381223 0.198707 0.116495
H57   H     H_    0.780501 0.548207 0.071440 0.165948
H58   H     H_    0.571080 0.356193 0.098269 0.124630
H59   H     H_    0.612538 0.399941 0.027382 0.100640
H60   H     H_    0.506051 0.646905 0.157333 0.105676
H61   H     H_    0.549885 0.605292 0.227928 0.124756
H62   H     H_    0.618749 0.567380 0.198667 0.116480
H63   H     H_    0.643825 0.571104 0.098243 0.124632
H64   H     H_    0.600095 0.612582 0.027368 0.100670
H65   H     H_    0.372928 0.512358 0.858927 0.120966
H66   H     H_    0.409577 0.472450 0.780235 0.117535
H67   H     H_    0.420029 0.391391 0.785955 0.120137
H68   H     H_    0.548182 0.219479 0.071476 0.165957
H69   H     H_    0.393139 0.350143 0.870277 0.128797
H70   H     H_    0.355772 0.389620 0.948650 0.112308
H71   H     H_    0.512369 0.627084 0.858891 0.120965
H72   H     H_    0.472453 0.590441 0.780213 0.117534
H73   H     H_    0.391395 0.579990 0.785945 0.120134
H74   H     H_    0.350156 0.606876 0.870265 0.128798
H75   H     H_    0.389641 0.644237 0.948625 0.112305
H76   H     H_    0.627073 0.487642 0.858921 0.120989
H77   H     H_    0.590432 0.527553 0.780220 0.117537
H78   H     H_    0.579991 0.608613 0.785905 0.120139
H79   H     H_    0.774787 0.109355 0.542410 0.124295
H80   H     H_    0.606883 0.649858 0.870202 0.128794
H81   H     H_    0.644241 0.610377 0.948586 0.112309
H82   H     H_    0.487657 0.372927 0.858923 0.120972
H83   H     H_    0.527580 0.409571 0.780225 0.117540
H84   H     H_    0.608638 0.420017 0.785939 0.120146
H85   H     H_    0.649870 0.393126 0.870261 0.128805
H86   H     H_    0.610376 0.355764 0.948642 0.112310
H87   H     H_    0.734355 0.152362 0.615148 0.135488
H88   H     H_    0.708882 0.116174 0.703947 0.128802
H89   H     H_    0.951882 0.721884 0.437161 0.169088
H90   H     H_    0.724026 0.036732 0.720140 0.141744
H91   H     H_    0.764572 0.993383 0.647907 0.121040
H92   H     H_    0.890627 0.774781 0.542409 0.124293
H93   H     H_    0.847606 0.734355 0.615154 0.135486
H94   H     H_    0.883773 0.708896 0.703961 0.128794
H95   H     H_    0.963208 0.724048 0.720156 0.141735
H96   H     H_    0.006570 0.764589 0.647916 0.121033
H97   H     H_    0.225259 0.890651 0.542371 0.124309
H98   H     H_    0.265688 0.847638 0.615110 0.135502
H99   H     H_    0.291106 0.883796 0.703925 0.128804
H100  H     H_    0.278133 0.951908 0.437130 0.169094
H101  H     H_    0.275911 0.963216 0.720131 0.141735
H102  H     H_    0.235370 0.006572 0.647896 0.121027
H103  H     H_    0.109346 0.225276 0.542343 0.124330
H104  H     H_    0.152346 0.265692 0.615086 0.135540
H105  H     H_    0.116200 0.291080 0.703906 0.128827
H106  H     H_    0.036804 0.275868 0.720116 0.141748
H107  H     H_    0.993459 0.235337 0.647882 0.121044
H108  H     H_    0.752500 0.898429 0.472665 0.128769
H109  H     H_    0.708920 0.858444 0.400161 0.138077
H110  H     H_    0.700664 0.889403 0.303040 0.129400
H111  H     H_    0.048140 0.278147 0.437121 0.169089
H112  H     H_    0.736032 0.960687 0.278400 0.137804
H113  H     H_    0.779457 0.001196 0.350556 0.119602
H114  H     H_    0.898448 0.247474 0.472562 0.128757
H115  H     H_    0.858474 0.291064 0.400036 0.138067
H116  H     H_    0.889469 0.299363 0.302940 0.129400
H117  H     H_    0.960776 0.264028 0.278346 0.137816
H118  H     H_    0.001274 0.220592 0.350522 0.119598
H119  H     H_    0.247501 0.101565 0.472604 0.128770
H120  H     H_    0.291088 0.141559 0.400083 0.138071
H121  H     H_    0.299352 0.110611 0.302968 0.129391
H122  H     H_    0.719477 0.951788 0.571484 0.165953
H123  H     H_    0.263986 0.039331 0.278351 0.137802
H124  H     H_    0.220555 0.998812 0.350522 0.119604
H125  H     H_    0.101561 0.752506 0.472625 0.128767
H126  H     H_    0.141547 0.708925 0.400108 0.138072
H127  H     H_    0.110582 0.700660 0.303004 0.129396
H128  H     H_    0.039291 0.736019 0.278393 0.137808
H129  H     H_    0.998781 0.779446 0.350561 0.119597
H130  H     H_    0.274806 0.609359 0.042429 0.124292
H131  H     H_    0.234378 0.652364 0.115172 0.135486
H132  H     H_    0.208889 0.616169 0.203959 0.128802
H133  H     H_    0.951813 0.280485 0.571423 0.165972
H134  H     H_    0.224014 0.536722 0.220136 0.141749
H135  H     H_    0.264558 0.493375 0.147899 0.121047
H136  H     H_    0.390626 0.274797 0.042430 0.124291
H137  H     H_    0.347607 0.234375 0.115180 0.135487
H138  H     H_    0.383780 0.208903 0.203976 0.128795
H139  H     H_    0.463218 0.224039 0.220154 0.141739
H140  H     H_    0.506579 0.264577 0.147909 0.121039
H141  H     H_    0.725195 0.390633 0.042416 0.124294
H142  H     H_    0.765616 0.347617 0.115161 0.135489
H143  H     H_    0.791090 0.383797 0.203941 0.128802
H144  H     H_    0.280500 0.048188 0.571457 0.165962
H145  H     H_    0.775957 0.463239 0.220108 0.141747
H146  H     H_    0.735421 0.506597 0.147869 0.121046
H147  H     H_    0.609353 0.725304 0.042307 0.124307
H148  H     H_    0.652354 0.765726 0.115047 0.135497
H149  H     H_    0.616187 0.791089 0.203900 0.128803
H150  H     H_    0.536772 0.775847 0.220143 0.141717
H151  H     H_    0.493429 0.735314 0.147906 0.121005
H152  H     H_    0.252508 0.398425 0.972659 0.128765
H153  H     H_    0.208927 0.358442 0.900153 0.138077
H154  H     H_    0.200664 0.389408 0.803036 0.129401
H155  H     H_    0.048175 0.719480 0.571482 0.165960
H156  H     H_    0.236025 0.460697 0.778404 0.137806
H157  H     H_    0.279450 0.501205 0.850561 0.119602
H158  H     H_    0.398452 0.747486 0.972560 0.128764
H159  H     H_    0.358477 0.791074 0.900033 0.138065
H160  H     H_    0.389464 0.799358 0.802930 0.129396
H161  H     H_    0.460764 0.764010 0.778330 0.137810
H162  H     H_    0.501263 0.720576 0.850508 0.119593
H163  H     H_    0.747494 0.601570 0.972595 0.128767
H164  H     H_    0.791080 0.641560 0.900070 0.138070
H165  H     H_    0.799351 0.610603 0.802961 0.129391
H166  H     H_    0.221888 0.548118 0.937175 0.169090
H167  H     H_    0.763993 0.539316 0.778353 0.137804
H168  H     H_    0.720562 0.498802 0.850529 0.119603
H169  H     H_    0.601565 0.252513 0.972623 0.128763
H170  H     H_    0.641550 0.208931 0.900106 0.138073
H171  H     H_    0.610580 0.200659 0.803005 0.129397
H172  H     H_    0.539285 0.236013 0.778398 0.137809
H173  H     H_    0.498776 0.279440 0.850566 0.119596
H174  H     H_    0.853020 0.006075 0.657384 0.105717
H175  H     H_    0.894607 0.049920 0.727972 0.124780
H176  H     H_    0.932566 0.118753 0.698683 0.116490
O1    O     O_R   0.565460 0.036980 0.500020 -0.587529
O2    O     O_R   0.463020 0.065460 0.000020 -0.587530
O3    O     O_R   0.934540 0.463020 0.000020 -0.587525
O4    O     O_R   0.536980 0.934540 0.000020 -0.587555
O5    O     O_R   0.065460 0.463020 0.999980 -0.588344
O6    O     O_R   0.463020 0.934540 0.999980 -0.588352
O7    O     O_R   0.934540 0.536980 0.999980 -0.588337
O8    O     O_R   0.536980 0.065460 0.999980 -0.588342
O9    O     O_R   0.499990 0.036980 0.582790 -0.604013
O10   O     O_R   0.963020 0.499990 0.582790 -0.604032
O11   O     O_R   0.500010 0.963020 0.582790 -0.604010
O12   O     O_R   0.963020 0.565460 0.500020 -0.587534
O13   O     O_R   0.036980 0.500010 0.582790 -0.603996
O14   O     O_R   0.499990 0.963020 0.417210 -0.605252
O15   O     O_R   0.963020 0.500010 0.417210 -0.605272
O16   O     O_R   0.500010 0.036980 0.417210 -0.605285
O17   O     O_R   0.036980 0.499990 0.417210 -0.605261
O18   O     O_R   0.999990 0.536980 0.082790 -0.604009
O19   O     O_R   0.463020 0.999990 0.082790 -0.604032
O20   O     O_R   0.000010 0.463020 0.082790 -0.604010
O21   O     O_R   0.536980 0.000010 0.082790 -0.603997
O22   O     O_R   0.999990 0.463020 0.917210 -0.605253
O23   O     O_R   0.434540 0.963020 0.500020 -0.587536
O24   O     O_R   0.463020 0.000010 0.917210 -0.605273
O25   O     O_R   0.000010 0.536980 0.917210 -0.605282
O26   O     O_R   0.536980 0.999990 0.917210 -0.605261
O27   O     O_R   0.999990 0.934570 0.546740 -0.605556
O28   O     O_R   0.065430 0.999990 0.546740 -0.605545
O29   O     O_R   0.000010 0.065430 0.546740 -0.605568
O30   O     O_R   0.934570 0.000010 0.546740 -0.605553
O31   O     O_R   0.999990 0.065430 0.453260 -0.614483
O32   O     O_R   0.065430 0.000010 0.453260 -0.614507
O33   O     O_R   0.000010 0.934570 0.453260 -0.614496
O34   O     O_R   0.036980 0.434540 0.500020 -0.587538
O35   O     O_R   0.934570 0.999990 0.453260 -0.614491
O36   O     O_R   0.499990 0.434570 0.046740 -0.605560
O37   O     O_R   0.565430 0.499990 0.046740 -0.605549
O38   O     O_R   0.500010 0.565430 0.046740 -0.605565
O39   O     O_R   0.434570 0.500010 0.046740 -0.605553
O40   O     O_R   0.499990 0.565430 0.953260 -0.614482
O41   O     O_R   0.565430 0.500010 0.953260 -0.614499
O42   O     O_R   0.500010 0.434570 0.953260 -0.614487
O43   O     O_R   0.434570 0.499990 0.953260 -0.614488
O44   O     O_R   0.565460 0.963020 0.499980 -0.588349
O45   O     O_R   0.963020 0.434540 0.499980 -0.588333
O46   O     O_R   0.434540 0.036980 0.499980 -0.588348
O47   O     O_R   0.036980 0.565460 0.499980 -0.588346
O48   O     O_R   0.065460 0.536980 0.000020 -0.587524
Zn1   Zn    Zn3+2 0.500000 0.049380 0.500000 1.061708
Zn2   Zn    Zn3+2 1.000000 0.000000 0.437580 0.976521
Zn3   Zn    Zn3+2 0.500000 0.500000 0.062420 0.999000
Zn4   Zn    Zn3+2 0.500000 0.500000 0.937580 0.976535
Zn5   Zn    Zn3+2 0.950620 0.500000 0.500000 1.061716
Zn6   Zn    Zn3+2 0.500000 0.950620 0.500000 1.061706
Zn7   Zn    Zn3+2 0.049380 0.500000 0.500000 1.061706
Zn8   Zn    Zn3+2 0.000000 0.549380 0.000000 1.061723
Zn9   Zn    Zn3+2 0.450620 0.000000 0.000000 1.061708
Zn10  Zn    Zn3+2 1.000000 0.450620 0.000000 1.061718
Zn11  Zn    Zn3+2 0.549380 0.000000 0.000000 1.061697
Zn12  Zn    Zn3+2 1.000000 0.000000 0.562420 0.998995

loop_
_geom_bond_atom_site_label_1
_geom_bond_atom_site_label_2
_ccdc_geom_bond_type
C126  C127  A    
C110  H141  S    
C96   C102  A    
C247  H78   S    
C100  H134  S    
C73   H110  S    
C114  C115  A    
C248  C249  A    
C176  C182  A    
C144  H169  S    
C20   C305  A    
O41   Zn4   S    
C237  C242  A    
C319  Cl9   S    
C182  H26   S    
C34   C96   S    
C60   H99   S    
C321  Cl11  S    
C106  C107  A    
C14   C285  S    
C143  C144  A    
C82   H118  S    
C244  C245  A    
C12   C326  A    
C110  C111  A    
C308  C325  A    
C87   H123  S    
C6    C315  A    
C225  H60   S    
C122  H151  S    
C222  C229  A    
C157  C224  A    
C183  C188  A    
C230  C236  A    
C4    C12   A    
C37   C109  S    
C311  C328  A    
C325  Cl15  S    
C27   C50   S    
C83   C88   A    
C17   C300  A    
C199  C200  A    
C172  H17   S    
C285  O2    A    
O23   Zn6   S    
C254  H85   S    
C234  C236  A    
C32   C57   A    
C309  C326  A    
C168  C268  S    
C228  C229  A    
C273  O11   A    
C13   C163  S    
C76   C77   A    
C195  H37   S    
C268  O30   A    
C79   C212  A    
C15   C296  S    
C40   C135  A    
C280  O22   A    
O32   Zn2   S    
C278  C287  S    
C269  O42   A    
C119  H148  S    
C178  H22   S    
C140  C141  A    
C188  H31   S    
C116  H146  S    
C206  C207  A    
C144  C145  A    
C271  O38   A    
C317  Cl1   S    
C213  C214  A    
C104  H136  S    
C39   C124  A    
C135  C237  S    
C302  C320  A    
O20   Zn10  S    
C43   C44   A    
C316  H68   S    
C8    C322  A    
O19   Zn9   S    
C93   H127  S    
C229  H64   S    
C227  C228  A    
C25   C312  A    
C1    O1    A    
C216  C217  A    
C320  Cl10  S    
C154  C155  A    
C304  H122  S    
C185  H28   S    
C158  C159  A    
C206  H45   S    
C56   C62   A    
C251  H82   S    
C121  H150  S    
C266  O32   A    
C263  O34   A    
C67   C69   A    
C111  H142  S    
C32   C83   S    
C2    C156  S    
C305  C323  A    
C97   H130  S    
C72   C73   A    
O26   Zn11  S    
C266  O28   A    
C139  C140  A    
C283  C292  T    
C311  H13   S    
C280  C289  S    
C134  H161  S    
C8    C317  A    
C36   C261  A    
C156  C158  A    
C130  C131  A    
C217  C218  A    
C278  O20   A    
C98   H131  S    
C64   C65   A    
C31   C76   S    
C32   C258  A    
C11   C323  A    
C270  O37   A    
C148  C149  A    
C269  O36   A    
O13   Zn7   S    
C39   C260  A    
C322  Cl12  S    
C141  H167  S    
C296  O3    A    
C143  C149  A    
C200  C202  A    
C138  H163  S    
C307  O6    A    
C33   C257  A    
C42   C143  S    
C253  H84   S    
C187  C188  A    
C201  C267  S    
C302  H100  S    
C186  C187  A    
C193  H34   S    
C306  C324  A    
C151  C152  A    
C312  H24   S    
C274  O5    A    
C252  C253  A    
C137  C142  A    
C18   C301  A    
O38   Zn3   S    
C1    C8    S    
C324  Cl14  S    
C3    C312  A    
C213  H51   S    
C147  C148  A    
C214  H52   S    
C326  Cl16  S    
C128  C129  A    
C126  H153  S    
C97   C98   A    
C28   C56   S    
C167  C169  A    
C85   C86   A    
C3    Cl4   S    
C214  C215  A    
C209  C215  A    
C273  C282  S    
C152  H175  S    
C41   C262  A    
C276  O14   A    
C228  H63   S    
C253  C254  A    
C227  H62   S    
C78   C80   A    
C275  O10   A    
C170  C171  A    
C263  O45   A    
O36   Zn3   S    
C51   H92   S    
C7    C316  A    
C115  H145  S    
C66   H105  S    
C184  C185  A    
C286  C294  T    
C241  C242  A    
O17   Zn7   S    
O12   Zn5   S    
C189  C191  A    
C37   C262  A    
C92   C93   A    
C18   C257  S    
C164  H10   S    
C19   C306  A    
C216  C221  A    
C38   C117  S    
O45   Zn5   S    
C46   C201  A    
C41   C146  A    
C139  H164  S    
C287  C295  T    
O16   Zn1   S    
C31   C46   A    
C198  H39   S    
C107  C108  A    
O48   Zn8   S    
C89   C91   A    
C24   C170  S    
C233  C234  A    
C94   H128  S    
O35   Zn2   S    
C301  H89   S    
C9    C112  S    
C66   C67   A    
C26   C318  A    
C4    Cl5   S    
C173  C174  A    
C237  C238  A    
C307  O4    A    
C84   H119  S    
C6    Cl7   S    
C80   H116  S    
C42   C261  A    
C100  C102  A    
C220  C221  A    
O40   Zn4   S    
O5    Zn10  S    
O4    Zn11  S    
C24   C201  A    
C162  H9    S    
C215  H53   S    
C278  O18   A    
C76   C82   A    
C91   C92   A    
C265  O27   A    
C25   C264  S    
C171  H16   S    
C276  C284  S    
C222  C225  A    
C5    Cl6   S    
O39   Zn3   S    
C301  C319  A    
C13   C190  A    
C11   C321  A    
C85   H120  S    
C7    Cl8   S    
C117  C122  A    
C57   C189  S    
C33   C89   S    
C34   C79   A    
C313  H35   S    
C83   C84   A    
C17   C304  A    
O15   Zn5   S    
O7    Zn8   S    
C77   H114  S    
C35   C168  A    
C19   C302  A    
C34   C260  A    
C132  H159  S    
C52   C53   A    
C173  H18   S    
O22   Zn10  S    
C252  H83   S    
C279  O21   A    
C275  O13   A    
C221  H59   S    
C28   C258  A    
C150  C155  A    
C30   C256  A    
C101  C216  S    
C179  C265  S    
C120  C121  A    
C59   H98   S    
C239  H72   S    
C36   C90   A    
C191  C192  A    
C54   C55   A    
C186  H29   S    
C238  H71   S    
C276  O16   A    
C9    C325  A    
O2    Zn9   S    
C226  H61   S    
C4    C313  A    
C90   C209  S    
C106  H138  S    
C223  O46   A    
C23   C311  A    
C203  C208  A    
C68   C179  A    
O11   Zn6   S    
C274  O48   A    
C120  H149  S    
C281  O24   A    
C71   C72   A    
C117  C118  A    
C37   C101  A    
C127  H154  S    
C149  H173  S    
C240  C241  A    
C231  H65   S    
C187  H30   S    
O1    Zn1   S    
C61   C62   A    
C204  H43   S    
C236  H70   S    
C20   C259  S    
C63   C64   A    
C29   C259  A    
C161  H8    S    
C59   C60   A    
C204  C205  A    
C167  H14   S    
C226  C227  A    
C70   C75   A    
C150  C151  A    
O43   Zn4   S    
C242  H75   S    
C3    C16   A    
C33   C68   A    
O46   Zn1   S    
C87   C88   A    
C29   C63   S    
C17   C256  S    
C21   C313  A    
C243  C249  A    
C159  H6    S    
C73   C74   A    
C292  C298  S    
C239  C240  A    
C135  C246  A    
C65   H104  S    
C203  C204  A    
C161  C162  A    
C251  C252  A    
C181  C182  A    
C314  H46   S    
C267  O31   A    
C193  C194  A    
C165  C166  A    
C36   C103  S    
C164  C165  A    
C310  H2    S    
C112  O47   A    
C294  C295  S    
C128  H156  S    
C123  C125  A    
C212  C272  S    
C243  C244  A    
C98   C99   A    
O29   Zn12  S    
C160  H7    S    
C39   C123  S    
C275  C283  S    
C81   H117  S    
C175  H20   S    
C277  O17   A    
C24   C29   A    
C104  C105  A    
C109  C116  A    
C233  H67   S    
C224  C269  S    
O21   Zn11  S    
C163  C164  A    
C288  C297  T    
C13   C28   A    
C70   C71   A    
C10   C324  A    
C41   C137  S    
C281  C290  S    
C2    C27   A    
C45   C47   A    
C194  C195  A    
C21   C309  A    
C303  H111  S    
C71   H108  S    
C255  H86   S    
C328  Cl3   S    
C27   C257  A    
C145  C147  A    
C158  H5    S    
C170  C175  A    
C202  H42   S    
C200  H41   S    
C323  Cl13  S    
C44   C45   A    
C133  H160  S    
C192  H33   S    
C84   C85   A    
C248  H80   S    
C209  C210  A    
C246  C271  S    
C12   C274  S    
C219  C220  A    
C38   C113  A    
C86   C87   A    
C140  H165  S    
C124  C212  A    
C58   C59   A    
C53   C54   A    
C244  H76   S    
C51   C52   A    
C60   C61   A    
C89   C95   A    
C90   C224  A    
C254  C255  A    
C234  H69   S    
C14   C327  A    
C146  C235  A    
C273  O9    A    
C159  C160  A    
C86   H121  S    
C197  H38   S    
C247  C248  A    
C50   C51   A    
C62   H102  S    
C129  H157  S    
C190  C266  S    
C121  C122  A    
C10   C223  S    
C48   C49   A    
O30   Zn12  S    
C219  H56   S    
C279  O19   A    
C45   H87   S    
C22   C316  A    
C133  C134  A    
C309  H166  S    
C35   C176  S    
C131  C132  A    
C69   H107  S    
C180  C181  A    
C137  C138  A    
C267  O29   A    
C153  H176  S    
C40   C130  S    
C238  C239  A    
O37   Zn3   S    
C180  H23   S    
C305  H133  S    
C154  H3    S    
C118  H147  S    
C178  C180  A    
C119  C120  A    
O28   Zn12  S    
C105  C106  A    
C47   H88   S    
C281  O26   A    
C174  H19   S    
C250  C251  A    
C155  H4    S    
C26   C256  A    
C109  C110  A    
C279  C288  S    
C240  H73   S    
C136  H162  S    
C185  C186  A    
C232  C233  A    
C111  C114  A    
C293  C297  S    
C94   C95   A    
C163  C169  A    
C113  C222  S    
C138  C139  A    
C217  H54   S    
C282  C291  T    
C165  H11   S    
C78   H115  S    
C177  C178  A    
C25   C314  A    
C103  C104  A    
C207  C208  A    
C31   C259  A    
C108  H140  S    
C304  C322  A    
O34   Zn7   S    
C115  C116  A    
O9    Zn1   S    
O24   Zn9   S    
C61   H101  S    
C171  C172  A    
C93   C94   A    
C131  H158  S    
C95   H129  S    
C218  H55   S    
C183  C184  A    
C157  C250  S    
C64   H103  S    
C19   C258  S    
C81   C82   A    
C205  C206  A    
C235  C270  S    
C191  H32   S    
C125  H152  S    
C30   C35   A    
C223  O23   A    
C289  C298  T    
C271  O40   A    
C184  H27   S    
C74   H112  S    
O33   Zn2   S    
C277  O15   A    
C22   C261  S    
C220  H58   S    
C113  C246  A    
C196  C197  A    
O3    Zn10  S    
C189  C195  A    
C118  C119  A    
C5    C16   A    
O18   Zn8   S    
C145  H170  S    
C174  C175  A    
C7    C14   A    
C10   C320  A    
C310  C327  A    
C112  O12   A    
C56   C58   A    
C132  C133  A    
O47   Zn7   S    
C146  C243  S    
C101  C235  A    
C16   C307  S    
C306  H144  S    
C198  C199  A    
C192  C193  A    
C11   C263  S    
C210  H49   S    
C291  C299  S    
C30   C70   S    
C265  O33   A    
C280  O25   A    
C77   C78   A    
C6    C15   A    
C156  C162  A    
C91   H125  S    
C9    C319  A    
C53   H94   S    
C123  C129  A    
C197  C198  A    
C26   C43   S    
C147  H171  S    
C20   C303  A    
C74   C75   A    
O10   Zn5   S    
C63   C69   A    
C168  C318  A    
C99   H132  S    
C68   C196  S    
C88   H124  S    
C308  H155  S    
C54   H95   S    
C43   C49   A    
C134  C136  A    
C23   C262  S    
O31   Zn2   S    
C205  H44   S    
C230  C231  A    
C49   H91   S    
C46   C183  S    
C38   C264  A    
O14   Zn6   S    
C207  H47   S    
C99   C100  A    
C208  H48   S    
C272  O43   A    
O27   Zn12  S    
C96   C97   A    
C48   H90   S    
C225  C226  A    
C75   H113  S    
C18   C308  A    
C22   C310  A    
O8    Zn11  S    
C152  C153  A    
C23   C315  A    
C15   C328  A    
C103  C108  A    
C5    C314  A    
C315  H57   S    
C176  C177  A    
C211  C213  A    
C181  H25   S    
C210  C211  A    
C268  O35   A    
C79   C203  S    
C166  C167  A    
C270  O41   A    
C2    C179  A    
C196  C202  A    
C114  H143  S    
C142  H168  S    
C172  C173  A    
C166  H12   S    
C296  O7    A    
C250  C255  A    
C151  H174  S    
C232  H66   S    
C72   H109  S    
C285  O8    A    
C211  H50   S    
C130  C136  A    
C290  C299  T    
C169  H15   S    
C80   C81   A    
C47   C48   A    
C107  H139  S    
C327  Cl2   S    
C249  H81   S    
C55   H96   S    
C21   C260  S    
C92   H126  S    
C105  H137  S    
C300  C317  A    
C150  C318  S    
C67   H106  S    
C277  C286  S    
C50   C55   A    
O42   Zn4   S    
C160  C161  A    
C245  C247  A    
C241  H74   S    
C57   C190  A    
O44   Zn6   S    
C141  C142  A    
C58   H97   S    
C40   C264  A    
C218  C219  A    
C125  C126  A    
C284  C293  T    
C148  H172  S    
O25   Zn8   S    
C272  O39   A    
O6    Zn9   S    
C102  H135  S    
C1    O44   A    
C194  H36   S    
C199  H40   S    
C42   C157  A    
C52   H93   S    
C177  H21   S    
C65   C66   A    
C303  C321  A    
C231  C232  A    
C153  C154  A    
C124  C230  S    
C300  H1    S    
C127  C128  A    
C245  H77   S    
C44   H79   S    
