data_mof_unit_35567.cif
_audit_creation_date              2012-12-11T19:38:28-0500
_audit_creation_method            fapswitch 2.2
_symmetry_space_group_name_H-M    P1
_symmetry_Int_Tables_number       1
_space_group_crystal_system       triclinic
_cell_length_a                    8.880062
_cell_length_b                    15.75673
_cell_length_c                    22.651956
_cell_angle_alpha                 99.361491
_cell_angle_beta                  89.522561
_cell_angle_gamma                 101.388632
_cell_volume                      3064.76450931

loop_
_atom_site_label
_atom_site_type_symbol
_atom_type_description
_atom_site_fract_x
_atom_site_fract_y
_atom_site_fract_z
_atom_type_partial_charge
Ba1   Ba    Ba6+2 0.856850 0.543240 0.473390 1.996461
Ba2   Ba    Ba6+2 0.332990 0.456830 0.526620 1.947285
C1    C     C_3   0.735817 0.809601 0.238176 0.669241
C2    C     C_R   0.139429 0.565769 0.938318 -0.085621
C3    C     C_R   0.076982 0.575211 0.882444 0.664891
C4    C     C_3   0.227884 0.770444 0.321161 0.944569
C5    C     C_R   0.867839 0.456168 0.888758 0.680296
C6    C     C_R   0.925889 0.444343 0.944326 -0.055168
C7    C     C_R   0.061197 0.499725 0.969514 -0.099675
C8    C     C_R   0.276632 0.620900 0.964811 0.400900
C9    C     C_R   0.322825 0.614791 0.022488 0.001749
C10   C     C_R   0.243760 0.550439 0.054122 -0.117321
C11   C     C_R   0.115919 0.490618 0.026885 -0.106249
C12   C     C_3   0.677472 0.756911 0.288782 0.615910
C13   C     C_R   0.851369 0.377321 0.974896 -0.116108
C14   C     C_R   0.909715 0.364423 0.029951 0.422244
C15   C     C_R   0.042972 0.422267 0.057052 -0.014144
C16   C     C_3   0.303017 0.847873 0.290525 0.267799
C17   C     C_R   0.104207 0.414947 0.113963 0.596759
C18   C     C_R   0.289648 0.546704 0.113019 0.678972
C19   C     C_2   0.762397 0.503514 0.772409 -0.086829
C20   C     C_3   0.723386 0.495044 0.706435 -0.065239
C21   C     C_1   0.001169 0.522706 0.687315 -0.135187
C22   C     C_2   0.034371 0.519697 0.745195 0.278490
C23   C     C_3   0.420147 0.232044 0.335421 0.715839
C24   C     C_2   0.910276 0.514516 0.791879 0.273916
C25   C     C_R   0.407736 0.520656 0.231470 -0.089024
C26   C     C_R   0.441631 0.550525 0.292851 -0.001430
C27   C     C_R   0.177635 0.488077 0.315486 0.115073
C28   C     C_3   0.288673 0.737811 0.679220 0.590427
C29   C     C_R   0.137867 0.471443 0.253186 0.458334
C30   C     C_R   0.254210 0.487040 0.209101 0.178711
C31   C     C_2   0.858742 0.484629 0.667103 0.096466
C32   C     C_R   0.797127 0.175835 0.562260 -0.044457
C33   C     C_R   0.750297 0.081759 0.552384 0.003405
C34   C     C_3   0.451071 0.187816 0.270691 0.645431
C35   C     C_R   0.646962 0.891523 0.533373 0.042136
C36   C     C_R   0.779221 0.933377 0.569547 0.445917
C37   C     C_R   0.827908 0.026311 0.578198 -0.083407
C38   C     C_R   0.585081 0.797259 0.522825 0.136112
C39   C     C_R   0.441434 0.765492 0.493494 -0.139859
C40   C     C_3   0.240565 0.743534 0.744498 -0.219704
C41   C     C_R   0.578770 0.191781 0.503155 0.125049
C42   C     C_R   0.536880 0.095895 0.490358 0.025734
C43   C     C_R   0.620199 0.041773 0.516244 0.002848
C44   C     C_R   0.405554 0.051147 0.456965 0.337490
C45   C     C_3   0.109992 0.220910 0.676155 0.274307
C46   C     C_R   0.374692 0.961930 0.438871 -0.023315
C47   C     C_R   0.436003 0.909069 0.470922 -0.003888
C48   C     C_R   0.568864 0.947255 0.506880 0.017362
C49   C     C_R   0.363324 0.820556 0.469330 -0.013830
C50   C     C_R   0.703971 0.227734 0.541882 -0.147245
C51   C     C_3   0.013412 0.244442 0.355844 0.558111
C52   C     C_3   0.970544 0.164800 0.303574 0.886176
C53   C     C_3   0.746111 0.669923 0.651069 0.300508
C54   C     C_3   0.825877 0.712055 0.711290 0.367529
C55   C     C_3   0.117594 0.154558 0.717389 -0.243311
C56   C     C_3   0.622707 0.258938 0.696932 0.693969
C57   C     C_3   0.537512 0.165432 0.673636 0.185233
C58   C     C_R   0.325291 0.535105 0.334361 -0.118040
H1    H     H_    0.206399 0.678055 0.756433 0.067470
H2    H     H_    0.552694 0.734045 0.281349 0.006666
H3    H     H_    0.304188 0.203105 0.344519 -0.074673
H4    H     H_    0.365812 0.200019 0.239386 0.000703
H5    H     H_    0.211126 0.275558 0.685346 0.120968
H6    H     H_    0.004685 0.247840 0.687221 0.020918
H7    H     H_    0.127658 0.187849 0.764726 0.143586
H8    H     H_    0.012448 0.102326 0.711368 0.145769
H9    H     H_    0.217021 0.122787 0.707008 0.138249
H10   H     H_    0.705371 0.282568 0.663289 0.092621
H11   H     H_    0.620998 0.123268 0.657922 0.035866
H12   H     H_    0.337572 0.780102 0.774744 0.173898
H13   H     H_    0.472766 0.137369 0.710546 0.128897
H14   H     H_    0.747578 0.333642 0.955532 0.117579
H15   H     H_    0.425451 0.659613 0.041695 0.191049
H16   H     H_    0.501910 0.526114 0.200948 0.152341
H17   H     H_    0.669684 0.504406 0.803799 0.164295
H18   H     H_    0.354631 0.551497 0.381670 0.048932
H19   H     H_    0.923477 0.054661 0.608277 0.099461
H20   H     H_    0.275634 0.935816 0.410003 0.067357
H21   H     H_    0.388414 0.696727 0.489770 0.001613
H22   H     H_    0.743825 0.297610 0.547920 0.061075
H23   H     H_    0.142328 0.777336 0.752579 0.128061
H24   H     H_    0.214232 0.885752 0.283199 0.087021
H25   H     H_    0.394003 0.890746 0.319899 0.114304
H26   H     H_    0.390477 0.706708 0.672252 0.066999
H27   H     H_    0.936206 0.901115 0.403278 0.412733
H28   H     H_    0.760679 0.289415 0.332857 0.401972
H29   H     H_    0.849767 0.137943 0.228656 0.367356
H30   H     H_    0.071302 0.984598 0.300667 0.369402
H31   H     H_    0.114418 0.201402 0.242735 0.346156
H32   H     H_    0.608438 0.849277 0.806531 0.376810
H33   H     H_    0.718352 0.918061 0.212092 0.379075
H34   H     H_    0.115116 0.243790 0.382262 0.048542
H35   H     H_    0.385518 0.346754 0.238396 0.329948
H36   H     H_    0.531882 0.045666 0.175028 0.342886
H37   H     H_    0.593738 0.213411 0.207393 0.322732
H38   H     H_    0.835104 0.749435 0.082188 0.370795
H39   H     H_    0.373610 0.868076 0.211948 0.395472
H40   H     H_    0.659202 0.230329 0.851647 0.373796
H41   H     H_    0.385414 0.102012 0.615212 0.349688
H42   H     H_    0.018457 0.703092 0.181642 0.396126
H43   H     H_    0.743934 0.263925 0.033995 0.308455
H44   H     H_    0.384257 0.650816 0.894767 0.358807
H45   H     H_    0.834130 0.645599 0.621388 -0.022316
H46   H     H_    0.254253 0.545728 0.743934 0.345190
H47   H     H_    0.961490 0.473302 0.205122 0.329892
H48   H     H_    0.418951 0.773173 0.363088 0.243894
H49   H     H_    0.914926 0.419466 0.593877 0.314222
H50   H     H_    0.943719 0.923163 0.623001 0.309609
H51   H     H_    0.206697 0.081551 0.382050 0.328434
H52   H     H_    0.156921 0.843847 0.601436 0.360733
H53   H     H_    0.652413 0.613911 0.655906 0.011253
H54   H     H_    0.859772 0.835255 0.245861 0.139692
H55   H     H_    0.897298 0.668813 0.725631 -0.136825
H56   H     H_    0.903269 0.774893 0.706191 0.071287
N1    N     N_R   0.950081 0.515943 0.855504 -0.403447
N2    N     N_R   0.216745 0.481595 0.144443 -0.444763
O1    O     O_2   0.889550 0.449610 0.359390 -0.343465
O2    O     O_2   0.039923 0.191745 0.508660 -0.250995
O3    O     O_3   0.112213 0.179728 0.616229 -0.542205
O4    O     O_3   0.130110 0.450560 0.430470 -0.460908
O5    O     O_3   0.576420 0.610430 0.532020 -0.511508
O6    O     O_2   0.341600 0.276000 0.466340 -0.391979
O7    O     O_3   0.519471 0.216340 0.379368 -0.572657
O8    O     O_2   0.407918 0.448073 0.700889 -0.431411
O9    O     O_3   0.513741 0.312872 0.712694 -0.575735
O10   O     O_2   0.132237 0.638047 0.858698 -0.545700
O11   O     O_2   0.742797 0.413360 0.870494 -0.518864
O12   O     O_3   0.681674 0.732510 0.628684 -0.570972
O13   O     O_2   0.057651 0.349257 0.136105 -0.464380
O14   O     O_2   0.393957 0.603652 0.136687 -0.469226
O15   O     O_3   0.674110 0.616450 0.398780 -0.424986
O16   O     O_2   0.735532 0.527015 0.297501 -0.339112
O17   O     O_3   0.041717 0.316843 0.326370 -0.624900
O18   O     O_3   0.751469 0.685353 0.287261 -0.546236
O19   O     O_2   0.848090 0.724020 0.533700 -0.414450
O20   O     O_3   0.092920 0.663620 0.428750 -0.446243
O21   O     O_2   0.045873 0.819036 0.476759 -0.401282
O22   O     O_2   0.635513 0.900522 0.367085 -0.281033
O23   O     O_3   0.131219 0.801000 0.366510 -0.613354
O24   O     O_2   0.699471 0.779897 0.409755 -0.385751
O25   O     O_3   0.912324 0.876584 0.360597 -0.458188
O26   O     O_2   0.777908 0.168757 0.417586 -0.314384
O27   O     O_2   0.932420 0.310859 0.464298 -0.361420
O28   O     O_3   0.757483 0.309421 0.376105 -0.487360
O29   O     O_3   0.858655 0.181780 0.265986 -0.661784
O30   O     O_2   0.925832 0.051808 0.387542 -0.218979
O31   O     O_2   0.727806 0.038274 0.312755 -0.084150
O32   O     O_3   0.977194 0.986474 0.278531 -0.467046
O33   O     O_3   0.101992 0.157444 0.270162 -0.748874
O34   O     O_2   0.300150 0.550420 0.640640 -0.499268
O35   O     O_2   0.552917 0.661504 0.762627 -0.361442
O36   O     O_2   0.772140 0.737525 0.828606 -0.258357
O37   O     O_3   0.644889 0.830002 0.766057 -0.450851
O38   O     O_3   0.664718 0.881641 0.240760 -0.615792
O39   O     O_2   0.377414 0.391184 0.388325 -0.364449
O40   O     O_2   0.589604 0.386765 0.320260 -0.281306
O41   O     O_3   0.317566 0.346846 0.273301 -0.647202
O42   O     O_2   0.431585 0.043091 0.319925 -0.315846
O43   O     O_2   0.271234 0.031066 0.230285 -0.293638
O44   O     O_3   0.560875 0.038312 0.215745 -0.444999
O45   O     O_3   0.059600 0.549520 0.569540 -0.444713
O46   O     O_3   0.596688 0.223539 0.251850 -0.672287
O47   O     O_2   0.703706 0.651934 0.164084 -0.302510
O48   O     O_2   0.561484 0.760408 0.137334 -0.212665
O49   O     O_3   0.854486 0.787000 0.121983 -0.496252
O50   O     O_3   0.366116 0.819754 0.235633 -0.600436
O51   O     O_2   0.782876 0.166289 0.754483 -0.362051
O52   O     O_2   0.864083 0.325475 0.773743 -0.335251
O53   O     O_3   0.608961 0.253875 0.820756 -0.448588
O54   O     O_3   0.436262 0.164539 0.627027 -0.723074
O55   O     O_2   0.225564 0.651475 0.227500 -0.314308
O56   O     O_3   0.515600 0.383630 0.601220 -0.444606
O57   O     O_2   0.010839 0.625909 0.295189 -0.275594
O58   O     O_3   0.017934 0.738765 0.221882 -0.497701
O59   O     O_3   0.834495 0.297695 0.058636 -0.649854
O60   O     O_3   0.370356 0.680828 0.935833 -0.647054
O61   O     O_3   0.174685 0.506111 0.762381 -0.669819
O62   O     O_3   0.984650 0.442398 0.237629 -0.631146
O63   O     O_3   0.336599 0.727844 0.341886 -0.804577
O64   O     O_3   0.826188 0.444205 0.608798 -0.745518
O65   O     O_3   0.857404 0.884164 0.598527 -0.688877
O66   O     O_2   0.113266 0.013002 0.489134 -0.284559
O67   O     O_3   0.165778 0.693158 0.639818 -0.673535
O68   O     O_2   0.278833 0.153406 0.529629 -0.255930
O69   O     O_3   0.190975 0.125371 0.416896 -0.499317
O70   O     O_2   0.286944 0.912812 0.709647 -0.299236
O71   O     O_2   0.515458 0.872804 0.661543 -0.245774
O72   O     O_3   0.269433 0.853511 0.596166 -0.545756
O73   O     O_3   0.613290 0.389640 0.467990 -0.365586
O74   O     O_3   0.096790 0.336450 0.571260 -0.464791
P1    P     P_3+3 0.056000 0.422550 0.367550 1.250058
P2    P     P_3+3 0.670460 0.710570 0.550500 1.105365
P3    P     P_3+3 0.162749 0.775895 0.437632 1.085515
P4    P     P_3+3 0.133720 0.577520 0.632450 0.951202
P5    P     P_3+3 0.002876 0.228073 0.572729 1.077556
P6    P     P_3+3 0.643574 0.598671 0.320080 1.189893
P7    P     P_3+3 0.515528 0.271425 0.455525 1.252660
P8    P     P_3+3 0.548017 0.408757 0.679468 1.086077
S1    S     S_3+6 0.726972 0.829518 0.358785 -0.053550
S2    S     S_3+6 0.240249 0.085091 0.475316 -0.054420
S3    S     S_3+6 0.343586 0.847747 0.662994 -0.072887
S4    S     S_3+6 0.867342 0.255008 0.406881 -0.064097
S5    S     S_3+6 0.897530 0.059337 0.323726 0.066906
S6    S     S_3+6 0.694098 0.733174 0.769244 -0.061099
S7    S     S_3+6 0.429752 0.343916 0.331699 -0.150992
S8    S     S_3+6 0.424382 0.071614 0.260299 -0.038856
S9    S     S_3+6 0.708148 0.747711 0.163924 -0.024350
S10   S     S_3+6 0.727485 0.251528 0.762485 -0.104633
S11   S     S_3+6 0.115150 0.692838 0.266151 -0.007532

loop_
_geom_bond_atom_site_label_1
_geom_bond_atom_site_label_2
_ccdc_geom_bond_type
H49   O64   S    
C1    S9    S    
C53   C54   S    
O15   P6    S    
H47   O62   S    
O4    P1    S    
H27   O25   S    
C5    N1    Am   
Ba1   P1    S    
O39   S7    D    
C24   N1    S    
C23   H3    S    
H30   O32   S    
O37   S6    S    
O9    P8    S    
C18   N2    Am   
C5    C6    A    
C38   P2    S    
C51   C52   S    
O71   S3    D    
C28   S3    S    
O69   S2    S    
C58   H18   S    
H48   O63   S    
C53   H45   S    
H35   O41   S    
O40   S7    D    
O45   P4    S    
C20   P8    S    
O73   P7    S    
C32   C33   A    
C35   C38   A    
O48   S9    D    
O23   P3    S    
C36   C37   A    
C41   C50   A    
C45   O3    S    
O42   S8    D    
H42   O58   S    
C13   C14   A    
C12   H2    S    
C12   S1    S    
O68   S2    D    
H41   O54   S    
O16   P6    D    
Ba1   Ba2   S    
C34   S8    S    
C7    C11   A    
Ba1   O4    S    
O28   S4    S    
C32   C50   A    
C28   O67   S    
O26   S4    D    
H44   O60   S    
C17   N2    Am   
C42   C44   A    
C14   C15   A    
C21   C31   D    
C51   O17   S    
C21   P4    S    
Ba2   O4    S    
C16   H24   S    
C21   C22   D    
O43   S8    D    
O57   S11   D    
C28   H26   S    
C57   H13   S    
C45   H6    S    
O18   P6    S    
H38   O49   S    
C52   S5    S    
C34   H4    S    
C56   S10   S    
C51   H34   S    
C56   O9    S    
C19   C20   S    
H40   O53   S    
Ba2   O34   S    
O55   S11   D    
C55   H7    S    
Ba1   O15   S    
O6    P7    D    
C19   C24   D    
O21   P3    D    
C26   C58   A    
C17   O13   D    
C4    C16   S    
C44   C46   A    
C16   H25   S    
O66   S2    D    
O34   P4    D    
C4    O63   S    
C51   S4    S    
O24   S1    D    
Ba2   O73   S    
O49   S9    S    
O31   S5    D    
O53   S10   S    
C16   O50   S    
C6    C7    A    
O7    P7    S    
C4    S11   S    
C53   H53   S    
C47   C49   A    
C56   C57   S    
O20   P3    S    
C26   P6    S    
C36   O65   S    
C3    N1    Am   
O1    P1    D    
C8    O60   S    
C18   O14   D    
C33   C37   A    
C41   C42   A    
Ba1   O5    S    
Ba1   O1    S    
C35   C36   A    
O17   P1    S    
C29   C30   A    
O52   S10   D    
C27   C58   A    
C53   O12   S    
C39   H21   S    
C10   C18   A    
C22   O61   S    
C40   H12   S    
O2    P5    D    
C54   H56   S    
O5    P2    S    
O74   P5    S    
C4    O23   S    
C50   H22   S    
C40   H1    S    
O3    P5    S    
O36   S6    D    
C1    C12   S    
O30   S5    D    
Ba1   O73   S    
C38   C39   A    
O25   S1    S    
C39   C49   A    
H50   O65   S    
C6    C13   A    
C55   H8    S    
C2    C8    A    
C25   H16   S    
C33   C43   A    
H46   O61   S    
C25   C26   A    
Ba1   O19   S    
C42   C43   A    
H39   O50   S    
O8    P8    D    
H29   O29   S    
C20   C31   S    
O19   P2    D    
C46   C47   A    
O44   S8    S    
C25   C30   A    
O56   P8    S    
H33   O38   S    
C56   H10   S    
C40   H23   S    
C22   C24   S    
O32   S5    S    
C30   N2    S    
C2    C3    A    
O12   P2    S    
C1    H54   S    
Ba2   O45   S    
O27   S4    D    
C41   P7    S    
C9    C10   A    
O41   S7    S    
C52   O33   S    
Ba2   O6    S    
Ba2   O74   S    
O70   S3    D    
H51   O69   S    
O58   S11   S    
C11   C15   A    
C29   O62   S    
H37   O46   S    
C55   H9    S    
C46   H20   S    
Ba1   P2    S    
C27   C29   A    
C9    H15   S    
O22   S1    D    
Ba2   O56   S    
H31   O33   S    
C35   C48   A    
C32   P5    S    
O47   S9    D    
C57   H11   S    
C12   O18   S    
C43   C48   A    
C27   P1    S    
O51   S10   D    
C3    O10   D    
C23   O7    S    
C1    O38   S    
C15   C17   A    
C54   H55   S    
H36   O44   S    
H32   O37   S    
Ba2   P4    S    
C14   O59   S    
O72   S3    S    
C5    O11   D    
C8    C9    A    
C23   C34   S    
H52   O72   S    
O35   S6    D    
C44   S2    S    
C13   H14   S    
C54   S6    S    
C10   C11   A    
Ba1   O45   S    
C47   C48   A    
C19   H17   S    
C31   O64   S    
C34   O46   S    
H28   O28   S    
C28   C40   S    
C49   P3    S    
O67   P4    S    
H43   O59   S    
C2    C7    A    
C23   S7    S    
C45   C55   S    
C45   H5    S    
Ba2   O5    S    
Ba1   O20   S    
C57   O54   S    
C37   H19   S    
C52   O29   S    
