data_mof_unit_57340.cif
_audit_creation_date              2013-03-05T16:02:49-0500
_audit_creation_method            fapswitch 2.2
_symmetry_space_group_name_H-M    P1
_symmetry_Int_Tables_number       1
_space_group_crystal_system       triclinic
_cell_length_a                    6.963752
_cell_length_b                    14.558122
_cell_length_c                    15.926443
_cell_angle_alpha                 90.000406
_cell_angle_beta                  90.148292
_cell_angle_gamma                 90.000062
_cell_volume                      1614.60386495

loop_
_atom_site_label
_atom_site_type_symbol
_atom_site_description
_atom_site_fract_x
_atom_site_fract_y
_atom_site_fract_z
_atom_type_partial_charge
O1    O     O_R   0.611670 0.415650 0.164070 -0.564680
O2    O     O_R   0.388330 0.915650 0.835930 -0.564666
O3    O     O_R   0.940950 0.405490 0.337780 -0.601325
O4    O     O_R   0.059050 0.905490 0.662220 -0.601328
O5    O     O_R   0.111350 0.584350 0.338470 -0.600219
O6    O     O_R   0.888650 0.084350 0.661530 -0.600226
C1    C     C_R   0.771770 0.382322 0.366339 0.820958
C2    C     C_R   0.228228 0.882327 0.633656 0.820960
O7    O     O_R   0.941380 0.404630 0.164680 -0.541668
O8    O     O_R   0.058620 0.904630 0.835320 -0.541666
O9    O     O_R   0.111780 0.583470 0.164130 -0.562476
O10   O     O_R   0.888220 0.083470 0.835870 -0.562439
C3    C     C_R   0.772239 0.384094 0.134887 0.958439
C4    C     C_R   0.227762 0.884094 0.865114 0.958499
O11   O     O_R   0.611240 0.416530 0.338400 -0.600908
O12   O     O_R   0.388760 0.916530 0.661600 -0.600916
O13   O     O_3   0.778020 0.558680 0.251290 -0.280247
O14   O     O_3   0.221980 0.058680 0.748710 -0.280245
V1    V     V_3+5 0.052840 0.489110 0.251260 1.198145
V2    V     V_3+5 0.947160 0.989110 0.748740 1.198162
O15   O     O_R   0.441500 0.594510 0.164760 -0.599182
O16   O     O_R   0.558500 0.094510 0.835240 -0.599170
C5    C     C_R   0.272904 0.612698 0.133241 1.053247
C6    C     C_R   0.727098 0.112712 0.866748 1.053174
O17   O     O_R   0.441080 0.595370 0.337860 -0.600838
O18   O     O_R   0.558920 0.095370 0.662140 -0.600841
C7    C     C_R   0.272446 0.617393 0.367378 0.820977
C8    C     C_R   0.727553 0.117386 0.632616 0.820951
V3    V     V_3+5 0.552850 0.510890 0.251270 1.177863
V4    V     V_3+5 0.447150 0.010890 0.748730 1.177873
O19   O     O_3   0.277800 0.441320 0.251250 -0.256835
O20   O     O_3   0.722200 0.941320 0.748750 -0.256846
C9    C     C_3   0.141928 0.650206 0.513454 -0.351892
C10   C     C_3   0.858394 0.150264 0.486602 -0.351872
H1    H     H_    0.993883 0.633375 0.491893 0.152570
H2    H     H_    0.006431 0.133533 0.508243 0.152614
H3    H     H_    0.207156 0.585425 0.537266 0.124094
H4    H     H_    0.793420 0.085437 0.462758 0.124099
C11   C     C_3   0.130585 0.721620 0.586064 -0.361461
C12   C     C_3   0.869741 0.221678 0.413993 -0.361447
H5    H     H_    0.192521 0.691274 0.644150 0.132929
H6    H     H_    0.808070 0.191287 0.355870 0.132944
H7    H     H_    0.977272 0.737515 0.599273 0.156639
H8    H     H_    0.023052 0.237674 0.400874 0.156677
H9    H     H_    0.021671 0.764134 0.382185 0.153050
H10   H     H_    0.977961 0.264286 0.617924 0.152989
H11   H     H_    0.997426 0.866924 0.491063 0.146036
H12   H     H_    0.002197 0.367094 0.509059 0.145970
C13   C     C_3   0.167164 0.778361 0.408171 -0.367570
C14   C     C_3   0.832493 0.278417 0.591864 -0.367627
C15   C     C_3   0.465077 0.712128 0.473053 -0.353021
C16   C     C_3   0.534945 0.211978 0.526823 -0.353052
C17   C     C_3   0.262101 0.687736 0.438705 0.141101
C18   C     C_3   0.737898 0.187725 0.561285 0.141149
H13   H     H_    0.556198 0.739902 0.421631 0.154545
H14   H     H_    0.443591 0.239702 0.578191 0.154590
C19   C     C_3   0.240154 0.811107 0.563102 0.133057
C20   C     C_3   0.759844 0.311097 0.436888 0.133055
C21   C     C_3   0.151208 0.849463 0.480791 -0.357099
C22   C     C_3   0.848438 0.349522 0.519247 -0.357088
C23   C     C_3   0.452537 0.784179 0.544365 -0.335527
C24   C     C_3   0.547481 0.284026 0.455508 -0.335531
H15   H     H_    0.520961 0.755782 0.602052 0.145816
H16   H     H_    0.479318 0.255573 0.397783 0.145740
H17   H     H_    0.255050 0.808334 0.356879 0.132898
H18   H     H_    0.744387 0.308337 0.643114 0.132939
H19   H     H_    0.225842 0.914038 0.462568 0.125639
H20   H     H_    0.773547 0.414046 0.537426 0.125660
H21   H     H_    0.417755 0.593479 0.742592 0.130605
H22   H     H_    0.582217 0.093468 0.257370 0.130622
C25   C     C_R   0.190800 0.932870 0.040619 0.011152
C26   C     C_R   0.809321 0.432879 0.959390 0.011077
C27   C     C_R   0.155400 0.958390 0.123331 -0.123195
C28   C     C_R   0.844712 0.458401 0.876677 -0.123168
C29   C     C_R   0.147058 0.891959 0.185606 -0.144777
C30   C     C_R   0.852992 0.391974 0.814396 -0.144754
C31   C     C_R   0.179463 0.800020 0.165796 -0.165617
C32   C     C_R   0.820555 0.300036 0.834199 -0.165605
C33   C     C_R   0.215729 0.771942 0.081982 0.114518
C34   C     C_R   0.784298 0.271957 0.918013 0.114584
C35   C     C_R   0.211858 0.839428 0.017708 0.185543
C36   C     C_R   0.788198 0.339438 0.982293 0.185580
C37   C     C_R   0.259322 0.678941 0.062474 -0.306528
C38   C     C_R   0.740680 0.178959 0.937514 -0.306523
C39   C     C_R   0.292566 0.652143 0.976766 -0.045333
C40   C     C_R   0.707416 0.152161 0.023216 -0.045288
C41   C     C_R   0.288075 0.721728 0.913008 0.113664
C42   C     C_R   0.711907 0.221738 0.086979 0.113680
C43   C     C_R   0.240553 0.813841 0.932969 -0.235950
C44   C     C_R   0.759457 0.313847 0.067028 -0.235962
C45   C     C_R   0.331860 0.559133 0.950596 0.295113
C46   C     C_R   0.668117 0.059152 0.049371 0.295195
C47   C     C_R   0.380160 0.540800 0.866745 -0.188488
C48   C     C_R   0.619807 0.040804 0.133213 -0.188571
C49   C     C_R   0.382320 0.609582 0.807103 -0.214784
C50   C     C_R   0.617645 0.109579 0.192863 -0.214766
C51   C     C_R   0.333315 0.698357 0.829175 -0.145352
C52   C     C_R   0.666667 0.198357 0.170807 -0.145367
H23   H     H_    0.203317 0.987381 0.994727 0.109286
H24   H     H_    0.796850 0.487389 0.005287 0.109262
H25   H     H_    0.118911 0.912046 0.249826 0.115659
H26   H     H_    0.881120 0.412060 0.750174 0.115675
H27   H     H_    0.176275 0.751510 0.217092 0.090646
H28   H     H_    0.823704 0.251529 0.782900 0.090617
H29   H     H_    0.409641 0.471242 0.846390 0.171500
H30   H     H_    0.590344 0.971240 0.153553 0.171494
H31   H     H_    0.333538 0.748737 0.779321 0.094823
H32   H     H_    0.666455 0.248729 0.220669 0.094818
H33   H     H_    0.535769 0.846235 0.525870 0.147577
H34   H     H_    0.464000 0.346027 0.473949 0.147654
H35   H     H_    0.135888 0.030107 0.139172 0.127579
H36   H     H_    0.864264 0.530117 0.860841 0.127562
N1    N     N_R   0.306683 0.480732 0.004096 0.212590
O21   O     O_R   0.408105 0.407299 0.991544 -0.444800
O22   O     O_R   0.144032 0.469908 0.041435 -0.438214
N2    N     N_R   0.693390 0.980766 0.995873 0.212605
O23   O     O_R   0.591932 0.907333 0.008362 -0.444802
O24   O     O_R   0.856124 0.969952 0.958610 -0.438253
H37   H     H_    0.536852 0.649054 0.497168 0.139677
H38   H     H_    0.463421 0.148850 0.502677 0.139602

loop_
_geom_bond_atom_site_label_1
_geom_bond_atom_site_label_2
_geom_bond_distance
_ccdc_geom_bond_type
C20   C24   1.559649 S    
C33   C37   1.422067 A    
C3    C44   1.490388 S    
O13   V3    1.715445 S    
C15   C23   1.548648 S    
O4    C2    1.308201 A    
V1    O19   1.714111 S    
C26   H24   1.082553 S    
C39   C45   1.443129 A    
C11   H5    1.111286 S    
O9    V1    1.996031 S    
C14   C18   1.553259 S    
C13   H17   1.111257 S    
C10   C12   1.557208 S    
C38   C40   1.438936 A    
O3    C1    1.308204 A    
C28   H36   1.082762 S    
C32   C34   1.419304 A    
C19   C21   1.552343 S    
C20   C22   1.552372 S    
C11   C19   1.553887 S    
C52   H32   1.080913 S    
N2    O23   1.297044 A    
C23   H15   1.113451 S    
C29   C31   1.393670 A    
O7    C3    1.303451 A    
C24   H16   1.113469 S    
C21   H19   1.113062 S    
O5    C7    1.303533 A    
O7    V1    2.002714 S    
O6    C8    1.303538 A    
O8    V2    2.002727 S    
C50   C52   1.382378 A    
C15   H37   1.113331 S    
O3    V1    1.998347 S    
O14   V4    1.715446 S    
C1    C20   1.531354 S    
C15   H13   1.113351 S    
C34   C38   1.422045 A    
H12   C22   1.113175 S    
C47   H29   1.083057 S    
C12   H6    1.111327 S    
C23   H33   1.113454 S    
C2    O12   1.301198 A    
C7    C17   1.531272 S    
O17   V3    2.006429 S    
C27   C29   1.386607 A    
O1    V3    2.005455 S    
C16   C18   1.555427 S    
O11   V3    1.993775 S    
C39   C41   1.434638 A    
C9    C17   1.556038 S    
C12   C20   1.553921 S    
C40   C42   1.434598 A    
C32   H28   1.080163 S    
C27   H35   1.082760 S    
C34   C36   1.419058 A    
O8    C4    1.303465 A    
C33   C35   1.419046 A    
C8    C18   1.531285 S    
O13   V1    2.165258 S    
C11   H7    1.113020 S    
C1    O11   1.301201 A    
C25   H23   1.082549 S    
C9    H3    1.112957 S    
C45   N1    1.435367 S    
C15   C17   1.555390 S    
O4    V2    1.998336 S    
H22   C50   1.082901 S    
C4    C43   1.490421 S    
C2    C19   1.531346 S    
C45   C47   1.403603 A    
C46   N2    1.435250 S    
C24   H34   1.113471 S    
H9    C13   1.112895 S    
O10   V2    1.996017 S    
C46   C48   1.403517 A    
C31   C33   1.419324 A    
C9    C11   1.557205 S    
C48   C50   1.380322 A    
C14   H18   1.111301 S    
C5    C37   1.486174 S    
C16   H38   1.113352 S    
C26   C28   1.391320 A    
C37   C39   1.438992 A    
C42   C44   1.417488 A    
C10   C18   1.556091 S    
O15   C5    1.302866 A    
O16   C6    1.302858 A    
C31   H27   1.080156 S    
O1    C3    1.296167 A    
C28   C30   1.386625 A    
C25   C27   1.391314 A    
N1    O21   1.297068 A    
V2    O20   1.714109 S    
O10   C6    1.298018 A    
C48   H30   1.083044 S    
O16   V4    1.993985 S    
C10   H4    1.112981 S    
C30   C32   1.393666 A    
H21   C49   1.082946 S    
C36   C44   1.414741 A    
C49   C51   1.382372 A    
C19   C23   1.559621 S    
O5    V1    2.003660 S    
C25   C35   1.416137 A    
O17   C7    1.306024 A    
O6    V2    2.003675 S    
H10   C14   1.112915 S    
O18   C8    1.306031 A    
C13   C21   1.556317 S    
O2    V4    2.005470 S    
C14   C22   1.556322 S    
C41   C43   1.417513 A    
C6    C38   1.486174 S    
C35   C43   1.414736 A    
V3    O19   2.166669 S    
C40   C46   1.443066 A    
V4    O20   2.166672 S    
O15   V3    1.993996 S    
C13   C17   1.553236 S    
O9    C5    1.298029 A    
C9    H1    1.113092 S    
C10   H2    1.113118 S    
N2    O24   1.290223 A    
O14   V2    2.165255 S    
O2    C4    1.296165 A    
C42   C52   1.414123 A    
H11   C21   1.113156 S    
C51   H31   1.080911 S    
C12   H8    1.113038 S    
C22   H20   1.113083 S    
C47   C49   1.380311 A    
C29   H25   1.082161 S    
C16   C24   1.548666 S    
C30   H26   1.082164 S    
C41   C51   1.414170 A    
O12   V4    1.993761 S    
C26   C36   1.416151 A    
C16   H14   1.113374 S    
N1    O22   1.290310 A    
O18   V4    2.006439 S    
