data_mof_unit_62818.cif
_audit_creation_date              2012-12-10T19:53:34-0500
_audit_creation_method            fapswitch 2.2
_symmetry_space_group_name_H-M    P1
_symmetry_Int_Tables_number       1
_space_group_crystal_system       triclinic
_cell_length_a                    18.396454
_cell_length_b                    18.396371
_cell_length_c                    42.987896
_cell_angle_alpha                 90.000088
_cell_angle_beta                  90.000105
_cell_angle_gamma                 89.998712
_cell_volume                      14548.3073572

loop_
_atom_site_label
_atom_site_type_symbol
_atom_type_description
_atom_site_fract_x
_atom_site_fract_y
_atom_site_fract_z
_atom_type_partial_charge
C1    C     C_R   1.000000 0.500000 0.915821 0.782674
C2    C     C_R   0.500000 0.000002 0.118443 -0.141033
C3    C     C_R   0.757634 0.811664 0.019660 -0.225913
C4    C     C_R   0.811664 0.757634 0.019660 -0.225908
C5    C     C_R   0.757743 0.188227 0.019591 -0.222026
C6    C     C_R   0.188336 0.242366 0.019660 -0.225907
C7    C     C_R   0.242257 0.811773 0.019590 -0.222004
C8    C     C_R   0.688227 0.257744 0.519590 -0.222007
C9    C     C_R   0.742367 0.688336 0.519660 -0.225915
C10   C     C_R   0.311773 0.742257 0.519590 -0.222016
C11   C     C_R   0.257633 0.311664 0.519660 -0.225914
C12   C     C_R   0.311663 0.257633 0.519660 -0.225914
C13   C     C_R   0.499997 0.000002 0.618444 -0.140962
C14   C     C_R   0.257743 0.688227 0.519590 -0.222000
C15   C     C_R   0.688336 0.742366 0.519660 -0.225913
C16   C     C_R   0.742257 0.311773 0.519590 -0.221995
C17   C     C_3   0.353908 0.705314 0.958126 -0.476135
C18   C     C_3   0.294452 0.353677 0.957975 -0.477219
C19   C     C_3   0.646092 0.294684 0.958126 -0.476136
C20   C     C_3   0.705547 0.646324 0.957975 -0.477218
C21   C     C_3   0.646323 0.705548 0.957975 -0.477216
C22   C     C_3   0.705315 0.353907 0.958126 -0.476137
C23   C     C_3   0.353676 0.294453 0.957975 -0.477216
C24   C     C_R   0.000000 0.500000 0.618443 -0.141108
C25   C     C_3   0.294685 0.646092 0.958126 -0.476133
C26   C     C_3   0.853908 0.205314 0.458126 -0.476140
C27   C     C_3   0.794452 0.853677 0.457975 -0.477221
C28   C     C_3   0.146092 0.794685 0.458126 -0.476141
C29   C     C_3   0.205548 0.146324 0.457975 -0.477220
C30   C     C_3   0.146324 0.205548 0.457975 -0.477217
C31   C     C_3   0.205315 0.853907 0.458126 -0.476138
C32   C     C_3   0.853676 0.794453 0.457975 -0.477222
C33   C     C_3   0.794685 0.146092 0.458126 -0.476138
C34   C     C_R   0.011815 0.564608 0.134878 -0.295206
C35   C     C_R   0.500018 0.000009 0.781744 0.266399
C36   C     C_R   0.435372 0.988363 0.134883 -0.295239
C37   C     C_R   0.988129 0.435423 0.134886 -0.295674
C38   C     C_R   0.564627 0.011649 0.134883 -0.295302
C39   C     C_R   0.511644 0.064631 0.634882 -0.295300
C40   C     C_R   0.935354 0.488467 0.634883 -0.295226
C41   C     C_R   0.488341 0.935378 0.634885 -0.295405
C42   C     C_R   0.064647 0.511533 0.634883 -0.295223
C43   C     C_R   0.010146 0.565673 0.167497 0.487470
C44   C     C_R   0.434324 0.990031 0.167503 0.487604
C45   C     C_R   0.989769 0.434386 0.167512 0.487790
C46   C     C_R   0.000001 0.500002 0.781747 0.266427
C47   C     C_R   0.565673 0.009989 0.167504 0.487643
C48   C     C_R   0.509979 0.065682 0.667503 0.487579
C49   C     C_R   0.934311 0.490133 0.667503 0.487623
C50   C     C_R   0.490001 0.934334 0.667506 0.487657
C51   C     C_R   0.065691 0.509867 0.667503 0.487620
C52   C     C_3   0.968634 0.679483 0.178854 -0.276680
C53   C     C_3   0.320621 0.031865 0.178847 -0.276712
C54   C     C_3   0.030660 0.320155 0.178636 -0.276718
C55   C     C_3   0.679438 0.968267 0.178826 -0.276776
C56   C     C_3   0.468239 0.179448 0.678817 -0.276687
C57   C     C_R   0.000065 0.500034 0.281741 0.266404
C58   C     C_3   0.820697 0.532176 0.678864 -0.276744
C59   C     C_3   0.531588 0.820469 0.678769 -0.276708
C60   C     C_3   0.179300 0.467820 0.678866 -0.276759
C61   C     C_R   0.499997 0.000003 0.281745 0.266433
C62   C     C_R   0.000018 0.500044 0.218565 0.391123
C63   C     C_R   0.499996 0.000008 0.218569 0.390873
C64   C     C_R   0.500006 0.000012 0.718568 0.390956
C65   C     C_R   0.500001 0.000000 0.915821 0.782672
C66   C     C_R   0.000001 0.500001 0.718571 0.390748
C67   C     C_R   0.489435 0.065003 0.832608 -0.164304
C68   C     C_R   0.935008 0.510618 0.832609 -0.164311
C69   C     C_R   0.510595 0.935007 0.832606 -0.164301
C70   C     C_R   0.064992 0.489384 0.832609 -0.164313
C71   C     C_R   0.989524 0.565024 0.332608 -0.164296
C72   C     C_R   0.435001 0.010586 0.332608 -0.164301
C73   C     C_R   0.010583 0.435012 0.332603 -0.164289
C74   C     C_R   0.564996 0.989417 0.332608 -0.164306
C75   C     C_R   0.489722 0.065043 0.865048 -0.194149
C76   C     C_R   0.500000 0.000000 0.415821 0.782675
C77   C     C_R   0.934966 0.510324 0.865049 -0.194154
C78   C     C_R   0.510296 0.934962 0.865046 -0.194149
C79   C     C_R   0.065034 0.489677 0.865049 -0.194155
C80   C     C_R   0.989795 0.565056 0.365048 -0.194143
C81   C     C_R   0.434960 0.010292 0.365048 -0.194147
C82   C     C_R   0.010269 0.434962 0.365044 -0.194145
C83   C     C_R   0.565038 0.989709 0.365047 -0.194149
C84   C     C_R   0.500006 0.000001 0.881559 -0.001199
C85   C     C_R   1.000000 0.500000 0.881560 -0.001178
C86   C     C_R   0.000020 0.500005 0.381558 -0.001214
C87   C     C_R   0.000003 0.500000 0.415821 0.782677
C88   C     C_R   0.499999 0.000000 0.381559 -0.001191
C89   C     C_R   0.500018 0.000006 0.816060 0.094076
C90   C     C_R   0.000000 0.500001 0.816062 0.094067
C91   C     C_R   0.000063 0.500023 0.316058 0.094075
C92   C     C_R   0.499998 0.000002 0.316061 0.094067
C93   C     C_R   0.999997 0.500001 0.084166 0.847757
C94   C     C_R   0.500000 0.000000 0.084166 0.847775
C95   C     C_R   0.499999 0.000000 0.584166 0.847766
C96   C     C_R   0.000000 0.500000 0.584166 0.847782
C97   C     C_R   0.860098 0.639968 0.000009 0.806794
C98   C     C_R   0.999970 0.500038 0.184089 -0.159412
C99   C     C_R   0.360032 0.860097 0.000010 0.808031
C100  C     C_R   0.139902 0.360032 0.000009 0.806806
C101  C     C_R   0.639968 0.139903 0.000010 0.808026
C102  C     C_R   0.139903 0.639968 0.000010 0.808031
C103  C     C_R   0.639968 0.860098 0.000009 0.806797
C104  C     C_R   0.860097 0.360032 0.000010 0.808021
C105  C     C_R   0.360032 0.139902 0.000009 0.806793
C106  C     C_R   0.360098 0.139968 0.500009 0.806794
C107  C     C_R   0.860032 0.360097 0.500010 0.808032
C108  C     C_R   0.639902 0.860032 0.500009 0.806795
C109  C     C_R   0.499997 0.000011 0.184092 -0.159630
C110  C     C_R   0.139968 0.639903 0.500010 0.808031
C111  C     C_R   0.639903 0.139968 0.500010 0.808031
C112  C     C_R   0.139968 0.360098 0.500009 0.806792
C113  C     C_R   0.360097 0.860032 0.500010 0.808029
C114  C     C_R   0.860032 0.639902 0.500009 0.806791
C115  C     C_R   0.256376 0.691776 0.981567 0.133334
C116  C     C_R   0.308144 0.256296 0.981515 0.133428
C117  C     C_R   0.743623 0.308223 0.981567 0.133332
C118  C     C_R   0.691856 0.743704 0.981515 0.133427
C119  C     C_R   0.743704 0.691856 0.981514 0.133427
C120  C     C_R   0.499993 0.000011 0.684091 -0.159532
C121  C     C_R   0.691777 0.256376 0.981567 0.133332
C122  C     C_R   0.256296 0.308144 0.981515 0.133426
C123  C     C_R   0.308223 0.743623 0.981567 0.133332
C124  C     C_R   0.756376 0.191777 0.481567 0.133335
C125  C     C_R   0.808144 0.756297 0.481515 0.133430
C126  C     C_R   0.243624 0.808223 0.481566 0.133335
C127  C     C_R   0.191856 0.243704 0.481515 0.133429
C128  C     C_R   0.243704 0.191856 0.481515 0.133428
C129  C     C_R   0.191777 0.756376 0.481566 0.133335
C130  C     C_R   0.756296 0.808144 0.481515 0.133429
C131  C     C_R   0.000001 0.500000 0.684092 -0.159704
C132  C     C_R   0.808223 0.243623 0.481567 0.133333
C133  C     C_R   0.194974 0.696063 0.000220 -0.082828
C134  C     C_R   0.303947 0.194983 0.000226 -0.081830
C135  C     C_R   0.805026 0.303938 0.000220 -0.082809
C136  C     C_R   0.696053 0.805017 0.000226 -0.081831
C137  C     C_R   0.805017 0.696053 0.000226 -0.081832
C138  C     C_R   0.696063 0.194974 0.000220 -0.082816
C139  C     C_R   0.194983 0.303947 0.000226 -0.081828
C140  C     C_R   0.303937 0.805026 0.000220 -0.082828
C141  C     C_R   0.694974 0.196063 0.500220 -0.082835
C142  C     C_R   0.999988 0.500008 0.118443 -0.140830
C143  C     C_R   0.803947 0.694983 0.500226 -0.081834
C144  C     C_R   0.305026 0.803937 0.500220 -0.082831
C145  C     C_R   0.196053 0.305017 0.500226 -0.081833
C146  C     C_R   0.305017 0.196053 0.500226 -0.081834
C147  C     C_R   0.196063 0.694974 0.500220 -0.082834
C148  C     C_R   0.694983 0.803947 0.500226 -0.081833
C149  C     C_R   0.803937 0.305026 0.500220 -0.082837
C150  C     C_R   0.188227 0.757743 0.019590 -0.222013
C151  C     C_R   0.242366 0.188336 0.019660 -0.225912
C152  C     C_R   0.811772 0.242257 0.019591 -0.222056
H1    H     H_    0.141594 0.764449 0.034695 0.177831
H2    H     H_    0.735738 0.641779 0.534814 0.176394
H3    H     H_    0.358406 0.735551 0.534695 0.177833
H4    H     H_    0.264262 0.358220 0.534815 0.176394
H5    H     H_    0.358220 0.264262 0.534814 0.176394
H6    H     H_    0.264449 0.641594 0.534695 0.177846
H7    H     H_    0.641780 0.735737 0.534814 0.176390
H8    H     H_    0.735551 0.358407 0.534695 0.177849
H9    H     H_    0.357616 0.735794 0.935856 0.210190
H10   H     H_    0.263828 0.357241 0.935737 0.208349
H11   H     H_    0.642385 0.264204 0.935856 0.210190
H12   H     H_    0.235737 0.141779 0.034814 0.176387
H13   H     H_    0.736171 0.642760 0.935736 0.208349
H14   H     H_    0.642759 0.736172 0.935737 0.208351
H15   H     H_    0.735795 0.357614 0.935856 0.210193
H16   H     H_    0.357240 0.263829 0.935737 0.208350
H17   H     H_    0.264205 0.642384 0.935856 0.210191
H18   H     H_    0.857616 0.235794 0.435856 0.210187
H19   H     H_    0.763828 0.857241 0.435737 0.208353
H20   H     H_    0.142384 0.764204 0.435856 0.210187
H21   H     H_    0.236172 0.142761 0.435736 0.208354
H22   H     H_    0.142760 0.236173 0.435736 0.208358
H23   H     H_    0.858406 0.235552 0.034695 0.177794
H24   H     H_    0.235794 0.857615 0.435856 0.210191
H25   H     H_    0.857240 0.763829 0.435737 0.208356
H26   H     H_    0.764206 0.142383 0.435856 0.210190
H27   H     H_    0.406596 0.686790 0.968001 0.203461
H28   H     H_    0.313037 0.406429 0.967766 0.203753
H29   H     H_    0.593404 0.313209 0.968000 0.203460
H30   H     H_    0.686962 0.593571 0.967765 0.203752
H31   H     H_    0.593571 0.686963 0.967765 0.203751
H32   H     H_    0.686790 0.406596 0.968000 0.203460
H33   H     H_    0.406429 0.313038 0.967765 0.203751
H34   H     H_    0.764263 0.858220 0.034814 0.176387
H35   H     H_    0.313210 0.593403 0.968001 0.203462
H36   H     H_    0.906596 0.186790 0.468001 0.203458
H37   H     H_    0.813037 0.906429 0.467766 0.203748
H38   H     H_    0.093404 0.813209 0.468000 0.203458
H39   H     H_    0.186963 0.093572 0.467764 0.203748
H40   H     H_    0.093571 0.186963 0.467765 0.203746
H41   H     H_    0.186790 0.906596 0.468000 0.203458
H42   H     H_    0.906429 0.813037 0.467765 0.203747
H43   H     H_    0.813210 0.093403 0.468001 0.203459
H44   H     H_    0.023193 0.614468 0.122409 0.184335
H45   H     H_    0.858220 0.764262 0.034814 0.176392
H46   H     H_    0.385472 0.977139 0.122417 0.184355
H47   H     H_    0.976715 0.385578 0.122415 0.184064
H48   H     H_    0.614522 0.022881 0.122417 0.184316
H49   H     H_    0.522878 0.114525 0.622415 0.184329
H50   H     H_    0.885434 0.477329 0.622418 0.184394
H51   H     H_    0.477097 0.885487 0.622417 0.184264
H52   H     H_    0.114567 0.522670 0.622418 0.184395
H53   H     H_    0.481360 0.116017 0.820526 0.151444
H54   H     H_    0.884000 0.518725 0.820527 0.151446
H55   H     H_    0.518674 0.883995 0.820524 0.151444
H56   H     H_    0.764448 0.141594 0.034696 0.177818
H57   H     H_    0.116000 0.481277 0.820528 0.151445
H58   H     H_    0.981492 0.616047 0.320528 0.151443
H59   H     H_    0.383989 0.018668 0.320527 0.151445
H60   H     H_    0.018627 0.383996 0.320520 0.151443
H61   H     H_    0.616008 0.981335 0.320526 0.151440
H62   H     H_    0.481528 0.115989 0.877178 0.158461
H63   H     H_    0.884024 0.518547 0.877178 0.158456
H64   H     H_    0.518486 0.884015 0.877176 0.158459
H65   H     H_    0.115976 0.481454 0.877179 0.158456
H66   H     H_    0.981634 0.616007 0.377178 0.158470
H67   H     H_    0.141780 0.235737 0.034814 0.176377
H68   H     H_    0.384014 0.018489 0.377178 0.158461
H69   H     H_    0.018415 0.384005 0.377172 0.158461
H70   H     H_    0.615985 0.981512 0.377177 0.158458
H71   H     H_    0.914715 0.655013 0.184329 0.156855
H72   H     H_    0.968899 0.701725 0.154823 0.151600
H73   H     H_    0.976753 0.725803 0.195005 0.196220
H74   H     H_    0.298296 0.031543 0.154831 0.151643
H75   H     H_    0.345258 0.085742 0.184261 0.156810
H76   H     H_    0.274335 0.023953 0.195034 0.196219
H77   H     H_    0.085017 0.344347 0.183515 0.156203
H78   H     H_    0.235551 0.858407 0.034695 0.177835
H79   H     H_    0.029006 0.297305 0.154721 0.152089
H80   H     H_    0.023027 0.274304 0.195072 0.196239
H81   H     H_    0.701790 0.968701 0.154814 0.151657
H82   H     H_    0.654866 0.914341 0.184203 0.156785
H83   H     H_    0.725698 0.976183 0.195026 0.196211
H84   H     H_    0.414305 0.154858 0.684167 0.156700
H85   H     H_    0.468716 0.201831 0.654811 0.151698
H86   H     H_    0.476111 0.225688 0.695032 0.196224
H87   H     H_    0.798434 0.531997 0.654836 0.151595
H88   H     H_    0.845424 0.585983 0.684328 0.156857
H89   H     H_    0.641594 0.264449 0.534695 0.177841
H90   H     H_    0.774356 0.524283 0.695023 0.196228
H91   H     H_    0.585624 0.844989 0.683983 0.156559
H92   H     H_    0.530790 0.797941 0.654789 0.151810
H93   H     H_    0.523819 0.774339 0.695050 0.196234
H94   H     H_    0.201554 0.467980 0.654837 0.151587
H95   H     H_    0.154573 0.414018 0.684339 0.156868
H96   H     H_    0.225650 0.475722 0.695021 0.196225
N1    N     N_R   0.022141 0.440595 0.234693 -0.129447
N2    N     N_R   0.059484 0.477897 0.765650 -0.179535
N3    N     N_R   0.477922 0.059498 0.765648 -0.179527
N4    N     N_R   0.940517 0.522106 0.765649 -0.179531
N5    N     N_R   0.022053 0.440512 0.265638 -0.179483
N6    N     N_R   0.559495 0.977937 0.265647 -0.179528
N7    N     N_R   0.978063 0.559563 0.265647 -0.179544
N8    N     N_R   0.440498 0.022071 0.265648 -0.179523
N9    N     N_R   0.559415 0.977830 0.234702 -0.129841
N10   N     N_R   0.977931 0.559490 0.234702 -0.130103
N11   N     N_R   0.440577 0.022183 0.234703 -0.129882
N12   N     N_R   0.522216 0.940603 0.734699 -0.129729
N13   N     N_R   0.059405 0.477787 0.734704 -0.129875
N14   N     N_R   0.477805 0.059421 0.734702 -0.129876
N15   N     N_R   0.940597 0.522216 0.734704 -0.129865
N16   N     N_R   0.522111 0.940522 0.765645 -0.179512
O1    O     O_3   0.000000 0.500000 0.999980 -0.476305
O2    O     O_R   0.000000 0.560770 0.430670 -0.646692
O3    O     O_R   0.439230 0.000000 0.430670 -0.646689
O4    O     O_R   0.000000 0.439230 0.430670 -0.646686
O5    O     O_R   0.000000 0.560690 0.069300 -0.647988
O6    O     O_R   0.439310 0.000000 0.069300 -0.647982
O7    O     O_R   1.000000 0.439310 0.069300 -0.647974
O8    O     O_R   0.560690 0.000000 0.069300 -0.647985
O9    O     O_R   0.500000 0.060690 0.569300 -0.647987
O10   O     O_R   0.939310 0.500000 0.569300 -0.647987
O11   O     O_R   0.500000 0.939310 0.569300 -0.647982
O12   O     O_3   0.500000 0.000000 0.999980 -0.476308
O13   O     O_R   0.060690 0.500000 0.569300 -0.647989
O14   O     O_R   0.853850 0.585430 0.981810 -0.643958
O15   O     O_R   0.414570 0.853850 0.981810 -0.643236
O16   O     O_R   0.146150 0.414570 0.981810 -0.643956
O17   O     O_R   0.585430 0.146150 0.981810 -0.643235
O18   O     O_R   0.146150 0.585430 0.981810 -0.643232
O19   O     O_R   0.585430 0.853850 0.981810 -0.643956
O20   O     O_R   0.853850 0.414570 0.981810 -0.643230
O21   O     O_R   0.414570 0.146150 0.981810 -0.643956
O22   O     O_R   0.353850 0.085430 0.481810 -0.643956
O23   O     O_3   0.500000 0.000000 0.499980 -0.476308
O24   O     O_R   0.914570 0.353850 0.481810 -0.643239
O25   O     O_R   0.646150 0.914570 0.481810 -0.643956
O26   O     O_R   0.085430 0.646150 0.481810 -0.643240
O27   O     O_R   0.646150 0.085430 0.481810 -0.643235
O28   O     O_R   0.085430 0.353850 0.481810 -0.643955
O29   O     O_R   0.353850 0.914570 0.481810 -0.643235
O30   O     O_R   0.914570 0.646150 0.481810 -0.643955
O31   O     O_R   0.085450 0.353830 0.018160 -0.649496
O32   O     O_R   0.646170 0.085450 0.018160 -0.649142
O33   O     O_R   0.914550 0.646170 0.018160 -0.649492
O34   O     O_3   0.000000 0.500000 0.499980 -0.476311
O35   O     O_R   0.353830 0.914550 0.018160 -0.649135
O36   O     O_R   0.914550 0.353830 0.018160 -0.649170
O37   O     O_R   0.353830 0.085450 0.018160 -0.649497
O38   O     O_R   0.085450 0.646170 0.018160 -0.649142
O39   O     O_R   0.646170 0.914550 0.018160 -0.649498
O40   O     O_R   0.585450 0.853830 0.518160 -0.649498
O41   O     O_R   0.146170 0.585450 0.518160 -0.649127
O42   O     O_R   0.414550 0.146170 0.518160 -0.649497
O43   O     O_R   0.853830 0.414550 0.518160 -0.649126
O44   O     O_R   0.414550 0.853830 0.518160 -0.649142
O45   O     O_R   0.060770 0.500000 0.930670 -0.646690
O46   O     O_R   0.853830 0.585450 0.518160 -0.649499
O47   O     O_R   0.585450 0.146170 0.518160 -0.649135
O48   O     O_R   0.146170 0.414550 0.518160 -0.649499
O49   O     O_3   0.025833 0.629405 0.183287 -0.586069
O50   O     O_3   0.370550 0.974542 0.183298 -0.586069
O51   O     O_3   0.974004 0.370715 0.183342 -0.586147
O52   O     O_3   0.629435 0.025512 0.183303 -0.586086
O53   O     O_3   0.525489 0.129451 0.683300 -0.586072
O54   O     O_3   0.870510 0.474744 0.683296 -0.586058
O55   O     O_3   0.474468 0.870583 0.683314 -0.586093
O56   O     O_R   0.500000 0.060770 0.930670 -0.646689
O57   O     O_3   0.129492 0.525256 0.683295 -0.586058
O58   O     O_R   0.939230 0.500000 0.930670 -0.646690
O59   O     O_R   0.500000 0.939230 0.930670 -0.646688
O60   O     O_R   0.560770 0.000000 0.430670 -0.646689
Zn1   Zn    Zn3+2 0.000000 0.586730 0.025950 0.961861
Zn2   Zn    Zn3+2 0.500000 0.913260 0.974020 0.960587
Zn3   Zn    Zn3+2 0.086740 0.500000 0.974020 0.960590
Zn4   Zn    Zn3+2 0.500000 0.086740 0.974020 0.960585
Zn5   Zn    Zn3+2 0.413260 0.000000 0.474020 0.960585
Zn6   Zn    Zn3+2 0.000000 0.413260 0.474020 0.960587
Zn7   Zn    Zn3+2 0.586740 0.000000 0.474020 0.960586
Zn8   Zn    Zn3+2 0.000000 0.586740 0.474020 0.960584
Zn9   Zn    Zn3+2 0.413270 0.000000 0.025950 0.961863
Zn10  Zn    Zn3+2 0.000000 0.413270 0.025950 0.961815
Zn11  Zn    Zn3+2 0.586730 0.000000 0.025950 0.961851
Zn12  Zn    Zn3+2 0.500000 0.086730 0.525950 0.961859
Zn13  Zn    Zn3+2 0.913270 0.500000 0.525950 0.961868
Zn14  Zn    Zn3+2 0.500000 0.913270 0.525950 0.961849
Zn15  Zn    Zn3+2 0.086730 0.500000 0.525950 0.961867
Zn16  Zn    Zn3+2 0.913260 0.500000 0.974020 0.960583

loop_
_geom_bond_atom_site_label_1
_geom_bond_atom_site_label_2
_ccdc_geom_bond_type
N1    N5    A    
C104  C135  S    
O20   Zn16  S    
C73   C82   A    
C73   H60   S    
O39   Zn11  S    
C74   C83   A    
N12   N16   A    
C19   H29   S    
C9    C143  A    
C48   C120  A    
C49   C131  A    
C14   H6    S    
C56   H86   S    
O1    Zn1   S    
C122  C139  A    
C24   C96   S    
O23   Zn5   S    
N8    N11   A    
C111  O27   A    
C74   C92   A    
C46   N2    A    
O38   Zn1   S    
C80   C86   A    
N4    N15   A    
C68   C90   A    
C16   C149  A    
C12   H5    S    
C62   N10   A    
C54   H77   S    
C67   H53   S    
C87   O4    A    
O21   Zn4   S    
C83   C88   A    
C8    C16   A    
C100  O31   A    
O34   Zn6   S    
C115  C123  A    
C52   O49   S    
O3    Zn5   S    
O22   Zn5   S    
C51   C131  A    
C76   O60   A    
C126  C129  A    
C81   H68   S    
C21   H14   S    
O14   Zn16  S    
C35   N16   A    
C102  O38   A    
C105  O37   A    
O28   Zn6   S    
C127  C145  A    
C6    C151  A    
C35   C89   S    
C40   H50   S    
C52   H72   S    
C38   H48   S    
C36   C44   A    
C37   C45   A    
C66   N15   A    
C117  C135  A    
C79   C85   A    
C118  C136  A    
C68   C77   A    
O29   Zn5   S    
C30   C127  S    
C110  O41   A    
C70   C79   A    
O1    Zn3   S    
C65   O59   A    
C64   C120  S    
C113  C144  S    
O8    Zn11  S    
C17   C25   S    
C114  C143  S    
C9    C15   A    
C55   O52   S    
C53   H75   S    
C134  C151  A    
O1    Zn10  S    
O56   Zn4   S    
C129  C147  A    
C81   C88   A    
C99   O35   A    
O1    Zn16  S    
O58   Zn16  S    
C93   O5    A    
C20   C21   S    
C26   H18   S    
C30   H22   S    
C93   C142  S    
C108  C148  S    
C7    H78   S    
C32   C125  S    
C16   H8    S    
C96   O10   A    
C42   H52   S    
C1    O58   A    
C20   H13   S    
O27   Zn7   S    
C50   C120  A    
C15   C148  A    
C75   C84   A    
C79   H65   S    
O7    Zn10  S    
C135  C152  A    
O10   Zn13  S    
C112  C145  S    
C124  C132  A    
C3    C136  A    
C6    C139  A    
C58   H90   S    
C22   H32   S    
C25   H35   S    
C4    C137  A    
C99   O15   A    
C28   H20   S    
O13   Zn15  S    
C29   H39   S    
C8    C141  A    
C30   H40   S    
C66   N13   A    
C65   O56   A    
C17   H27   S    
C18   H28   S    
C69   C89   A    
C54   H80   S    
C31   H24   S    
C113  O29   A    
C2    C94   S    
C10   C14   A    
C31   H41   S    
C56   O53   S    
C65   C84   S    
C19   H11   S    
C87   O2    A    
N6    N9    A    
C47   C109  A    
C14   C147  A    
C105  O21   A    
C59   H92   S    
C63   C109  S    
C103  C136  S    
C29   C30   S    
C100  C139  S    
C63   N11   A    
C7    C150  A    
C2    C38   A    
C26   C33   S    
C93   O7    A    
C104  O36   A    
C94   O8    A    
O17   Zn4   S    
C10   C144  A    
O44   Zn14  S    
O19   Zn2   S    
C17   H9    S    
C68   H54   S    
C124  C141  A    
C67   C75   A    
C55   H82   S    
C58   H87   S    
O48   Zn15  S    
O33   Zn1   S    
C66   C131  S    
C19   C121  S    
C47   O52   S    
C114  O46   A    
C34   C43   A    
C10   H3    S    
O35   Zn9   S    
C101  O17   A    
C102  C133  S    
O47   Zn12  S    
C128  C146  A    
C8    H89   S    
C125  C143  A    
C126  C144  A    
C57   N5    A    
C111  C141  S    
C107  C149  S    
C60   H95   S    
C151  H12   S    
C27   C130  S    
C56   H84   S    
O46   Zn13  S    
C3    C4    A    
O16   Zn3   S    
O18   Zn3   S    
C27   H19   S    
C24   C42   A    
C13   C41   A    
O30   Zn8   S    
O60   Zn7   S    
C116  C122  A    
C96   O13   A    
C36   H46   S    
C60   O57   S    
C45   C98   A    
C63   N9    A    
O24   Zn6   S    
C7    C140  A    
C72   C92   A    
C64   N14   A    
C72   H59   S    
C116  C134  A    
C25   H17   S    
C94   O6    A    
C113  O44   A    
C95   O11   A    
C45   O51   S    
C23   C116  S    
C152  H23   S    
C150  H1    S    
C33   C124  S    
C53   O50   S    
O11   Zn14  S    
C59   O55   S    
C72   C81   A    
C61   C92   S    
C44   C109  A    
C111  O47   A    
N7    N10   A    
C132  C149  A    
O15   Zn2   S    
O12   Zn2   S    
C48   O53   S    
C69   H55   S    
C133  C150  A    
O31   Zn10  S    
C56   H85   S    
C5    C138  A    
C97   O33   A    
C37   C142  A    
C29   H21   S    
C23   H33   S    
C86   C87   S    
C115  C133  A    
C107  O43   A    
C82   C86   A    
C57   N7    A    
C15   H7    S    
C21   C118  S    
C53   H74   S    
O2    Zn8   S    
C35   N3    A    
O32   Zn11  S    
C59   H93   S    
C5    C152  A    
C22   H15   S    
C114  O30   A    
C39   H49   S    
C74   H61   S    
C32   H25   S    
C127  C128  A    
O45   Zn3   S    
C41   C50   A    
C77   H63   S    
C1    O45   A    
C34   C142  A    
C57   C91   S    
C27   C32   S    
C106  O22   A    
C28   C31   S    
O34   Zn15  S    
C55   H83   S    
C28   H38   S    
C101  C138  S    
C46   C90   S    
C95   O9    A    
C104  O20   A    
C5    H56   S    
C50   O55   S    
C18   H10   S    
O5    Zn1   S    
C97   C137  S    
C23   H16   S    
C71   C91   A    
C33   H43   S    
C52   H71   S    
O12   Zn4   S    
C17   C123  S    
C20   C119  S    
C40   C49   A    
C105  C134  S    
C22   C117  S    
C60   H94   S    
C61   N6    A    
O4    Zn6   S    
C102  O18   A    
C43   C98   A    
O23   Zn12  S    
C82   H69   S    
O23   Zn14  S    
O12   Zn9   S    
C13   C95   S    
C25   C115  S    
C53   H76   S    
C80   H66   S    
C67   C89   A    
C59   H91   S    
C28   C129  S    
O6    Zn9   S    
C12   C146  A    
C117  C121  A    
C118  C119  A    
C49   O54   S    
C62   C98   S    
C83   H70   S    
C125  C130  A    
O25   Zn7   S    
C62   N1    A    
C41   H51   S    
O43   Zn13  S    
C42   C51   A    
C103  O39   A    
C110  O26   A    
C112  O48   A    
C100  O16   A    
C69   C78   A    
C70   C90   A    
O34   Zn13  S    
C26   H36   S    
C55   H81   S    
C58   H88   S    
C103  O19   A    
C71   C80   A    
C106  O42   A    
C1    C85   S    
C43   O49   S    
C130  C148  A    
C18   C23   S    
C119  C137  A    
C19   C22   S    
C73   C91   A    
C32   H42   S    
C78   H64   S    
C11   C145  A    
C123  C140  A    
O9    Zn12  S    
C121  C138  A    
C58   O54   S    
C97   O14   A    
N2    N13   A    
C108  O25   A    
O23   Zn7   S    
C71   H58   S    
C46   N4    A    
C38   C47   A    
C11   H4    S    
C4    H45   S    
C18   C122  S    
C9    H2    S    
C60   H96   S    
C61   N8    A    
C2    C36   A    
C112  O28   A    
C99   C140  S    
C76   O3    A    
C110  C147  S    
C3    H34   S    
C108  O40   A    
C54   H79   S    
C26   C132  S    
C20   H30   S    
C51   O57   S    
C34   H44   S    
C21   H31   S    
C76   C88   S    
O12   Zn11  S    
C33   H26   S    
C44   O50   S    
C39   C48   A    
O42   Zn12  S    
C101  O32   A    
C11   C12   A    
C75   H62   S    
O34   Zn8   S    
C106  C146  S    
O59   Zn2   S    
O41   Zn15  S    
O36   Zn10  S    
C107  O24   A    
C24   C40   A    
O40   Zn14  S    
C54   O51   S    
C37   H47   S    
C13   C39   A    
N3    N14   A    
C77   C85   A    
C6    H67   S    
C78   C84   A    
C52   H73   S    
C29   C128  S    
C70   H57   S    
O37   Zn9   S    
C27   H37   S    
C31   C126  S    
C64   N12   A    
O26   Zn8   S    
