data_mof_unit_26858.cif
_audit_creation_date              2012-12-11T15:06:50-0500
_audit_creation_method            fapswitch 2.2
_symmetry_space_group_name_H-M    P1
_symmetry_Int_Tables_number       1
_space_group_crystal_system       triclinic
_cell_length_a                    19.731183
_cell_length_b                    11.389566
_cell_length_c                    18.674477
_cell_angle_alpha                 90.0
_cell_angle_beta                  89.587328
_cell_angle_gamma                 90.000082
_cell_volume                      4196.59909921

loop_
_atom_site_label
_atom_site_type_symbol
_atom_type_description
_atom_site_fract_x
_atom_site_fract_y
_atom_site_fract_z
_atom_type_partial_charge
C1    C     C_R   0.761801 0.523296 0.639380 0.552540
C2    C     C_R   0.238197 0.523291 0.360621 0.552538
C3    C     C_R   0.261801 0.023296 0.639380 0.552541
C4    C     C_R   0.738197 0.023291 0.360621 0.552537
C5    C     C_3   0.815304 0.119714 0.447249 0.143996
C6    C     C_3   0.184694 0.119716 0.552751 0.143986
C7    C     C_3   0.315304 0.619714 0.447248 0.143996
C8    C     C_3   0.684694 0.619716 0.552751 0.143987
C9    C     C_3   0.746935 0.060208 0.435585 0.094276
C10   C     C_3   0.253063 0.060212 0.564416 0.094273
C11   C     C_3   0.246935 0.560208 0.435585 0.094276
C12   C     C_3   0.753063 0.560212 0.564415 0.094273
C13   C     C_3   0.760549 0.093221 0.573456 0.021563
C14   C     C_3   0.239450 0.093220 0.426545 0.021565
C15   C     C_3   0.260550 0.593221 0.573455 0.021563
C16   C     C_3   0.739450 0.593220 0.426544 0.021565
C17   C     C_3   0.766151 0.963433 0.559159 -0.275338
C18   C     C_3   0.233851 0.963433 0.440841 -0.275339
C19   C     C_3   0.266151 0.463434 0.559159 -0.275338
C20   C     C_3   0.733851 0.463433 0.440841 -0.275339
C21   C     C_3   0.816431 0.152339 0.527657 -0.181962
C22   C     C_3   0.183567 0.152336 0.472342 -0.181954
C23   C     C_3   0.316431 0.652339 0.527657 -0.181962
C24   C     C_3   0.683567 0.652335 0.472341 -0.181954
C25   C     C_3   0.997127 0.206947 0.458763 -0.255355
C26   C     C_3   0.002869 0.206946 0.541235 -0.255352
C27   C     C_3   0.497127 0.706947 0.458763 -0.255355
C28   C     C_3   0.502869 0.706946 0.541235 -0.255352
C29   C     C_3   0.068297 0.390629 0.473121 -0.218977
C30   C     C_3   0.931703 0.390635 0.526878 -0.218974
C31   C     C_3   0.568298 0.890629 0.473121 -0.218977
C32   C     C_3   0.431703 0.890635 0.526878 -0.218974
C33   C     C_3   0.947819 0.409520 0.447642 -0.257245
C34   C     C_3   0.052181 0.409519 0.552357 -0.257247
C35   C     C_3   0.447819 0.909520 0.447642 -0.257246
C36   C     C_3   0.552181 0.909519 0.552357 -0.257247
C37   C     C_3   0.009654 0.334588 0.430524 0.063734
C38   C     C_3   0.990344 0.334589 0.569475 0.063731
C39   C     C_3   0.509654 0.834588 0.430524 0.063734
C40   C     C_3   0.490345 0.834589 0.569475 0.063731
C41   C     C_3   0.819277 0.026368 0.046241 -0.234749
C42   C     C_3   0.180723 0.026367 0.953758 -0.234749
C43   C     C_3   0.319277 0.526368 0.046241 -0.234749
C44   C     C_3   0.680723 0.526367 0.953758 -0.234749
C45   C     C_R   0.774506 0.122083 0.649184 0.535817
C46   C     C_R   0.225494 0.122082 0.350816 0.535817
C47   C     C_R   0.274506 0.622083 0.649183 0.535817
C48   C     C_R   0.725494 0.622082 0.350816 0.535817
C49   C     C_3   0.818390 0.022730 0.965489 -0.233753
C50   C     C_3   0.181610 0.022729 0.034511 -0.233753
C51   C     C_3   0.318390 0.522730 0.965489 -0.233752
C52   C     C_3   0.681610 0.522729 0.034511 -0.233753
C53   C     C_3   0.691396 0.016345 0.032586 -0.220592
C54   C     C_3   0.308604 0.016346 0.967414 -0.220593
C55   C     C_3   0.191396 0.516345 0.032586 -0.220592
C56   C     C_3   0.808604 0.516346 0.967414 -0.220593
C57   C     C_3   0.745359 0.202363 0.061402 -0.256061
C58   C     C_3   0.254640 0.202364 0.938598 -0.256061
C59   C     C_3   0.245359 0.702363 0.061402 -0.256061
C60   C     C_3   0.754640 0.702364 0.938598 -0.256061
C61   C     C_3   0.749476 0.071611 0.075730 0.065388
C62   C     C_3   0.250523 0.071611 0.924270 0.065387
C63   C     C_3   0.249476 0.571611 0.075730 0.065388
C64   C     C_3   0.750523 0.571611 0.924270 0.065387
C65   C     C_3   0.760649 0.103781 0.936185 0.062358
C66   C     C_3   0.239351 0.103780 0.063815 0.062357
C67   C     C_3   0.260649 0.603781 0.936185 0.062358
C68   C     C_3   0.739351 0.603780 0.063815 0.062357
C69   C     C_3   0.693913 0.042137 0.951160 -0.255693
C70   C     C_3   0.306087 0.042138 0.048840 -0.255692
C71   C     C_3   0.193913 0.542137 0.951160 -0.255693
C72   C     C_3   0.806087 0.542138 0.048840 -0.255692
C73   C     C_3   0.758224 0.219185 0.980120 -0.227225
C74   C     C_3   0.241775 0.219185 0.019880 -0.227225
C75   C     C_3   0.258224 0.719185 0.980120 -0.227225
C76   C     C_3   0.741775 0.719185 0.019880 -0.227225
C77   C     C_3   0.998917 0.479651 0.040753 -0.236178
C78   C     C_3   0.001083 0.479651 0.959248 -0.236179
C79   C     C_3   0.498917 0.979651 0.040753 -0.236178
C80   C     C_3   0.501083 0.979651 0.959248 -0.236179
C81   C     C_3   0.067853 0.293240 0.024601 -0.228658
C82   C     C_3   0.932146 0.293241 0.975400 -0.228660
C83   C     C_3   0.567853 0.793240 0.024601 -0.228658
C84   C     C_3   0.432146 0.793241 0.975400 -0.228660
C85   C     C_3   0.947862 0.280558 0.055756 -0.255249
C86   C     C_3   0.052138 0.280558 0.944245 -0.255248
C87   C     C_3   0.447862 0.780558 0.055756 -0.255249
C88   C     C_3   0.552137 0.780558 0.944245 -0.255248
C89   C     C_R   0.969863 0.342422 0.645597 0.521150
C90   C     C_R   0.030136 0.342422 0.354402 0.521147
C91   C     C_R   0.469863 0.842422 0.645597 0.521149
C92   C     C_R   0.530136 0.842422 0.354402 0.521148
C93   C     C_3   0.011101 0.352181 0.069371 0.065034
C94   C     C_3   0.988898 0.352182 0.930629 0.065033
C95   C     C_3   0.511101 0.852181 0.069371 0.065034
C96   C     C_3   0.488898 0.852182 0.930629 0.065033
C97   C     C_R   0.759723 0.535285 0.847909 0.524384
C98   C     C_R   0.240277 0.535285 0.152091 0.524373
C99   C     C_R   0.259723 0.035285 0.847909 0.524386
C100  C     C_R   0.740277 0.035285 0.152091 0.524373
C101  C     C_R   0.774147 0.132467 0.858765 0.533499
C102  C     C_R   0.225853 0.132467 0.141235 0.533498
C103  C     C_R   0.274147 0.632467 0.858765 0.533500
C104  C     C_R   0.725853 0.632467 0.141235 0.533498
C105  C     C_R   0.967534 0.353541 0.854214 0.534456
C106  C     C_R   0.032466 0.353540 0.145786 0.534456
C107  C     C_R   0.467534 0.853541 0.854214 0.534456
C108  C     C_R   0.532466 0.853541 0.145786 0.534456
C109  C     C_3   0.689825 0.143235 0.464761 -0.244730
C110  C     C_3   0.310173 0.143238 0.535239 -0.244728
C111  C     C_3   0.189825 0.643235 0.464761 -0.244730
C112  C     C_3   0.810173 0.643237 0.535239 -0.244728
C113  C     C_3   0.689259 0.136754 0.547314 -0.262020
C114  C     C_3   0.310740 0.136756 0.452687 -0.262018
C115  C     C_3   0.189259 0.636754 0.547314 -0.262021
C116  C     C_3   0.810740 0.636756 0.452687 -0.262019
C117  C     C_3   0.747325 0.945617 0.480742 -0.272782
C118  C     C_3   0.252674 0.945619 0.519259 -0.272779
C119  C     C_3   0.247325 0.445617 0.480742 -0.272782
C120  C     C_3   0.752674 0.445619 0.519259 -0.272779
Cr1   Cr    Cr6+3 0.885690 0.492860 0.745310 0.984985
Cr2   Cr    Cr6+3 0.114310 0.492860 0.254690 0.984980
Cr3   Cr    Cr6+3 0.385690 0.992860 0.745310 0.984986
Cr4   Cr    Cr6+3 0.614310 0.992860 0.254690 0.984980
Cr5   Cr    Cr6+3 0.729880 0.332270 0.748190 0.979390
Cr6   Cr    Cr6+3 0.270120 0.332270 0.251810 0.979392
Cr7   Cr    Cr6+3 0.229880 0.832270 0.748190 0.979390
Cr8   Cr    Cr6+3 0.770120 0.832270 0.251810 0.979392
Cr9   Cr    Cr6+3 0.888120 0.178590 0.753010 0.982852
Cr10  Cr    Cr6+3 0.111880 0.178590 0.246990 0.982853
Cr11  Cr    Cr6+3 0.388120 0.678590 0.753010 0.982852
Cr12  Cr    Cr6+3 0.611880 0.678590 0.246990 0.982853
H1    H     H_    0.638991 0.126355 0.443606 0.117862
H2    H     H_    0.361007 0.126355 0.556395 0.117861
H3    H     H_    0.138990 0.626355 0.443606 0.117862
H4    H     H_    0.861007 0.626355 0.556395 0.117861
H5    H     H_    0.866635 0.133092 0.549233 0.104569
H6    H     H_    0.133363 0.133084 0.450766 0.104568
H7    H     H_    0.366635 0.633092 0.549233 0.104569
H8    H     H_    0.633363 0.633084 0.450766 0.104568
H9    H     H_    0.781078 0.879286 0.457495 0.128276
H10   H     H_    0.218920 0.879289 0.542506 0.128279
H11   H     H_    0.281078 0.379287 0.457495 0.128277
H12   H     H_    0.718920 0.379289 0.542505 0.128279
H13   H     H_    0.818775 0.932159 0.568847 0.126562
H14   H     H_    0.181228 0.932154 0.431151 0.126564
H15   H     H_    0.318775 0.432159 0.568847 0.126562
H16   H     H_    0.681228 0.432153 0.431150 0.126564
H17   H     H_    0.030146 0.139693 0.434561 0.123927
H18   H     H_    0.969849 0.139694 0.565438 0.123928
H19   H     H_    0.530146 0.639693 0.434561 0.123927
H20   H     H_    0.469849 0.639694 0.565438 0.123928
H21   H     H_    0.945832 0.178964 0.444446 0.138614
H22   H     H_    0.054163 0.178960 0.555550 0.138604
H23   H     H_    0.445833 0.678964 0.444446 0.138614
H24   H     H_    0.554163 0.678960 0.555550 0.138605
H25   H     H_    0.607955 0.827971 0.468638 0.125030
H26   H     H_    0.392042 0.827988 0.531367 0.125022
H27   H     H_    0.107955 0.327971 0.468638 0.125030
H28   H     H_    0.892042 0.327988 0.531367 0.125022
H29   H     H_    0.596398 0.887804 0.585591 0.152020
H30   H     H_    0.403600 0.887805 0.414411 0.152011
H31   H     H_    0.096398 0.387803 0.585591 0.152022
H32   H     H_    0.903600 0.387805 0.414411 0.152011
H33   H     H_    0.959437 0.503973 0.438069 0.126773
H34   H     H_    0.040564 0.503971 0.561928 0.126770
H35   H     H_    0.459437 0.003972 0.438069 0.126772
H36   H     H_    0.540564 0.003972 0.561928 0.126770
H37   H     H_    0.915484 0.474354 0.549719 0.138981
H38   H     H_    0.084524 0.474342 0.450278 0.138983
H39   H     H_    0.415484 0.974354 0.549719 0.138981
H40   H     H_    0.584524 0.974341 0.450278 0.138983
H41   H     H_    0.834340 0.937745 0.064307 0.139656
H42   H     H_    0.165661 0.937744 0.935693 0.139656
H43   H     H_    0.334340 0.437745 0.064307 0.139656
H44   H     H_    0.665660 0.437744 0.935693 0.139656
H45   H     H_    0.700445 0.234105 0.447577 0.157033
H46   H     H_    0.299554 0.234108 0.552423 0.157033
H47   H     H_    0.200445 0.734106 0.447577 0.157033
H48   H     H_    0.799554 0.734108 0.552423 0.157033
H49   H     H_    0.859943 0.085580 0.065017 0.112658
H50   H     H_    0.140056 0.085579 0.934983 0.112659
H51   H     H_    0.359943 0.585580 0.065017 0.112658
H52   H     H_    0.640056 0.585579 0.934983 0.112658
H53   H     H_    0.870171 0.043948 0.946948 0.135715
H54   H     H_    0.129829 0.043947 0.053052 0.135715
H55   H     H_    0.370171 0.543948 0.946948 0.135715
H56   H     H_    0.629829 0.543947 0.053052 0.135715
H57   H     H_    0.809638 0.931648 0.946905 0.116293
H58   H     H_    0.190363 0.931647 0.053095 0.116293
H59   H     H_    0.309637 0.431648 0.946905 0.116293
H60   H     H_    0.690363 0.431647 0.053095 0.116293
H61   H     H_    0.699727 0.924941 0.041522 0.109202
H62   H     H_    0.300274 0.924942 0.958476 0.109201
H63   H     H_    0.199727 0.424941 0.041522 0.109202
H64   H     H_    0.800274 0.424942 0.958476 0.109201
H65   H     H_    0.689771 0.959605 0.919783 0.099791
H66   H     H_    0.310229 0.959605 0.080216 0.099791
H67   H     H_    0.189771 0.459605 0.919783 0.099791
H68   H     H_    0.810229 0.459605 0.080216 0.099791
H69   H     H_    0.694316 0.235780 0.076676 0.119773
H70   H     H_    0.305683 0.235781 0.923324 0.119772
H71   H     H_    0.194316 0.735780 0.076676 0.119773
H72   H     H_    0.805683 0.735781 0.923324 0.119772
H73   H     H_    0.783561 0.250726 0.093407 0.094602
H74   H     H_    0.216439 0.250726 0.906593 0.094603
H75   H     H_    0.283561 0.750726 0.093407 0.094602
H76   H     H_    0.716438 0.750726 0.906593 0.094603
H77   H     H_    0.808430 0.252128 0.974840 0.109537
H78   H     H_    0.191569 0.252126 0.025160 0.109539
H79   H     H_    0.308430 0.752128 0.974840 0.109537
H80   H     H_    0.691569 0.752126 0.025160 0.109539
H81   H     H_    0.720535 0.280052 0.957763 0.125904
H82   H     H_    0.279464 0.280053 0.042237 0.125904
H83   H     H_    0.220535 0.780052 0.957763 0.125904
H84   H     H_    0.779464 0.780053 0.042237 0.125904
H85   H     H_    0.642008 0.043767 0.054582 0.131608
H86   H     H_    0.357992 0.043769 0.945417 0.131607
H87   H     H_    0.142008 0.543767 0.054582 0.131608
H88   H     H_    0.857992 0.543769 0.945417 0.131607
H89   H     H_    0.672706 0.221482 0.569890 0.138244
H90   H     H_    0.327292 0.221484 0.430110 0.138244
H91   H     H_    0.172706 0.721482 0.569890 0.138244
H92   H     H_    0.827292 0.721484 0.430110 0.138244
H93   H     H_    0.651425 0.100783 0.935835 0.118070
H94   H     H_    0.348575 0.100784 0.064165 0.118071
H95   H     H_    0.151425 0.600783 0.935835 0.118070
H96   H     H_    0.848575 0.600784 0.064165 0.118071
H97   H     H_    0.035454 0.545818 0.059707 0.133141
H98   H     H_    0.964546 0.545818 0.940293 0.133141
H99   H     H_    0.535454 0.045818 0.059707 0.133141
H100  H     H_    0.464546 0.045818 0.940293 0.133141
H101  H     H_    0.948893 0.510867 0.059973 0.116708
H102  H     H_    0.051107 0.510867 0.940027 0.116708
H103  H     H_    0.448893 0.010867 0.059973 0.116708
H104  H     H_    0.551107 0.010867 0.940027 0.116708
H105  H     H_    0.608380 0.854188 0.028342 0.109489
H106  H     H_    0.391619 0.854190 0.971660 0.109490
H107  H     H_    0.108380 0.354188 0.028342 0.109489
H108  H     H_    0.891619 0.354190 0.971660 0.109490
H109  H     H_    0.595247 0.812233 0.910765 0.095835
H110  H     H_    0.404753 0.812232 0.089235 0.095836
H111  H     H_    0.095247 0.312233 0.910765 0.095835
H112  H     H_    0.904753 0.312232 0.089235 0.095836
H113  H     H_    0.957414 0.186973 0.069297 0.120186
H114  H     H_    0.042584 0.186974 0.930703 0.120186
H115  H     H_    0.457414 0.686973 0.069297 0.120186
H116  H     H_    0.542584 0.686974 0.930703 0.120186
H117  H     H_    0.918601 0.207403 0.952875 0.133389
H118  H     H_    0.081396 0.207401 0.047125 0.133389
H119  H     H_    0.418601 0.707403 0.952875 0.133389
H120  H     H_    0.581396 0.707401 0.047125 0.133389
H121  H     H_    0.650142 0.073946 0.565562 0.116329
H122  H     H_    0.349858 0.073949 0.434440 0.116327
H123  H     H_    0.150142 0.573946 0.565562 0.116330
H124  H     H_    0.849858 0.573949 0.434439 0.116328
H125  H     H_    0.695523 0.917542 0.481254 0.127727
H126  H     H_    0.304476 0.917547 0.518750 0.127722
H127  H     H_    0.195523 0.417542 0.481255 0.127728
H128  H     H_    0.804476 0.417547 0.518750 0.127722
H129  H     H_    0.731402 0.914629 0.595184 0.179867
H130  H     H_    0.268603 0.914631 0.404819 0.179865
H131  H     H_    0.231402 0.414629 0.595184 0.179867
H132  H     H_    0.768603 0.414631 0.404819 0.179865
H133  H     H_    0.857270 0.055812 0.437295 0.097871
H134  H     H_    0.142728 0.055815 0.562708 0.097875
H135  H     H_    0.357270 0.555812 0.437295 0.097871
H136  H     H_    0.642728 0.555815 0.562708 0.097873
H137  H     H_    0.804132 0.243121 0.533728 0.132843
H138  H     H_    0.195865 0.243118 0.466268 0.132842
H139  H     H_    0.304131 0.743121 0.533728 0.132843
H140  H     H_    0.695865 0.743118 0.466268 0.132842
O1    O     O_R   0.957210 0.449410 0.665480 -0.532706
O2    O     O_R   0.042790 0.449410 0.334520 -0.532705
O3    O     O_R   0.457210 0.949410 0.665480 -0.532706
O4    O     O_R   0.542790 0.949410 0.334520 -0.532705
O5    O     O_R   0.736260 0.212010 0.826560 -0.509465
O6    O     O_R   0.263740 0.212010 0.173440 -0.509464
O7    O     O_R   0.236260 0.712010 0.826560 -0.509465
O8    O     O_R   0.763740 0.712010 0.173440 -0.509464
O9    O     O_R   0.832520 0.095300 0.836000 -0.535172
O10   O     O_R   0.167480 0.095300 0.164000 -0.535171
O11   O     O_R   0.332520 0.595300 0.836000 -0.535172
O12   O     O_R   0.667480 0.595300 0.164000 -0.535172
O13   O     O_R   0.946380 0.253940 0.826940 -0.516323
O14   O     O_R   0.053620 0.253940 0.173060 -0.516323
O15   O     O_R   0.446380 0.753940 0.826940 -0.516323
O16   O     O_R   0.553620 0.753940 0.173060 -0.516323
O17   O     O_3   0.834560 0.334570 0.748840 -0.269661
O18   O     O_3   0.165440 0.334570 0.251160 -0.269661
O19   O     O_3   0.334560 0.834570 0.748840 -0.269661
O20   O     O_3   0.665440 0.834570 0.251160 -0.269661
O21   O     O_R   0.820730 0.541240 0.668250 -0.521088
O22   O     O_R   0.179270 0.541240 0.331750 -0.521100
O23   O     O_R   0.320730 0.041240 0.668250 -0.521086
O24   O     O_R   0.679270 0.041240 0.331750 -0.521101
O25   O     O_R   0.714240 0.455060 0.663710 -0.558330
O26   O     O_R   0.285760 0.455060 0.336290 -0.558316
O27   O     O_R   0.214240 0.955060 0.663710 -0.558331
O28   O     O_R   0.785760 0.955060 0.336290 -0.558316
O29   O     O_R   0.736780 0.204870 0.675910 -0.513684
O30   O     O_R   0.263220 0.204870 0.324090 -0.513684
O31   O     O_R   0.236780 0.704870 0.675910 -0.513684
O32   O     O_R   0.763220 0.704870 0.324090 -0.513684
O33   O     O_R   0.833070 0.087590 0.673490 -0.529176
O34   O     O_R   0.166930 0.087590 0.326510 -0.529176
O35   O     O_R   0.333070 0.587590 0.673490 -0.529176
O36   O     O_R   0.666930 0.587590 0.326510 -0.529176
O37   O     O_R   0.946890 0.246800 0.676300 -0.519243
O38   O     O_R   0.053110 0.246800 0.323700 -0.519243
O39   O     O_R   0.446890 0.746800 0.676300 -0.519243
O40   O     O_R   0.553110 0.746800 0.323700 -0.519243
O41   O     O_R   0.956650 0.457120 0.827980 -0.532276
O42   O     O_R   0.043350 0.457120 0.172020 -0.532275
O43   O     O_R   0.456650 0.957120 0.827980 -0.532276
O44   O     O_R   0.543350 0.957120 0.172020 -0.532275
O45   O     O_R   0.820220 0.548390 0.818890 -0.514826
O46   O     O_R   0.179780 0.548390 0.181110 -0.514832
O47   O     O_R   0.320220 0.048390 0.818890 -0.514825
O48   O     O_R   0.679780 0.048390 0.181110 -0.514832
O49   O     O_R   0.713680 0.462770 0.826210 -0.537015
O50   O     O_R   0.286320 0.462770 0.173790 -0.537012
O51   O     O_R   0.213680 0.962770 0.826210 -0.537016
O52   O     O_R   0.786320 0.962770 0.173790 -0.537012
O53   O     O_3   0.821918 0.222683 0.404501 -0.620510
C121  C     C_3   0.853390 0.202471 0.336740 -0.028318
H141  H     H_    0.862862 0.109354 0.323225 0.156105
H142  H     H_    0.903964 0.243769 0.335438 0.131844
C122  C     C_3   0.811792 0.259490 0.277771 -0.359696
H143  H     H_    0.810129 0.356092 0.285606 0.136908
H144  H     H_    0.835358 0.240776 0.224791 0.093446
H145  H     H_    0.759261 0.224909 0.278189 0.176281
O54   O     O_3   0.178080 0.222689 0.595495 -0.620508
C123  C     C_3   0.146610 0.202481 0.663258 -0.028332
H146  H     H_    0.137170 0.109363 0.676791 0.156134
H147  H     H_    0.096021 0.243726 0.664548 0.131840
C124  C     C_3   0.188188 0.259570 0.722218 -0.359712
H148  H     H_    0.189819 0.356176 0.714368 0.136908
H149  H     H_    0.164627 0.240850 0.775198 0.093454
H150  H     H_    0.240734 0.225040 0.721805 0.176244
O55   O     O_3   0.321918 0.722683 0.404501 -0.620510
C125  C     C_3   0.353390 0.702471 0.336740 -0.028321
H151  H     H_    0.362860 0.609355 0.323224 0.156107
H152  H     H_    0.403964 0.743767 0.335438 0.131845
C126  C     C_3   0.311794 0.759493 0.277771 -0.359700
H153  H     H_    0.310130 0.856095 0.285608 0.136910
H154  H     H_    0.335360 0.740781 0.224792 0.093446
H155  H     H_    0.259263 0.724913 0.278188 0.176280
O56   O     O_3   0.678080 0.722688 0.595495 -0.620509
C127  C     C_3   0.646609 0.702480 0.663258 -0.028323
H156  H     H_    0.637165 0.609360 0.676788 0.156127
H157  H     H_    0.596022 0.743732 0.664549 0.131838
C128  C     C_3   0.688191 0.759560 0.722219 -0.359703
H158  H     H_    0.689825 0.856168 0.714372 0.136904
H159  H     H_    0.664630 0.740838 0.775199 0.093454
H160  H     H_    0.740736 0.725025 0.721806 0.176246

loop_
_geom_bond_atom_site_label_1
_geom_bond_atom_site_label_2
_ccdc_geom_bond_type
C83   H105  S    
C5    H133  S    
C82   C94   S    
C119  H11   S    
C82   H117  S    
C119  H127  S    
C120  H12   S    
C45   O33   A    
C53   C69   S    
C104  O8    A    
C124  H148  S    
C43   C63   S    
O54   C123  S    
C44   C64   S    
Cr6   O6    S    
C80   H100  S    
C18   H130  S    
C63   C98   S    
Cr2   O2    S    
C31   H40   S    
C28   C40   S    
C36   H36   S    
C30   C38   S    
Cr9   O33   S    
C56   C72   S    
C121  H141  S    
C21   H5    S    
C92   O4    A    
C18   C118  S    
C81   C86   S    
C83   C88   S    
C48   O32   A    
C74   H82   S    
C111  H47   S    
C41   C49   S    
C128  H159  S    
C111  H3    S    
C54   H86   S    
Cr1   O45   S    
C114  H122  S    
Cr2   O42   S    
Cr3   O47   S    
Cr4   O48   S    
C88   H109  S    
C125  H151  S    
C26   C38   S    
Cr10  O34   S    
C120  H128  S    
Cr11  O39   S    
C60   C76   S    
C24   H8    S    
Cr8   O52   S    
C30   H37   S    
C54   C70   S    
C48   O36   A    
C68   C72   S    
C23   H139  S    
C121  C122  S    
C97   O45   A    
C13   C21   S    
C126  H155  S    
C87   H115  S    
C113  H89   S    
C31   H25   S    
C102  O6    A    
C64   C97   S    
C36   H29   S    
C15   C115  S    
C20   C120  S    
C124  H150  S    
C116  H124  S    
C101  O5    A    
C5    O53   S    
C59   C63   S    
C70   H94   S    
Cr4   O20   S    
C125  C126  S    
C57   C61   S    
C118  H126  S    
C82   C85   S    
Cr6   O50   S    
C77   H97   S    
Cr11  O19   S    
C60   C64   S    
Cr9   O13   S    
C20   H132  S    
C13   C45   S    
C123  C124  S    
C66   C70   S    
C78   C94   S    
C43   H51   S    
C127  H156  S    
C95   C108  S    
C115  H91   S    
C62   C99   S    
C107  O43   A    
C5    C21   S    
C58   H70   S    
C110  H46   S    
C31   C36   S    
C47   O35   A    
C4    O28   A    
Cr5   O17   S    
C90   O38   A    
O56   C127  S    
C54   H62   S    
Cr1   O21   S    
C80   H104  S    
Cr2   O18   S    
C65   C101  S    
Cr10  O14   S    
Cr3   O23   S    
Cr11  O11   S    
C67   C103  S    
C37   C90   S    
C24   H140  S    
C73   H77   S    
C66   C74   S    
C81   C93   S    
C25   H17   S    
C57   C73   S    
C85   C93   S    
C60   H72   S    
C56   H88   S    
C55   C63   S    
C6    H134  S    
C56   C64   S    
Cr7   O51   S    
C42   C62   S    
C8    C12   S    
C112  H48   S    
Cr5   O29   S    
C76   H80   S    
C70   H66   S    
Cr6   O18   S    
C84   H119  S    
C85   H113  S    
C122  H144  S    
C7    O55   S    
C1    C12   S    
C43   H43   S    
C112  H4    S    
C2    C11   S    
C77   H101  S    
Cr3   O3    S    
C7    C11   S    
C53   H85   S    
C42   H42   S    
Cr9   O37   S    
C123  H146  S    
C55   H87   S    
C25   C26   S    
C85   H112  S    
C105  O13   A    
C107  O15   A    
C5    C9    S    
C108  O16   A    
C59   H71   S    
C93   C106  S    
C88   H116  S    
C78   H102  S    
C90   O2    A    
C51   C67   S    
C7    H135  S    
C42   C50   S    
Cr2   O46   S    
Cr3   O43   S    
C110  H2    S    
C61   C100  S    
C67   C75   S    
C91   O3    A    
C50   H54   S    
C112  C116  S    
C51   H59   S    
C58   C74   S    
Cr10  O38   S    
C59   H75   S    
C41   H41   S    
C33   H33   S    
C44   H44   S    
C68   C76   S    
C13   C17   S    
C98   O46   A    
C14   C22   S    
C79   H103  S    
C7    C23   S    
C8    C24   S    
C40   C91   S    
C101  O9    A    
Cr7   O27   S    
C99   O51   A    
Cr8   O20   S    
C49   H53   S    
C57   H69   S    
C6    O54   S    
C121  H142  S    
C52   H56   S    
Cr7   O7    S    
C4    C9    S    
Cr4   O24   S    
Cr8   O8    S    
C58   C62   S    
C89   O1    A    
C88   C96   S    
C94   C105  S    
C59   C75   S    
C83   H120  S    
C53   H61   S    
C79   H99   S    
C12   C112  S    
C81   H118  S    
C41   H49   S    
C128  H158  S    
C21   H137  S    
C14   C46   S    
C77   C78   S    
C42   H50   S    
C15   C19   S    
C75   H79   S    
C1    O25   A    
C125  H152  S    
C58   H74   S    
C6    C22   S    
C2    O22   A    
Cr11  O35   S    
C56   H64   S    
C8    O56   S    
C86   H111  S    
Cr8   O28   S    
Cr2   O22   S    
C103  O7    A    
C126  H154  S    
Cr3   O19   S    
C46   O34   A    
C17   C117  S    
C19   C119  S    
C27   H23   S    
C73   H81   S    
Cr12  O36   S    
C16   C116  S    
C124  H149  S    
C9    C109  S    
C113  H121  S    
C25   H21   S    
C26   H18   S    
C105  O41   A    
C60   H76   S    
C87   H110  S    
C54   C62   S    
C127  C128  S    
C18   H14   S    
C109  H1    S    
C29   C34   S    
C108  O44   A    
C33   C37   S    
C41   C61   S    
C81   H107  S    
C116  H92   S    
C117  H9    S    
C79   C95   S    
Cr5   O25   S    
C76   H84   S    
Cr6   O30   S    
C114  H90   S    
C127  H157  S    
Cr12  O12   S    
C32   H39   S    
C91   O39   A    
C100  O52   A    
C39   C92   S    
C128  H160  S    
C27   H19   S    
C106  O14   A    
C14   C18   S    
C84   H106  S    
C68   C104  S    
C69   H93   S    
C17   H13   S    
C6    C10   S    
C71   H67   S    
C1    O21   A    
C78   H98   S    
C22   H6    S    
Cr5   O49   S    
C19   H15   S    
C14   C114  S    
C104  O12   A    
C43   C51   S    
Cr5   O5    S    
C65   C69   S    
C77   C93   S    
C10   C110  S    
C67   C71   S    
C17   H129  S    
O53   C121  S    
C50   H58   S    
Cr1   O1    S    
C51   H55   S    
C3    O27   A    
C19   H131  S    
C109  H45   S    
C72   H96   S    
C29   C37   S    
C11   C111  S    
C34   H34   S    
C55   H63   S    
C9    C117  S    
C122  H143  S    
C102  O10   A    
C35   C39   S    
C84   C87   S    
C15   C47   S    
C8    H136  S    
C11   C119  S    
C16   C48   S    
C29   H27   S    
O55   C125  S    
C30   H28   S    
C38   C89   S    
C49   C65   S    
C74   H78   S    
C23   H7    S    
Cr7   O31   S    
C123  H147  S    
Cr8   O32   S    
C49   H57   S    
Cr1   O41   S    
C57   H73   S    
C65   C73   S    
C52   H60   S    
Cr4   O44   S    
C86   C94   S    
C25   C37   S    
C12   C120  S    
C27   C39   S    
C82   H108  S    
C35   H35   S    
Cr12  O20   S    
C55   C71   S    
C29   H38   S    
C80   C96   S    
C44   H52   S    
C52   C68   S    
C16   C20   S    
C22   H138  S    
C15   C23   S    
Cr9   O17   S    
C86   H114  S    
C69   H65   S    
C53   C61   S    
C2    O26   A    
C103  O11   A    
C32   H26   S    
C35   H30   S    
C32   C35   S    
C36   C40   S    
C33   H32   S    
C34   H31   S    
C97   O49   A    
C66   C102  S    
Cr7   O19   S    
C87   C95   S    
C99   O47   A    
C46   O30   A    
C10   C118  S    
C72   H68   S    
C117  H125  S    
C83   C95   S    
Cr10  O18   S    
C20   H16   S    
Cr12  O40   S    
Cr9   O9    S    
C50   C66   S    
C100  O48   A    
C28   H20   S    
C45   O29   A    
C122  H145  S    
C26   H22   S    
C84   C96   S    
C106  O42   A    
C92   O40   A    
C110  C114  S    
C30   C33   S    
C34   C38   S    
C71   H95   S    
C96   C107  S    
C47   O31   A    
C4    O24   A    
C118  H10   S    
C89   O37   A    
Cr6   O26   S    
C109  C113  S    
Cr1   O17   S    
Cr10  O10   S    
C3    C10   S    
Cr11  O15   S    
Cr4   O4    S    
C44   C52   S    
Cr12  O16   S    
C75   H83   S    
C31   C39   S    
C32   C40   S    
C79   C80   S    
C115  H123  S    
C98   O50   A    
C16   C24   S    
C27   C28   S    
C28   H24   S    
C111  C115  S    
C126  H153  S    
C13   C113  S    
C3    O23   A    
