data_mof_unit_5067.cif
_audit_creation_date              2012-12-11T15:35:01-0500
_audit_creation_method            fapswitch 2.2
_symmetry_space_group_name_H-M    P1
_symmetry_Int_Tables_number       1
_space_group_crystal_system       triclinic
_cell_length_a                    30.525012
_cell_length_b                    7.249619
_cell_length_c                    25.992242
_cell_angle_alpha                 89.974194
_cell_angle_beta                  112.002358
_cell_angle_gamma                 90.044763
_cell_volume                      5333.02068495

loop_
_atom_site_label
_atom_site_type_symbol
_atom_type_description
_atom_site_fract_x
_atom_site_fract_y
_atom_site_fract_z
_atom_type_partial_charge
O1    O     O_R   0.295360 0.592990 0.320420 -0.531159
O2    O     O_R   0.704640 0.407010 0.679580 -0.531159
O3    O     O_R   0.204640 0.092990 0.179580 -0.530713
O4    O     O_R   0.795360 0.907010 0.820420 -0.530713
O5    O     O_R   0.294060 0.265620 0.213230 -0.539592
O6    O     O_R   0.705940 0.734380 0.786770 -0.539592
O7    O     O_R   0.205940 0.765620 0.286770 -0.540668
O8    O     O_R   0.794060 0.234380 0.713230 -0.540670
C1    C     C_R   0.304117 0.432350 0.199495 0.699287
C2    C     C_R   0.695883 0.567650 0.800505 0.699287
C3    C     C_R   0.195793 0.932190 0.300365 0.698748
C4    C     C_R   0.804207 0.067810 0.699635 0.698751
O9    O     O_R   0.300850 0.263360 0.322080 -0.534124
O10   O     O_R   0.699150 0.736640 0.677920 -0.534125
O11   O     O_R   0.199150 0.763360 0.177920 -0.534908
O12   O     O_R   0.800850 0.236640 0.822080 -0.534909
O13   O     O_R   0.211480 0.091820 0.289210 -0.537208
O14   O     O_R   0.788520 0.908180 0.710790 -0.537210
O15   O     O_R   0.288520 0.591820 0.210790 -0.538828
O16   O     O_R   0.711480 0.408180 0.789210 -0.538828
C5    C     C_R   0.313260 0.431457 0.343180 0.701884
C6    C     C_R   0.686740 0.568543 0.656820 0.701885
C7    C     C_R   0.186736 0.931398 0.156813 0.700447
C8    C     C_R   0.813264 0.068602 0.843186 0.700449
O17   O     O_3   0.220670 0.426670 0.239090 -0.375821
O18   O     O_3   0.779330 0.573330 0.760910 -0.375821
O19   O     O_3   0.279330 0.926670 0.260910 -0.375049
O20   O     O_3   0.720670 0.073330 0.739090 -0.375049
V1    V     V_3+5 0.255440 0.152290 0.252020 1.432782
V2    V     V_3+5 0.744560 0.847710 0.747980 1.432781
V3    V     V_3+5 0.244560 0.652290 0.247980 1.430149
V4    V     V_3+5 0.755440 0.347710 0.752020 1.430148
C9    C     C_R   0.850113 0.064356 0.899519 -0.090498
C10   C     C_R   0.149887 0.935644 0.100481 -0.090497
C11   C     C_R   0.649903 0.563877 0.600495 -0.091749
C12   C     C_R   0.350096 0.436123 0.399505 -0.091750
C13   C     C_R   0.873269 0.134554 0.997220 0.282386
C14   C     C_R   0.126731 0.865446 0.002780 0.282386
C15   C     C_R   0.627030 0.628996 0.502523 0.281894
C16   C     C_R   0.372970 0.371004 0.497476 0.281894
C17   C     C_R   0.838727 0.122898 0.943988 -0.173633
C18   C     C_R   0.161273 0.877102 0.056011 -0.173633
C19   C     C_R   0.661489 0.618944 0.555844 -0.175876
C20   C     C_R   0.338510 0.381056 0.444156 -0.175877
C21   C     C_R   0.896986 0.017441 0.908311 -0.208557
C22   C     C_R   0.103014 0.982559 0.091689 -0.208558
C23   C     C_R   0.602929 0.518837 0.591806 -0.209059
C24   C     C_R   0.397071 0.481163 0.408194 -0.209059
C25   C     C_R   0.933620 0.031069 0.961945 0.053409
C26   C     C_R   0.066380 0.968931 0.038055 0.053409
C27   C     C_R   0.566394 0.530709 0.538067 0.053538
C28   C     C_R   0.433606 0.469291 0.461933 0.053538
C29   C     C_R   0.920829 0.090307 0.006651 0.060270
C30   C     C_R   0.079171 0.909693 0.993349 0.060270
C31   C     C_R   0.579376 0.586434 0.493171 0.060245
C32   C     C_R   0.420624 0.413566 0.506829 0.060246
C33   C     C_R   0.982429 0.990540 0.972534 0.078042
C34   C     C_R   0.017571 0.009460 0.027466 0.078043
C35   C     C_R   0.517513 0.491596 0.527534 0.077873
C36   C     C_R   0.482487 0.508404 0.472465 0.077873
C37   C     C_R   0.002707 0.067629 0.070058 -0.190882
C38   C     C_R   0.997293 0.932371 0.929941 -0.190882
C39   C     C_R   0.497531 0.563149 0.429689 -0.191713
C40   C     C_R   0.502469 0.436851 0.570311 -0.191713
C41   C     C_R   0.955703 0.106451 0.059859 -0.134987
C42   C     C_R   0.044297 0.893549 0.940141 -0.134987
C43   C     C_R   0.544605 0.600644 0.439840 -0.135717
C44   C     C_R   0.455395 0.399356 0.560160 -0.135718
H1    H     H_    0.947160 0.150796 0.094705 0.185143
H2    H     H_    0.052840 0.849204 0.905295 0.185143
H3    H     H_    0.553290 0.642316 0.404849 0.185454
H4    H     H_    0.446710 0.357684 0.595151 0.185454
H5    H     H_    0.096410 0.024162 0.127878 0.106222
H6    H     H_    0.903590 0.975837 0.872122 0.106222
H7    H     H_    0.403807 0.520288 0.371878 0.106914
H8    H     H_    0.596193 0.479712 0.628122 0.106914
H9    H     H_    0.197355 0.838830 0.062875 0.143334
H10   H     H_    0.802644 0.161170 0.937125 0.143333
H11   H     H_    0.302332 0.344430 0.437383 0.148115
H12   H     H_    0.697667 0.655570 0.562617 0.148115
H13   H     H_    0.026637 0.085522 0.112353 0.129271
H14   H     H_    0.973362 0.914478 0.887647 0.129272
H15   H     H_    0.473697 0.579247 0.387279 0.130342
H16   H     H_    0.526303 0.420753 0.612721 0.130342
C45   C     C_R   0.076508 0.122242 0.457305 0.595118
C46   C     C_R   0.923491 0.877762 0.542692 0.595116
C47   C     C_R   0.426976 0.330519 0.041221 0.590729
C48   C     C_R   0.573024 0.669481 0.958779 0.590728
N1    N     N_R   0.073384 0.972074 0.423765 -0.556872
N2    N     N_R   0.926616 0.027927 0.576234 -0.556867
N3    N     N_R   0.426965 0.471461 0.076609 -0.557457
N4    N     N_R   0.573035 0.528539 0.923391 -0.557457
C49   C     C_R   0.041732 0.832639 0.419972 0.582992
C50   C     C_R   0.958269 0.167356 0.580028 0.582991
C51   C     C_R   0.455519 0.623113 0.082374 0.588739
C52   C     C_R   0.544481 0.376887 0.917626 0.588739
C53   C     C_R   0.012338 0.839972 0.450776 -0.028943
C54   C     C_R   0.987662 0.160025 0.549224 -0.028941
C55   C     C_R   0.484765 0.638294 0.051559 -0.024744
C56   C     C_R   0.515235 0.361706 0.948441 -0.024744
C57   C     C_R   0.014837 0.994330 0.484604 -0.016516
C58   C     C_R   0.985163 0.005670 0.515394 -0.016518
C59   C     C_R   0.485279 0.494126 0.015533 -0.016082
C60   C     C_R   0.514721 0.505874 0.984467 -0.016082
C61   C     C_R   0.046936 0.137377 0.487722 -0.027826
C62   C     C_R   0.953063 0.862624 0.512276 -0.027824
C63   C     C_R   0.456415 0.338270 0.010482 -0.032176
C64   C     C_R   0.543585 0.661730 0.989518 -0.032176
C65   C     C_R   0.980363 0.697254 0.448290 -0.142987
C66   C     C_R   0.019638 0.302742 0.551710 -0.142988
C67   C     C_R   0.513560 0.793789 0.056054 -0.136986
C68   C     C_R   0.486440 0.206212 0.943946 -0.136986
C69   C     C_R   0.951107 0.708424 0.478650 -0.135004
C70   C     C_R   0.048893 0.291575 0.521349 -0.135007
C71   C     C_R   0.542601 0.805337 0.025435 -0.143762
C72   C     C_R   0.457399 0.194663 0.974565 -0.143761
O21   O     O_2   0.108567 0.255832 0.461931 -0.516857
O22   O     O_2   0.891430 0.744179 0.538063 -0.516863
O23   O     O_2   0.398104 0.184197 0.035048 -0.513920
O24   O     O_2   0.601896 0.815803 0.964952 -0.513920
O25   O     O_2   0.038128 0.688123 0.385929 -0.520316
O26   O     O_2   0.961875 0.311865 0.614074 -0.520323
O27   O     O_2   0.456114 0.758311 0.118291 -0.521370
O28   O     O_2   0.543886 0.241690 0.881709 -0.521370
H17   H     H_    0.977853 0.576189 0.422930 0.175531
H18   H     H_    0.022148 0.423804 0.577071 0.175532
H19   H     H_    0.513701 0.907414 0.083163 0.174481
H20   H     H_    0.486299 0.092586 0.916837 0.174481
H21   H     H_    0.927008 0.595578 0.475711 0.175338
H22   H     H_    0.072991 0.404421 0.524288 0.175339
H23   H     H_    0.564217 0.927404 0.029976 0.176611
H24   H     H_    0.435783 0.072595 0.970024 0.176611
C73   C     C_R   0.867408 0.194267 0.603320 -0.069875
C74   C     C_R   0.132597 0.805741 0.396686 -0.069870
C75   C     C_R   0.636257 0.396962 0.896313 -0.070524
C76   C     C_R   0.363743 0.603038 0.103687 -0.070524
H25   H     H_    0.867299 0.306528 0.575780 0.164081
H26   H     H_    0.132710 0.693488 0.424232 0.164077
H27   H     H_    0.638879 0.279648 0.923109 0.159612
H28   H     H_    0.361121 0.720352 0.076892 0.159612
C77   C     C_R   0.838195 0.205111 0.633874 -0.186366
C78   C     C_R   0.161810 0.794898 0.366133 -0.186360
C79   C     C_R   0.665685 0.405555 0.866050 -0.186194
C80   C     C_R   0.334315 0.594445 0.133950 -0.186195
H29   H     H_    0.816276 0.326139 0.629346 0.139977
H30   H     H_    0.183735 0.673876 0.370666 0.139975
H31   H     H_    0.690324 0.293888 0.870138 0.137522
H32   H     H_    0.309677 0.706112 0.129862 0.137522
C81   C     C_R   0.836341 0.059129 0.668663 -0.054067
C82   C     C_R   0.163659 0.940871 0.331336 -0.054066
C83   C     C_R   0.664025 0.558110 0.831876 -0.056390
C84   C     C_R   0.335975 0.441890 0.168124 -0.056390
C85   C     C_R   0.864989 0.903541 0.672931 -0.204728
C86   C     C_R   0.135005 0.096450 0.327062 -0.204726
C87   C     C_R   0.631902 0.701142 0.828366 -0.201362
C88   C     C_R   0.368098 0.298858 0.171634 -0.201364
H33   H     H_    0.864615 0.789424 0.699673 0.136463
H34   H     H_    0.135375 0.210560 0.300314 0.136458
H35   H     H_    0.629562 0.820022 0.802220 0.139917
H36   H     H_    0.370437 0.179978 0.197779 0.139918
C89   C     C_R   0.895025 0.894711 0.643399 -0.078315
C90   C     C_R   0.104969 0.105280 0.356593 -0.078312
C91   C     C_R   0.601792 0.690671 0.857828 -0.076093
C92   C     C_R   0.398208 0.309329 0.142172 -0.076093
H37   H     H_    0.917332 0.774779 0.648186 0.155502
H38   H     H_    0.082657 0.225205 0.351801 0.155498
H39   H     H_    0.576777 0.800922 0.853661 0.160356
H40   H     H_    0.423223 0.199078 0.146339 0.160356
C93   C     C_R   0.896296 0.039182 0.607839 0.350841
C94   C     C_R   0.103703 0.960818 0.392160 0.350842
C95   C     C_R   0.603778 0.538813 0.892339 0.349684
C96   C     C_R   0.396222 0.461187 0.107661 0.349683
Br1   Br    Br    0.852815 0.216754 0.054963 -0.492459
Br2   Br    Br    0.147185 0.783246 0.945037 -0.492458
Br3   Br    Br    0.647743 0.706333 0.444508 -0.490303
Br4   Br    Br    0.352257 0.293667 0.555491 -0.490307

loop_
_geom_bond_atom_site_label_1
_geom_bond_atom_site_label_2
_ccdc_geom_bond_type
O17   V3    S    
C55   C59   A    
C25   C29   A    
C1    C84   S    
C73   H25   S    
C57   C58   A    
C54   C66   A    
C47   N3    A    
O19   V1    S    
O13   V1    S    
C78   H30   S    
O3    C7    A    
C72   H24   S    
C10   C18   A    
C56   C60   A    
C80   H32   S    
O15   V3    S    
C77   C81   A    
C33   C38   A    
C5    C12   S    
C71   H23   S    
O1    C5    A    
C6    C11   S    
C35   C40   A    
C26   C30   A    
C69   H21   S    
N3    C96   S    
C36   C39   A    
C40   C44   A    
C64   C71   A    
O9    V1    S    
C49   O25   S    
C23   H8    S    
C14   C18   A    
C48   C64   A    
C51   C55   A    
C14   Br2   S    
C50   C54   A    
N4    C95   S    
C60   C64   A    
O1    V3    S    
C9    C21   A    
C31   C43   A    
O2    V4    S    
O3    V1    S    
C73   C93   A    
C40   H16   S    
C81   C85   A    
C28   C36   A    
C90   H38   S    
C76   H28   S    
C1    O15   A    
C15   C31   A    
C76   C96   A    
C2    O16   A    
C16   C32   A    
C90   C94   A    
O2    C6    A    
C82   C86   A    
C58   C62   A    
C10   C22   A    
C83   C87   A    
C48   O24   S    
C11   C19   A    
C66   C70   A    
C16   C20   A    
C43   H3    S    
C77   H29   S    
C13   C29   A    
C34   C37   A    
O11   C7    A    
C38   H14   S    
C11   C23   A    
C35   C36   A    
O12   C8    A    
C85   H33   S    
C70   H22   S    
C24   H7    S    
C46   C62   A    
O10   V2    S    
C45   C61   A    
N2    C50   A    
O5    V1    S    
N4    C52   A    
C57   C61   A    
C39   C43   A    
O7    V3    S    
C38   C42   A    
C62   C69   A    
C87   H35   S    
C26   C34   A    
C48   N4    A    
C61   C70   A    
C88   H36   S    
C44   H4    S    
C84   C88   A    
C15   Br3   S    
C46   N2    A    
C17   H10   S    
C16   Br4   S    
C45   N1    A    
O18   V4    S    
C15   C19   A    
C91   C95   A    
C87   C91   A    
C19   H12   S    
C32   C44   A    
N3    C51   A    
O11   V3    S    
N1    C49   A    
O4    V2    S    
C39   H15   S    
C21   H6    S    
O8    V4    S    
O7    C3    A    
C47   O23   S    
C2    C83   S    
C74   C78   A    
C53   C65   A    
C3    C82   S    
C52   O28   S    
C14   C30   A    
C21   C25   A    
C91   H39   S    
O8    C4    A    
C7    C10   S    
C55   C67   A    
O9    C5    A    
C46   O22   S    
C45   O21   S    
C66   H18   S    
O14   V2    S    
C50   O26   S    
C92   H40   S    
C65   H17   S    
O6    V2    S    
C79   H31   S    
C75   C95   A    
C67   H19   S    
C12   C20   A    
C27   C35   A    
C49   C53   A    
C68   C72   A    
C29   C41   A    
C59   C63   A    
O16   V4    S    
C51   O27   S    
C3    O13   A    
C4    C81   S    
C86   C90   A    
C20   H11   S    
N1    C94   S    
O5    C1    A    
C74   H26   S    
C25   C33   A    
C23   C27   A    
C56   C68   A    
C30   C42   A    
C65   C69   A    
O12   V4    S    
C22   C26   A    
C73   C77   A    
C8    C9    S    
C75   H27   S    
C9    C17   A    
O10   C6    A    
O20   V2    S    
C89   C93   A    
C80   C84   A    
C54   C58   A    
C67   C71   A    
C78   C82   A    
C33   C34   A    
C42   H2    S    
O4    C8    A    
C41   H1    S    
C52   C56   A    
N2    C93   S    
C79   C83   A    
C75   C79   A    
C12   C24   A    
C27   C31   A    
C22   H5    S    
C13   C17   A    
C89   H37   S    
C63   C72   A    
C68   H20   S    
C92   C96   A    
O6    C2    A    
C13   Br1   S    
C37   C41   A    
C24   C28   A    
C47   C63   A    
C88   C92   A    
C18   H9    S    
C76   C80   A    
C74   C94   A    
C4    O14   A    
C59   C60   A    
C86   H34   S    
C37   H13   S    
C85   C89   A    
C53   C57   A    
C28   C32   A    
