data_mof_unit_39123.cif
_audit_creation_date              2012-12-10T17:04:33-0500
_audit_creation_method            fapswitch 2.2
_symmetry_space_group_name_H-M    P1
_symmetry_Int_Tables_number       1
_space_group_crystal_system       triclinic
_cell_length_a                    14.900851
_cell_length_b                    10.648744
_cell_length_c                    10.070032
_cell_angle_alpha                 89.177204
_cell_angle_beta                  90.051939
_cell_angle_gamma                 91.018693
_cell_volume                      1597.44821379

loop_
_atom_site_label
_atom_site_type_symbol
_atom_type_description
_atom_site_fract_x
_atom_site_fract_y
_atom_site_fract_z
_atom_type_partial_charge
C1    C     C_R   0.488050 0.263870 0.500869 0.965219
C2    C     C_R   0.907487 0.628883 0.528655 0.046882
C3    C     C_R   0.952747 0.329323 0.348153 -0.054260
C4    C     C_R   0.045954 0.329854 0.354763 -0.222201
C5    C     C_R   0.092516 0.427169 0.417265 0.115336
C6    C     C_R   0.047106 0.530008 0.470390 0.068128
C7    C     C_R   0.095353 0.631464 0.528186 -0.011494
C8    C     C_R   0.049431 0.744330 0.554698 -0.099276
C9    C     C_R   0.954631 0.743225 0.553743 -0.076730
C10   C     C_R   0.184584 0.422516 0.426474 -0.225791
C11   C     C_R   0.231498 0.513756 0.496159 -0.126663
C12   C     C_R   0.327074 0.502724 0.499719 0.913692
C13   C     C_R   0.188361 0.617417 0.551271 -0.073133
C14   C     C_2   0.450466 0.928606 0.412684 -0.170799
C15   C     C_2   0.510053 0.871224 0.492387 -0.140764
C16   C     C_2   0.445317 0.064127 0.398710 -0.003378
C17   C     C_2   0.463157 0.133162 0.506148 -0.363129
C18   C     C_2   0.552850 0.571524 0.922589 -0.083510
C19   C     C_2   0.561224 0.557217 0.071233 -0.000915
C20   C     C_R   0.503788 0.737641 0.498856 0.909582
C21   C     C_R   0.673046 0.501818 0.499885 0.857874
C22   C     C_R   0.815187 0.612139 0.555789 -0.068209
C23   C     C_R   0.769083 0.511310 0.496717 -0.126553
C24   C     C_R   0.813177 0.421854 0.423626 -0.200637
C25   C     C_R   0.905918 0.426439 0.411625 0.048934
C26   C     C_R   0.953476 0.529136 0.468909 0.041891
H1    H     H_    0.466880 0.088714 0.603814 0.176292
H2    H     H_    0.594556 0.641697 0.871813 0.176233
H3    H     H_    0.472400 0.423569 0.898058 0.167996
H4    H     H_    0.773919 0.344729 0.383737 0.186487
H5    H     H_    0.082701 0.254119 0.310180 0.191770
H6    H     H_    0.220039 0.344688 0.383769 0.187726
H7    H     H_    0.401035 0.873296 0.357885 0.197316
N1    N     N_2   0.500970 0.501330 0.852150 -0.170535
N2    N     N_2   0.500990 0.501360 0.147810 -0.190184
O1    O     O_R   0.499990 0.319060 0.613040 -0.615316
O2    O     O_R   0.500010 0.319100 0.386900 -0.601948
O3    O     O_R   0.367830 0.499950 0.613080 -0.598643
O4    O     O_R   0.367860 0.499990 0.386940 -0.623254
O5    O     O_R   0.499990 0.680900 0.613100 -0.574365
O6    O     O_R   0.500010 0.680940 0.386960 -0.567800
O7    O     O_R   0.632140 0.500010 0.613060 -0.637094
O8    O     O_R   0.632170 0.500050 0.386920 -0.584816
Zn1   Zn    Zn3+2 0.499980 0.499970 0.650990 1.017025
Zn2   Zn    Zn3+2 0.500020 0.500030 0.349010 1.034485
C27   C     C_2   0.767822 0.691320 0.652949 0.453478
H8    H     H_    0.698621 0.716002 0.636545 0.097127
O9    O     O_2   0.804852 0.724784 0.755057 -0.517104
C28   C     C_2   0.589121 0.933297 0.555326 0.870009
O10   O     O_2   0.607701 0.909264 0.671082 -0.604486
O11   O     O_R   0.642217 0.018767 0.481959 -0.744888
H9    H     H_    0.693878 0.054817 0.535746 0.355784
C29   C     C_2   0.410922 0.115546 0.271487 0.980139
O12   O     O_2   0.433374 0.068804 0.166687 -0.577791
O13   O     O_R   0.347604 0.210566 0.272093 -0.841582
H10   H     H_    0.321140 0.226394 0.180801 0.329055
C30   C     C_2   0.643756 0.612937 0.127519 0.523334
H11   H     H_    0.708196 0.592346 0.083510 0.064252
O14   O     O_2   0.640214 0.690330 0.215312 -0.501973
C31   C     C_2   0.409318 0.503959 0.106216 0.578631
H12   H     H_    0.364245 0.427959 0.135008 0.056269
O15   O     O_2   0.378874 0.595072 0.047427 -0.545451
C32   C     C_2   0.908190 0.225407 0.274731 0.936403
O16   O     O_2   0.844752 0.246332 0.201038 -0.598729
O17   O     O_R   0.942207 0.104076 0.284793 -0.759768
H13   H     H_    0.907475 0.041568 0.228701 0.387867
C33   C     C_2   0.238776 0.702881 0.641010 0.942469
O18   O     O_2   0.306733 0.757701 0.602098 -0.630049
O19   O     O_R   0.207324 0.721278 0.769879 -0.737511
H14   H     H_    0.246886 0.781658 0.821600 0.381135
C34   C     C_2   0.099528 0.866232 0.558980 0.946019
O20   O     O_2   0.095039 0.932562 0.656719 -0.530153
O21   O     O_R   0.154004 0.902747 0.451737 -0.777100
H15   H     H_    0.185812 0.986393 0.466326 0.353998
C35   C     C_2   0.905549 0.864016 0.553755 0.972321
O22   O     O_2   0.853219 0.887763 0.463566 -0.609528
O23   O     O_R   0.916964 0.948313 0.657734 -0.694295
H16   H     H_    0.879253 0.026030 0.646084 0.350648

loop_
_geom_bond_atom_site_label_1
_geom_bond_atom_site_label_2
_ccdc_geom_bond_type
O13   H10   S    
C32   O17   S    
O21   H15   S    
C14   H7    S    
C20   O6    A    
C7    C8    A    
C29   O12   D    
C19   C30   S    
C5    C6    A    
C20   O5    A    
C30   O14   D    
O11   H9    S    
C31   O15   D    
C18   C19   S    
C35   O23   S    
C16   C29   S    
C21   O8    A    
C8    C9    A    
C28   O11   S    
C2    C22   A    
C23   C24   A    
C1    O2    A    
O4    Zn2   S    
O7    Zn1   S    
C5    C10   A    
C29   O13   S    
C15   C20   S    
C27   O9    D    
C33   O18   D    
C17   H1    S    
C3    C25   A    
N1    Zn1   S    
C24   C25   A    
C34   O21   S    
C16   C17   D    
C25   C26   A    
O23   H16   S    
H3    N1    S    
C21   O7    A    
C31   H12   S    
C33   O19   S    
C35   O22   D    
O3    Zn1   S    
O8    Zn2   S    
O5    Zn1   S    
C18   H2    S    
C2    C26   A    
C18   N1    D    
C22   C27   S    
O17   H13   S    
C21   C23   S    
C14   C16   S    
O1    Zn1   S    
O2    Zn2   S    
C3    C4    A    
N2    Zn2   S    
C13   C33   S    
C27   H8    S    
C8    C34   S    
C22   C23   A    
C4    C5    A    
C11   C12   S    
C6    C7    A    
C3    C32   S    
C1    C17   S    
C12   O4    A    
C34   O20   D    
C19   N2    D    
C11   C13   A    
C30   H11   S    
C6    C26   A    
C15   C28   S    
C12   O3    A    
O19   H14   S    
C24   H4    S    
C4    H5    S    
C10   C11   A    
C32   O16   D    
C10   H6    S    
C7    C13   A    
C28   O10   D    
O6    Zn2   S    
C14   C15   D    
N2    C31   S    
C9    C35   S    
C2    C9    A    
C1    O1    A    
