data_mof_unit_64310.cif
_audit_creation_date              2012-12-10T19:05:41-0500
_audit_creation_method            fapswitch 2.2
_symmetry_space_group_name_H-M    P1
_symmetry_Int_Tables_number       1
_space_group_crystal_system       triclinic
_cell_length_a                    10.522305
_cell_length_b                    13.072288
_cell_length_c                    13.620401
_cell_angle_alpha                 85.659342
_cell_angle_beta                  89.950202
_cell_angle_gamma                 92.522792
_cell_volume                      1866.29336843

loop_
_atom_site_label
_atom_site_type_symbol
_atom_type_description
_atom_site_fract_x
_atom_site_fract_y
_atom_site_fract_z
_atom_type_partial_charge
Br1   Br    Br    0.103438 0.422183 0.293185 -0.500069
Br2   Br    Br    0.896562 0.577817 0.706815 -0.500069
C1    C     C_R   0.498764 0.481181 0.685134 0.909899
C2    C     C_3   0.044841 0.597144 0.509454 -0.198591
C3    C     C_3   0.039492 0.437459 0.576092 -0.244570
C4    C     C_3   0.960508 0.562540 0.423907 -0.244570
C5    C     C_3   0.122491 0.501939 0.500174 -0.096266
C6    C     C_3   0.877509 0.498061 0.499825 -0.096266
C7    C     C_3   0.040387 0.467744 0.415512 0.318016
C8    C     C_3   0.959613 0.532256 0.584488 0.318016
C9    C     C_1   0.501958 0.533795 0.211650 -0.133902
C10   C     C_1   0.498042 0.466204 0.788350 -0.133902
C11   C     C_2   0.502347 0.544532 0.020394 -0.133483
C12   C     C_R   0.501236 0.518819 0.314866 0.909900
C13   C     C_2   0.497653 0.455468 0.979606 -0.133483
C14   C     C_1   0.497668 0.457402 0.875819 0.036451
C15   C     C_1   0.502332 0.542597 0.124181 0.036451
C16   C     C_2   0.463923 0.033346 0.473209 -0.236699
C17   C     C_2   0.536077 0.966654 0.526791 -0.236699
C18   C     C_1   0.526020 0.854649 0.519438 0.164981
C19   C     C_1   0.473980 0.145351 0.480562 0.164981
C20   C     C_R   0.742928 0.499246 0.499870 0.926124
C21   C     C_R   0.257072 0.500754 0.500130 0.926124
C22   C     C_3   0.955159 0.402856 0.490546 -0.198591
H1    H     H_    0.075976 0.387465 0.638372 0.175627
H2    H     H_    0.924024 0.612535 0.361628 0.175627
H3    H     H_    0.915132 0.323997 0.482207 0.182544
H4    H     H_    0.084867 0.676003 0.517793 0.182544
H5    H     H_    0.493843 0.382288 0.023379 0.168359
H6    H     H_    0.506157 0.617712 0.976621 0.168359
H7    H     H_    0.605138 0.996105 0.577965 0.172861
H8    H     H_    0.394862 0.003895 0.422035 0.172861
N1    N     N_1   0.479750 0.234530 0.484780 -0.087559
N2    N     N_1   0.520250 0.765470 0.515220 -0.087559
O1    O     O_R   0.492590 0.402510 0.634760 -0.616916
O2    O     O_R   0.507410 0.597490 0.365240 -0.616916
O3    O     O_R   0.505590 0.572960 0.644530 -0.591238
O4    O     O_R   0.494410 0.427040 0.355470 -0.591238
O5    O     O_R   0.679550 0.414790 0.495140 -0.624544
O6    O     O_R   0.320450 0.585210 0.504860 -0.624544
O7    O     O_R   0.692550 0.585240 0.504910 -0.596633
O8    O     O_R   0.307450 0.414760 0.495090 -0.596633
Zn1   Zn    Zn3+2 0.491320 0.386190 0.493470 1.005607
Zn2   Zn    Zn3+2 0.508680 0.613810 0.506530 1.005608

loop_
_geom_bond_atom_site_label_1
_geom_bond_atom_site_label_2
_ccdc_geom_bond_type
C6    C20   S    
C7    C22   S    
C1    O1    A    
C12   O4    A    
C16   C19   S    
O1    Zn1   S    
C17   C18   S    
C22   H3    S    
C11   C15   S    
C18   N2    T    
O3    Zn2   S    
C17   H7    S    
C3    C8    S    
C3    C22   S    
C4    H2    S    
C21   O8    A    
C4    C7    S    
C2    C5    S    
C3    H1    S    
C20   O5    A    
C4    C6    S    
C2    C4    S    
C6    C22   S    
C13   H5    S    
C11   C13   D    
C12   O2    A    
O7    Zn2   S    
C5    C21   S    
O2    Zn2   S    
C20   O7    A    
C16   H8    S    
O8    Zn1   S    
C2    C8    S    
C21   O6    A    
N1    Zn1   S    
Br1   C7    S    
C5    C7    S    
C11   H6    S    
O6    Zn2   S    
C19   N1    T    
C1    O3    A    
C6    C8    S    
C16   C17   D    
C9    C12   S    
C3    C5    S    
N2    Zn2   S    
C9    C15   T    
O5    Zn1   S    
C1    C10   S    
C2    H4    S    
C13   C14   S    
O4    Zn1   S    
C10   C14   T    
Br2   C8    S    
