data_mof_unit_40482.cif
_audit_creation_date              2012-12-10T17:15:14-0500
_audit_creation_method            fapswitch 2.2
_symmetry_space_group_name_H-M    P1
_symmetry_Int_Tables_number       1
_space_group_crystal_system       triclinic
_cell_length_a                    15.825312
_cell_length_b                    13.012764
_cell_length_c                    11.805431
_cell_angle_alpha                 97.992516
_cell_angle_beta                  91.997303
_cell_angle_gamma                 94.360725
_cell_volume                      2397.97873077

loop_
_atom_site_label
_atom_site_type_symbol
_atom_type_description
_atom_site_fract_x
_atom_site_fract_y
_atom_site_fract_z
_atom_type_partial_charge
C1    C     C_R   0.497192 0.300131 0.480689 0.799146
C2    C     C_R   0.502479 0.701191 0.519191 0.791342
C3    C     C_R   0.409641 0.025437 0.390985 0.095299
C4    C     C_R   0.517418 0.981184 0.657191 0.079192
C5    C     C_R   0.425403 0.132941 0.396521 -0.275790
C6    C     C_R   0.516415 0.872814 0.639274 -0.244999
C7    C     C_R   0.528670 0.137013 0.556322 0.018800
C8    C     C_R   0.479053 0.869483 0.435695 0.028808
C9    C     C_R   0.501502 0.032231 0.561699 0.054904
C10   C     C_R   0.459585 0.973805 0.463581 0.062884
C11   C     C_R   0.414029 0.404691 0.033152 -0.362608
C12   C     C_R   0.587948 0.592339 0.966293 -0.368292
C13   C     C_R   0.422576 0.414721 0.151916 0.066050
C14   C     C_R   0.577940 0.584464 0.847905 0.057197
C15   C     C_R   0.542515 0.537347 0.151161 0.240495
C16   C     C_R   0.458976 0.460277 0.848393 0.239791
C17   C     C_R   0.533363 0.532490 0.029688 0.044685
C18   C     C_R   0.467944 0.465461 0.969917 0.044750
C19   C     C_R   0.340171 0.500269 0.501434 0.824982
C20   C     C_R   0.659882 0.500583 0.498658 0.821058
C21   C     C_3   0.969609 0.447274 0.580383 -0.206744
C22   C     C_3   0.030856 0.559395 0.420770 -0.200324
C23   C     C_3   0.021494 0.406193 0.477787 0.153447
C24   C     C_3   0.978933 0.600558 0.523356 0.154888
C25   C     C_1   0.250647 0.502192 0.504197 -0.188074
C26   C     C_1   0.749574 0.501113 0.496224 -0.180880
C27   C     C_3   0.032639 0.546088 0.605367 -0.202591
C28   C     C_3   0.967810 0.460679 0.395859 -0.208202
C29   C     C_3   0.083346 0.503801 0.502468 0.136571
C30   C     C_3   0.917107 0.502872 0.498667 0.135770
C31   C     C_1   0.175097 0.503389 0.504254 -0.081093
C32   C     C_1   0.825266 0.501923 0.496565 -0.084191
C33   C     C_R   0.501678 0.815767 0.528834 -0.121748
C34   C     C_R   0.486746 0.187806 0.474910 -0.091125
Cu1   Cu    Cu3+1 0.506200 0.507730 0.615930 0.913810
Cu2   Cu    Cu3+1 0.493800 0.492270 0.384070 0.912775
H1    H     H_    0.943474 0.400942 0.645190 0.134989
H2    H     H_    0.057030 0.605744 0.355998 0.130196
H3    H     H_    0.940048 0.425047 0.310460 0.131353
H4    H     H_    0.060402 0.581628 0.690790 0.130157
H5    H     H_    0.529276 0.833488 0.712322 0.168486
H6    H     H_    0.390106 0.174249 0.339532 0.153763
H7    H     H_    0.620727 0.630419 0.801567 0.131519
H8    H     H_    0.379766 0.368769 0.198236 0.128832
H9    H     H_    0.364049 0.348986 0.993585 0.152380
H10   H     H_    0.639674 0.645651 0.005204 0.154201
N1    N     N_R   0.515540 0.519350 0.790140 -0.192524
N2    N     N_R   0.484460 0.480650 0.209860 -0.190355
O1    O     O_R   0.504400 0.354460 0.582000 -0.607382
O2    O     O_R   0.495600 0.645540 0.418000 -0.612859
O3    O     O_R   0.493920 0.341410 0.386200 -0.585168
O4    O     O_R   0.506080 0.658590 0.613800 -0.582531
O5    O     O_R   0.384320 0.506520 0.597880 -0.588631
O6    O     O_R   0.615680 0.493480 0.402120 -0.591275
O7    O     O_R   0.373840 0.493460 0.402080 -0.579119
O8    O     O_R   0.626160 0.506540 0.597920 -0.578052
C35   C     C_3   0.047843 0.295400 0.449580 -0.417400
C36   C     C_3   0.970737 0.215671 0.441473 -0.342233
C37   C     C_3   0.993732 0.107361 0.392633 -0.868827
H11   H     H_    0.013812 0.107174 0.303427 0.250712
H12   H     H_    0.045797 0.082943 0.445858 0.260407
H13   H     H_    0.937413 0.050836 0.391525 0.240230
H14   H     H_    0.946445 0.213049 0.528284 0.218038
H15   H     H_    0.919525 0.238322 0.385317 0.219751
H16   H     H_    0.079856 0.289066 0.366864 0.199501
H17   H     H_    0.093767 0.280156 0.517445 0.193627
C38   C     C_3   0.951968 0.711279 0.549210 -0.420303
C39   C     C_3   0.029091 0.791373 0.566004 -0.338948
C40   C     C_3   0.002027 0.901561 0.595624 -0.856334
H18   H     H_    0.958636 0.920148 0.526736 0.256229
H19   H     H_    0.969246 0.909286 0.677696 0.251583
H20   H     H_    0.058842 0.958167 0.604723 0.239835
H21   H     H_    0.072089 0.774526 0.636408 0.217069
H22   H     H_    0.064673 0.786906 0.486142 0.217600
H23   H     H_    0.910246 0.726642 0.476783 0.196711
H24   H     H_    0.915118 0.717279 0.627963 0.196803
C41   C     C_3   0.491509 0.828522 0.309117 -0.385653
C42   C     C_3   0.550737 0.902157 0.249418 -0.366364
C43   C     C_3   0.540274 0.876045 0.119222 -0.882315
H25   H     H_    0.550164 0.793287 0.090786 0.256101
H26   H     H_    0.475475 0.890896 0.089923 0.260594
H27   H     H_    0.587198 0.925528 0.078699 0.244845
H28   H     H_    0.538903 0.985061 0.272000 0.238448
H29   H     H_    0.617695 0.894642 0.276733 0.209531
H30   H     H_    0.522490 0.756421 0.298170 0.216579
H31   H     H_    0.430082 0.809215 0.260616 0.195345
C44   C     C_3   0.611244 0.186375 0.619365 -0.415164
C45   C     C_3   0.679545 0.212485 0.535991 -0.320245
C46   C     C_3   0.761809 0.259325 0.600430 -0.872119
H32   H     H_    0.750248 0.330391 0.659787 0.265675
H33   H     H_    0.788929 0.201949 0.649798 0.246350
H34   H     H_    0.808312 0.281282 0.538130 0.239881
H35   H     H_    0.692478 0.140377 0.479120 0.212106
H36   H     H_    0.658288 0.269099 0.481299 0.212736
H37   H     H_    0.599338 0.256590 0.679548 0.223030
H38   H     H_    0.639313 0.131913 0.671480 0.196875
C47   C     C_3   0.337254 0.968729 0.313563 -0.397491
C48   C     C_3   0.252521 0.017227 0.333196 -0.351984
C49   C     C_3   0.180119 0.949064 0.264839 -0.867191
H39   H     H_    0.119867 0.986196 0.277498 0.246556
H40   H     H_    0.172934 0.871418 0.294017 0.250382
H41   H     H_    0.192464 0.939072 0.172049 0.253192
H42   H     H_    0.239043 0.025289 0.425704 0.222574
H43   H     H_    0.255020 0.095556 0.305666 0.211567
H44   H     H_    0.353772 0.967992 0.222719 0.197362
H45   H     H_    0.326494 0.887542 0.331746 0.201331
C50   C     C_3   0.523378 0.037990 0.779266 -0.430599
C51   C     C_3   0.449149 0.002319 0.848913 -0.333015
C52   C     C_3   0.446615 0.072801 0.963441 -0.868325
H46   H     H_    0.434882 0.153245 0.949231 0.252171
H47   H     H_    0.394550 0.042788 0.013712 0.236960
H48   H     H_    0.507557 0.074802 0.013559 0.262782
H49   H     H_    0.388173 0.004249 0.799774 0.223108
H50   H     H_    0.455364 0.921241 0.865687 0.216806
H51   H     H_    0.584514 0.024336 0.821712 0.187838
H52   H     H_    0.521061 0.123042 0.780141 0.207349
C53   C     C_3   0.386290 0.388390 0.786040 -0.369252
C54   C     C_3   0.299685 0.433842 0.803593 -0.350500
C55   C     C_3   0.227652 0.358919 0.743742 -0.868371
H53   H     H_    0.238759 0.339614 0.651142 0.251054
H54   H     H_    0.222878 0.285947 0.782829 0.249343
H55   H     H_    0.166635 0.395509 0.752881 0.245032
H56   H     H_    0.286621 0.450409 0.895687 0.210697
H57   H     H_    0.299343 0.509092 0.769526 0.242211
H58   H     H_    0.394308 0.369464 0.694830 0.251180
H59   H     H_    0.385832 0.310407 0.814137 0.153548
C56   C     C_3   0.618432 0.603948 0.212505 -0.383432
C57   C     C_3   0.701973 0.551588 0.193666 -0.335578
C58   C     C_3   0.777929 0.623601 0.247123 -0.869298
H60   H     H_    0.785833 0.693175 0.202441 0.247461
H61   H     H_    0.768979 0.649513 0.339222 0.253612
H62   H     H_    0.836527 0.581795 0.239134 0.244527
H63   H     H_    0.699886 0.477896 0.231111 0.241148
H64   H     H_    0.712019 0.530799 0.101038 0.209716
H65   H     H_    0.624202 0.681207 0.183410 0.157279
H66   H     H_    0.610443 0.626268 0.303581 0.240001

loop_
_geom_bond_atom_site_label_1
_geom_bond_atom_site_label_2
_ccdc_geom_bond_type
C25   C31   T    
C5    H6    S    
C11   C18   A    
C26   C32   T    
C22   C29   S    
C27   C29   S    
Cu1   Cu2   S    
C24   C27   S    
C35   H17   S    
C20   O8    A    
Cu1   N1    S    
C57   C58   S    
C47   C48   S    
C41   C42   S    
C23   C29   S    
C56   H65   S    
C52   H47   S    
Cu1   O5    S    
C39   H22   S    
C48   H42   S    
C22   H2    S    
C51   C52   S    
C15   C17   A    
C51   H50   S    
C40   H19   S    
C54   C55   S    
C2    O2    A    
C24   C38   S    
C42   H28   S    
C7    C44   S    
C39   C40   S    
C6    H5    S    
C44   H37   S    
C12   C17   A    
Cu1   O1    S    
C50   C51   S    
C46   H33   S    
C53   H59   S    
C54   H56   S    
C58   H62   S    
C47   H44   S    
C19   O5    A    
C21   C27   S    
C41   H30   S    
C37   H11   S    
C22   C28   S    
C44   H38   S    
C57   H63   S    
C15   N2    A    
C16   N1    A    
C1    C34   S    
C55   H54   S    
C36   H15   S    
C4    C50   S    
C45   H36   S    
C37   H12   S    
C38   C39   S    
C56   H66   S    
C20   O6    A    
C52   H48   S    
C43   H26   S    
C42   C43   S    
C28   H3    S    
C39   H21   S    
C12   H10   S    
C51   H49   S    
C40   H20   S    
C57   H64   S    
C13   N2    A    
C3    C47   S    
C49   H39   S    
C27   H4    S    
C5    C34   A    
C17   C18   A    
C16   C18   A    
C54   H57   S    
C23   C28   S    
C46   H34   S    
C1    O3    A    
C50   H51   S    
Cu2   O3    S    
C2    O4    A    
C23   C35   S    
C47   H45   S    
C2    C33   S    
C4    C6    A    
C49   H40   S    
C12   C14   A    
C41   H31   S    
C21   C23   S    
C8    C41   S    
C7    C34   A    
C22   C24   S    
C11   H9    S    
C38   H23   S    
C56   C57   S    
C46   H32   S    
Cu2   O2    S    
C58   H60   S    
C9    C10   A    
C55   H55   S    
C19   O7    A    
C36   H14   S    
C7    C9    A    
C45   H35   S    
C37   H13   S    
Cu1   O8    S    
C35   H16   S    
C3    C5    A    
C43   H27   S    
C55   H53   S    
C14   N1    A    
C21   C30   S    
C6    C33   A    
C28   C30   S    
C36   C37   S    
C29   C31   S    
Cu2   O7    S    
C16   C53   S    
C30   C32   S    
C11   C13   A    
C35   C36   S    
C20   C26   S    
C48   H43   S    
C1    O1    A    
Cu2   N2    S    
C8    C33   A    
C40   H18   S    
C19   C25   S    
C24   C30   S    
C50   H52   S    
Cu2   O6    S    
C43   H25   S    
C42   H29   S    
C49   H41   S    
C21   H1    S    
C45   C46   S    
C44   C45   S    
C8    C10   A    
C48   C49   S    
C52   H46   S    
Cu1   O4    S    
C3    C10   A    
C15   C56   S    
C38   H24   S    
C4    C9    A    
C53   C54   S    
C53   H58   S    
C13   H8    S    
C14   H7    S    
C58   H61   S    
