data_mof_unit_41420.cif
_audit_creation_date              2012-12-10T17:01:33-0500
_audit_creation_method            fapswitch 2.2
_symmetry_space_group_name_H-M    P1
_symmetry_Int_Tables_number       1
_space_group_crystal_system       triclinic
_cell_length_a                    12.812031
_cell_length_b                    10.654722
_cell_length_c                    10.116998
_cell_angle_alpha                 90.864475
_cell_angle_beta                  98.023508
_cell_angle_gamma                 90.319821
_cell_volume                      1367.34131491

loop_
_atom_site_label
_atom_site_type_symbol
_atom_type_description
_atom_site_fract_x
_atom_site_fract_y
_atom_site_fract_z
_atom_type_partial_charge
C1    C     C_R   0.500108 0.262756 0.498729 0.981248
C2    C     C_2   0.499689 0.129820 0.492642 -0.406444
C3    C     C_2   0.570218 0.555864 0.943369 -0.014393
C4    C     C_R   0.298463 0.499232 0.472774 0.867900
C5    C     C_2   0.581324 0.526483 0.089561 -0.191161
C6    C     C_R   0.505089 0.737304 0.502085 0.961081
C7    C     C_R   0.701661 0.499262 0.526875 0.928728
C8    C     C_R   0.814352 0.502332 0.543255 -0.110672
C9    C     C_R   0.186026 0.495067 0.455216 -0.043338
C10   C     C_R   0.021946 0.409938 0.345802 -0.203831
C11   C     C_R   0.129895 0.424580 0.350920 -0.213633
C12   C     C_R   0.028971 0.535555 0.551660 0.071921
C13   C     C_R   0.135831 0.552732 0.552863 -0.254055
C14   C     C_R   0.637062 0.660532 0.909552 0.204210
C15   C     C_R   0.747086 0.655122 0.943967 -0.219696
C16   C     C_R   0.809951 0.759856 0.927231 -0.150802
C17   C     C_R   0.763769 0.869764 0.874488 -0.098833
C18   C     C_R   0.654258 0.878109 0.846663 -0.184545
C19   C     C_R   0.590906 0.774539 0.866076 -0.102447
C20   C     C_R   0.451784 0.387806 0.884700 0.280568
C21   C     C_R   0.341515 0.380365 0.870716 -0.179812
C22   C     C_R   0.291571 0.267890 0.895500 -0.172419
C23   C     C_R   0.971648 0.463601 0.446800 0.126250
C24   C     C_R   0.351496 0.161424 0.931806 -0.104331
C25   C     C_R   0.461410 0.167272 0.943057 -0.167865
C26   C     C_R   0.511635 0.279875 0.919222 -0.118826
C27   C     C_3   0.066128 0.594718 0.865242 0.045791
C28   C     C_3   0.145698 0.673265 0.958962 -0.342769
C29   C     C_3   0.178909 0.607023 0.090359 -0.952733
C30   C     C_3   0.682971 0.079040 0.263628 0.105708
C31   C     C_3   0.757750 0.170736 0.208921 -0.322766
C32   C     C_3   0.795901 0.119927 0.082969 -1.009427
C33   C     C_R   0.864585 0.447917 0.443609 -0.276389
C34   C     C_R   0.870512 0.571048 0.648230 -0.313994
C35   C     C_R   0.978465 0.587797 0.653908 0.457770
C36   C     C_2   0.554605 0.932200 0.409958 -0.301107
C37   C     C_2   0.523895 0.869010 0.510775 -0.371861
C38   C     C_2   0.565463 0.069238 0.421627 0.519174
H1    H     H_    0.819531 0.396655 0.361482 0.159706
H2    H     H_    0.516802 0.914027 0.605819 0.149295
H3    H     H_    0.784171 0.570041 0.983982 0.119449
H4    H     H_    0.894566 0.755439 0.953514 0.155369
H5    H     H_    0.812811 0.949474 0.858158 0.147210
H6    H     H_    0.618601 0.965605 0.812076 0.128637
H7    H     H_    0.505949 0.783770 0.849024 0.124076
H8    H     H_    0.294678 0.462187 0.841775 0.134745
H9    H     H_    0.206429 0.263143 0.885886 0.132255
H10   H     H_    0.312752 0.074180 0.950298 0.127171
H11   H     H_    0.507502 0.084290 0.969172 0.120538
H12   H     H_    0.438276 0.083557 0.538177 0.105622
H13   H     H_    0.596706 0.283182 0.926310 0.123409
H14   H     H_    0.105339 0.506162 0.839395 0.125511
H15   H     H_    0.997648 0.570599 0.916965 0.143875
H16   H     H_    0.216560 0.691195 0.909697 0.213964
H17   H     H_    0.110184 0.765090 0.980165 0.229813
H18   H     H_    0.109600 0.595068 0.143780 0.274823
H19   H     H_    0.239259 0.664494 0.154171 0.275864
H20   H     H_    0.212964 0.513756 0.072128 0.258647
H21   H     H_    0.616895 0.055054 0.183456 0.132018
H22   H     H_    0.727820 0.993210 0.296623 0.144815
H23   H     H_    0.657479 0.538899 0.150291 0.171375
H24   H     H_    0.716723 0.261154 0.185783 0.229368
H25   H     H_    0.827212 0.188103 0.285968 0.217442
H26   H     H_    0.837112 0.029414 0.103599 0.276544
H27   H     H_    0.851732 0.188049 0.048342 0.260777
H28   H     H_    0.728035 0.106500 0.002920 0.265438
H29   H     H_    0.428079 0.511186 0.092638 0.177812
H30   H     H_    0.829741 0.616975 0.720908 0.193133
H31   H     H_    0.978387 0.355078 0.265061 0.136462
H32   H     H_    0.169789 0.378525 0.276149 0.158399
H33   H     H_    0.181267 0.607844 0.632027 0.182828
H34   H     H_    0.569501 0.883701 0.319350 0.162579
N1    N     N_2   0.501130 0.501330 0.852280 -0.168934
N2    N     N_2   0.501160 0.501360 0.147950 -0.193292
O1    O     O_R   0.499980 0.319060 0.613040 -0.622097
O2    O     O_3   0.644593 0.138012 0.372520 -0.635197
O3    O     O_R   0.500020 0.319100 0.386900 -0.569230
O4    O     O_R   0.346340 0.499960 0.594380 -0.630598
O5    O     O_R   0.346380 0.500000 0.368250 -0.624890
O6    O     O_R   0.499980 0.680900 0.613100 -0.627155
O7    O     O_R   0.500020 0.680940 0.386960 -0.609263
O8    O     O_R   0.653620 0.500000 0.631750 -0.620335
O9    O     O_R   0.653660 0.500040 0.405620 -0.619609
O10   O     O_3   0.032121 0.665856 0.750942 -0.651330
Zn1   Zn    Zn3+2 0.499980 0.499970 0.650990 0.941158
Zn2   Zn    Zn3+2 0.500020 0.500030 0.349010 0.949600

loop_
_geom_bond_atom_site_label_1
_geom_bond_atom_site_label_2
_ccdc_geom_bond_type
C7    O9    A    
C1    O3    A    
C11   H32   S    
C7    C8    S    
C38   O2    S    
C12   C13   A    
C12   C23   A    
C28   C29   S    
C33   H1    S    
C29   H20   S    
C36   C37   D    
C18   C19   A    
C37   H2    S    
C30   C31   S    
C34   C35   A    
C15   C16   A    
C1    C2    S    
C5    N2    D    
C9    C13   A    
C2    H12   S    
O1    Zn1   S    
C16   C17   A    
C23   C33   A    
C30   H22   S    
O7    Zn2   S    
C22   H9    S    
C6    O7    A    
C21   C22   A    
C31   H24   S    
C28   H17   S    
C1    O1    A    
C31   H25   S    
C24   C25   A    
C15   H3    S    
C4    O5    A    
C34   H30   S    
C28   H16   S    
C13   H33   S    
C25   C26   A    
C24   H10   S    
C32   H26   S    
C17   H5    S    
C4    O4    A    
O6    Zn1   S    
C18   H6    S    
C30   O2    S    
C2    C38   D    
C6    O6    A    
C31   C32   S    
C30   H21   S    
O9    Zn2   S    
C19   H7    S    
C17   C18   A    
C6    C37   S    
C5    H23   S    
H29   N2    S    
C8    C34   A    
N2    Zn2   S    
C12   C35   A    
C9    C11   A    
N1    Zn1   S    
C3    C14   S    
O4    Zn1   S    
C29   H19   S    
O3    Zn2   S    
C22   C24   A    
C16   H4    S    
C27   H14   S    
C32   H28   S    
C21   H8    S    
C27   O10   S    
C14   C19   A    
C3    C5    S    
C35   O10   S    
C27   H15   S    
C29   H18   S    
C10   C23   A    
O8    Zn1   S    
C36   C38   S    
C26   H13   S    
C20   C26   A    
C20   N1    S    
C8    C33   A    
C3    N1    D    
C25   H11   S    
C10   C11   A    
C10   H31   S    
C7    O8    A    
C20   C21   A    
C27   C28   S    
C14   C15   A    
C4    C9    S    
O5    Zn2   S    
C36   H34   S    
C32   H27   S    
