data_mof_unit_5973.cif
_audit_creation_date              2012-12-10T17:20:49-0500
_audit_creation_method            fapswitch 2.2
_symmetry_space_group_name_H-M    P1
_symmetry_Int_Tables_number       1
_space_group_crystal_system       triclinic
_cell_length_a                    14.322695
_cell_length_b                    10.793883
_cell_length_c                    9.639638
_cell_angle_alpha                 90.099449
_cell_angle_beta                  89.227315
_cell_angle_gamma                 93.301124
_cell_volume                      1487.65508807

loop_
_atom_site_label
_atom_site_type_symbol
_atom_type_description
_atom_site_fract_x
_atom_site_fract_y
_atom_site_fract_z
_atom_type_partial_charge
C1    C     C_R   0.495640 0.262584 0.500133 0.774846
C2    C     C_R   0.550974 0.068260 0.414390 -0.216942
C3    C     C_R   0.551783 0.940659 0.415147 -0.213103
C4    C     C_R   0.331263 0.499298 0.500859 0.785715
C5    C     C_R   0.489985 0.870478 0.500855 -0.079444
C6    C     C_R   0.604493 0.697935 0.132845 0.503826
C7    C     C_R   0.622585 0.807006 0.055238 -0.287587
C8    C     C_R   0.627895 0.798855 0.913216 -0.280928
C9    C     C_R   0.602964 0.687074 0.850419 -0.143154
C10   C     C_R   0.550417 0.592903 0.922996 0.143620
C11   C     C_R   0.550545 0.595164 0.072211 0.094666
C12   C     C_1   0.770925 0.496239 0.499698 -0.224392
C13   C     C_R   0.451363 0.411510 0.074672 -0.068841
C14   C     C_R   0.451125 0.411843 0.927203 -0.059005
C15   C     C_R   0.497229 0.737100 0.500234 0.801760
C16   C     C_R   0.668643 0.498637 0.499541 0.835818
C17   C     C_1   0.228854 0.498526 0.502627 -0.207969
C18   C     C_1   0.143334 0.497665 0.503114 -0.012826
C19   C     C_1   0.042583 0.496537 0.502827 0.003725
C20   C     C_1   0.957071 0.495731 0.502175 -0.003972
C21   C     C_1   0.856364 0.495452 0.500879 -0.018023
C22   C     C_3   0.269655 0.757039 0.911939 0.051832
C23   C     C_R   0.354536 0.117268 0.665507 -0.284773
C24   C     C_3   0.209995 0.723130 0.040327 -0.343043
C25   C     C_3   0.251808 0.619876 0.122987 -0.874854
C26   C     C_3   0.750837 0.705991 0.236254 0.020821
C27   C     C_3   0.792377 0.602285 0.149220 -0.341013
C28   C     C_3   0.898510 0.621819 0.135724 -0.899547
C29   C     C_R   0.291825 0.047516 0.750117 -0.184459
C30   C     C_R   0.293779 0.918670 0.755146 0.504927
C31   C     C_R   0.356416 0.859440 0.666884 -0.295541
C32   C     C_R   0.423612 0.928568 0.585416 0.048021
C33   C     C_R   0.422964 0.059488 0.585170 0.104868
C34   C     C_R   0.488779 0.128252 0.500355 -0.073271
Cu1   Cu    Cu3+1 0.499990 0.499990 0.640660 0.917470
Cu2   Cu    Cu3+1 0.500010 0.500010 0.359340 0.955749
H1    H     H_    0.601159 0.120791 0.349167 0.150685
H2    H     H_    0.650335 0.891379 0.104174 0.147828
H3    H     H_    0.341960 0.785081 0.946565 0.146131
H4    H     H_    0.271520 0.673465 0.844484 0.159428
H5    H     H_    0.205345 0.806303 0.107699 0.226446
H6    H     H_    0.138155 0.691993 0.008147 0.230165
H7    H     H_    0.256541 0.535266 0.058088 0.248655
H8    H     H_    0.206512 0.596698 0.214672 0.260074
H9    H     H_    0.322723 0.650481 0.159375 0.270726
H10   H     H_    0.782736 0.706537 0.340431 0.161985
H11   H     H_    0.771989 0.798574 0.192271 0.131266
H12   H     H_    0.659017 0.875529 0.853000 0.177822
H13   H     H_    0.774523 0.510879 0.198370 0.231506
H14   H     H_    0.762732 0.600728 0.043326 0.209366
H15   H     H_    0.917512 0.710208 0.080659 0.255930
H16   H     H_    0.926714 0.544264 0.075412 0.257181
H17   H     H_    0.931035 0.624620 0.239600 0.260870
H18   H     H_    0.626596 0.678484 0.745823 0.205691
H19   H     H_    0.410735 0.339506 0.873323 0.133580
H20   H     H_    0.347625 0.216371 0.662792 0.161388
H21   H     H_    0.241014 0.094221 0.812326 0.153404
H22   H     H_    0.350420 0.759639 0.660628 0.151614
H23   H     H_    0.603017 0.896811 0.351431 0.171781
H24   H     H_    0.411207 0.338974 0.130021 0.141457
N1    N     N_R   0.500820 0.501210 0.147910 -0.181980
N2    N     N_R   0.500850 0.501290 0.852040 -0.178663
O1    O     O_R   0.499990 0.319640 0.618810 -0.575607
O2    O     O_3   0.652158 0.687395 0.255380 -0.590592
O3    O     O_R   0.500000 0.319660 0.381240 -0.579760
O4    O     O_R   0.376050 0.499990 0.618810 -0.575950
O5    O     O_R   0.376060 0.500010 0.381240 -0.560346
O6    O     O_R   0.500000 0.680340 0.618760 -0.603279
O7    O     O_R   0.500010 0.680360 0.381190 -0.534865
O8    O     O_R   0.623940 0.499990 0.618760 -0.579886
O9    O     O_R   0.623950 0.500010 0.381190 -0.502766
O10   O     O_3   0.228621 0.853835 0.839764 -0.616262

loop_
_geom_bond_atom_site_label_1
_geom_bond_atom_site_label_2
_ccdc_geom_bond_type
C4    O5    A    
C30   O10   S    
C28   H17   S    
C8    H12   S    
C29   C30   A    
C25   H9    S    
Cu1   N2    S    
C24   H6    S    
C9    C10   A    
C1    O3    A    
Cu1   Cu2   S    
Cu2   O9    S    
C5    C32   A    
C22   H4    S    
C32   C33   A    
C2    C34   A    
C27   C28   S    
C17   C18   T    
Cu2   O5    S    
C16   O8    A    
C23   H20   S    
C13   H24   S    
C13   C14   A    
C24   C25   S    
C4    O4    A    
C24   H5    S    
C28   H16   S    
C2    H1    S    
C25   H7    S    
C26   C27   S    
C10   N2    A    
C16   O9    A    
C26   H11   S    
C15   O7    A    
C15   O6    A    
Cu1   O6    S    
C31   H22   S    
C22   O10   S    
C7    H2    S    
C29   H21   S    
C1    C34   S    
C33   C34   A    
C6    C7    A    
C2    C3    A    
C30   C31   A    
C23   C29   A    
C28   H15   S    
C22   C24   S    
C5    C15   S    
C10   C11   A    
C4    C17   S    
C27   H13   S    
Cu2   N1    S    
C14   N2    A    
C12   C16   S    
C7    C8    A    
C14   H19   S    
C13   N1    A    
C20   C21   S    
C25   H8    S    
C27   H14   S    
C23   C33   A    
C18   C19   S    
C6    O2    S    
C6    C11   A    
Cu2   O7    S    
C26   O2    S    
Cu2   O3    S    
C1    O1    A    
Cu1   O1    S    
C9    H18   S    
Cu1   O4    S    
C3    C5    A    
C26   H10   S    
C22   H3    S    
C12   C21   T    
C31   C32   A    
C19   C20   T    
Cu1   O8    S    
C8    C9    A    
C11   N1    A    
C3    H23   S    
