data_mof_unit_52903.cif
_audit_creation_date              2012-12-10T17:33:01-0500
_audit_creation_method            fapswitch 2.2
_symmetry_space_group_name_H-M    P1
_symmetry_Int_Tables_number       1
_space_group_crystal_system       triclinic
_cell_length_a                    12.35375
_cell_length_b                    13.264296
_cell_length_c                    14.263395
_cell_angle_alpha                 93.291191
_cell_angle_beta                  107.525592
_cell_angle_gamma                 117.04645
_cell_volume                      1932.3562105

loop_
_atom_site_label
_atom_site_type_symbol
_atom_type_description
_atom_site_fract_x
_atom_site_fract_y
_atom_site_fract_z
_atom_type_partial_charge
C1    C     C_R   0.650754 0.714034 0.508456 0.780379
C2    C     C_R   0.874439 0.538233 0.924325 0.091883
C3    C     C_R   0.824617 0.555122 0.997726 0.173723
C4    C     C_R   0.991830 0.532381 0.954354 0.065286
C5    C     C_R   0.049350 0.529964 0.056177 0.070541
C6    C     C_R   0.997871 0.548986 0.127509 -0.236319
C7    C     C_R   0.888435 0.562503 0.098641 -0.254355
C8    C     C_R   0.054777 0.530927 0.886450 -0.227179
C9    C     C_R   0.165819 0.519857 0.915701 -0.229901
C10   C     C_R   0.217186 0.508137 0.012898 0.166527
C11   C     C_R   0.158414 0.511348 0.083663 0.089218
C12   C     C_R   0.619038 0.517762 0.686776 0.796777
C13   C     C_R   0.327612 0.493925 0.040398 -0.196728
C14   C     C_R   0.381015 0.483413 0.137818 -0.197600
C15   C     C_R   0.210018 0.494283 0.179409 -0.246554
C16   C     C_R   0.139627 0.966698 0.362152 -0.185631
C17   C     C_R   0.248755 0.162303 0.462756 -0.053706
C18   C     C_R   0.729834 0.921080 0.573202 -0.182571
C19   C     C_R   0.819677 0.038036 0.591524 -0.139030
C20   C     C_R   0.920554 0.072666 0.555173 -0.174714
C21   C     C_R   0.930778 0.990141 0.495960 0.082604
C22   C     C_R   0.829483 0.872639 0.466940 0.084456
C23   C     C_R   0.345164 0.285259 0.484865 0.805331
C24   C     C_R   0.037570 0.020585 0.463797 0.076211
C25   C     C_R   0.034688 0.937174 0.394601 0.166833
C26   C     C_R   0.926089 0.826098 0.357049 -0.238503
C27   C     C_R   0.824247 0.794538 0.391725 -0.195377
C28   C     C_R   0.148356 0.131337 0.499646 -0.250711
C29   C     C_R   0.245968 0.079239 0.395521 -0.189384
C30   C     C_R   0.735419 0.837174 0.513273 -0.102205
C31   C     C_R   0.253166 0.683403 0.662931 -0.309777
C32   C     C_R   0.655440 0.345322 0.361219 -0.030893
C33   C     C_R   0.733701 0.314764 0.327192 0.451973
C34   C     C_R   0.382238 0.484021 0.313454 0.794731
C35   C     C_R   0.868950 0.371621 0.381171 -0.300611
C36   C     C_R   0.928060 0.463700 0.466235 -0.074985
C37   C     C_R   0.843695 0.494683 0.495383 0.266264
C38   C     C_R   0.067429 0.526979 0.522669 -0.003001
C39   C     C_R   0.118575 0.619995 0.606034 0.177675
C40   C     C_R   0.035456 0.649918 0.632145 -0.300477
C41   C     C_R   0.901692 0.589137 0.578108 -0.167687
C42   C     C_R   0.159535 0.502892 0.500587 0.012360
C43   C     C_R   0.337838 0.655379 0.637377 0.062111
C44   C     C_R   0.688509 0.531607 0.794208 -0.051616
C45   C     C_R   0.322645 0.484422 0.207898 -0.048006
C46   C     C_R   0.710572 0.563665 0.969224 -0.206064
C47   C     C_R   0.643391 0.552892 0.868050 -0.193983
C48   C     C_R   0.802419 0.523709 0.822659 -0.263703
Cu1   Cu    Cu3+1 0.416420 0.526630 0.522910 0.934174
Cu2   Cu    Cu3+1 0.583580 0.473370 0.477090 0.920898
H1    H     H_    0.852257 0.576890 0.155655 0.135877
H2    H     H_    0.373703 0.492586 0.986929 0.129033
H3    H     H_    0.323140 0.102375 0.365884 0.157421
H4    H     H_    0.920011 0.763046 0.300934 0.139538
H5    H     H_    0.137779 0.903599 0.309007 0.142169
H6    H     H_    0.159110 0.196223 0.556151 0.146903
H7    H     H_    0.657342 0.896159 0.607940 0.152658
H8    H     H_    0.986833 0.164922 0.572709 0.129745
H9    H     H_    0.813521 0.102150 0.636868 0.144183
H10   H     H_    0.740153 0.709054 0.356504 0.171573
H11   H     H_    0.441639 0.704179 0.681267 0.121786
H12   H     H_    0.163440 0.487111 0.233367 0.144965
H13   H     H_    0.074333 0.721577 0.695534 0.155679
H14   H     H_    0.292751 0.754486 0.726947 0.142495
H15   H     H_    0.129142 0.433444 0.438764 0.123281
H16   H     H_    0.550791 0.299560 0.320571 0.148549
H17   H     H_    0.925072 0.342554 0.354314 0.152278
H18   H     H_    0.847498 0.620068 0.603997 0.204524
H19   H     H_    0.468573 0.476071 0.158567 0.147352
H20   H     H_    0.211219 0.519634 0.861439 0.146688
H21   H     H_    0.672822 0.577780 0.025158 0.128791
H22   H     H_    0.555368 0.559457 0.847586 0.150156
H23   H     H_    0.830959 0.502482 0.763558 0.157197
H24   H     H_    0.042060 0.557474 0.207262 0.146743
H25   H     H_    0.023289 0.542005 0.810628 0.153638
N1    N     N_R   0.290690 0.566960 0.557640 -0.178069
N2    N     N_R   0.709100 0.433710 0.442970 -0.234495
O1    O     O_R   0.545970 0.684450 0.528810 -0.576396
O2    O     O_R   0.687130 0.639470 0.490120 -0.602277
O3    O     O_R   0.519670 0.535100 0.660030 -0.585462
O4    O     O_R   0.660830 0.490120 0.621340 -0.597121
O5    O     O_R   0.312870 0.360530 0.509880 -0.585789
O6    O     O_R   0.454030 0.315550 0.471190 -0.579769
O7    O     O_R   0.339170 0.509880 0.378660 -0.584552
O8    O     O_R   0.480330 0.464900 0.339970 -0.596199
O9    O     O_3   0.675757 0.224715 0.243512 -0.574732
C49   C     C_3   0.701325 0.272050 0.161447 -0.309814
H26   H     H_    0.807114 0.313419 0.173820 0.166989
H27   H     H_    0.666119 0.335535 0.146454 0.149827
H28   H     H_    0.647666 0.200483 0.092753 0.195949

loop_
_geom_bond_atom_site_label_1
_geom_bond_atom_site_label_2
_ccdc_geom_bond_type
C49   H26   S    
C23   O5    A    
C17   C29   A    
C35   C36   A    
C4    C8    A    
Cu2   O2    S    
C28   H6    S    
C26   C27   A    
C17   C23   S    
C40   H13   S    
C31   C43   A    
Cu1   O7    S    
C36   C37   A    
C5    C11   A    
C3    C7    A    
C27   H10   S    
C38   C39   A    
C16   C25   A    
Cu1   O1    S    
C18   C19   A    
Cu2   O8    S    
C32   N2    A    
C11   C15   A    
C19   C20   A    
C8    C9    A    
C42   H15   S    
C18   C30   A    
C14   C45   A    
C9    C10   A    
C44   C47   A    
C21   C22   A    
C1    O1    A    
C34   O7    A    
C26   H4    S    
Cu2   O6    S    
C6    H24   S    
C41   H18   S    
C24   C25   A    
C39   C40   A    
O9    C49   S    
C2    C48   A    
C25   C26   A    
C37   N2    A    
C8    H25   S    
C34   O8    A    
Cu1   O5    S    
C2    C4    A    
C33   O9    S    
C13   H2    S    
C18   H7    S    
C35   H17   S    
Cu1   N1    S    
C34   C45   S    
C9    H20   S    
C46   H21   S    
C23   O6    A    
C40   C41   A    
C22   C27   A    
C49   H27   S    
C1    O2    A    
C14   H19   S    
C49   H28   S    
C15   C45   A    
C20   H8    S    
Cu2   N2    S    
C43   H11   S    
C32   H16   S    
C43   N1    A    
C46   C47   A    
C22   C30   A    
C17   C28   A    
C31   H14   S    
C24   C28   A    
C48   H23   S    
C4    C5    A    
C10   C13   A    
C38   C42   A    
C6    C7    A    
C3    C46   A    
C42   N1    A    
Cu1   O3    S    
C19   H9    S    
C32   C33   A    
C36   C38   A    
C2    C3    A    
C16   C29   A    
C16   H5    S    
C7    H1    S    
C12   C44   S    
C5    C6    A    
C29   H3    S    
C12   O3    A    
C1    C30   S    
C33   C35   A    
C15   H12   S    
C31   C39   A    
C12   O4    A    
C37   C41   A    
C47   H22   S    
C10   C11   A    
C20   C21   A    
Cu1   Cu2   S    
C21   C24   A    
C13   C14   A    
C44   C48   A    
Cu2   O4    S    
