data_mof_unit_12704.cif
_audit_creation_date              2013-03-05T15:54:53-0500
_audit_creation_method            fapswitch 2.2
_symmetry_space_group_name_H-M    P1
_symmetry_Int_Tables_number       1
_space_group_crystal_system       triclinic
_cell_length_a                    12.431422
_cell_length_b                    13.249293
_cell_length_c                    14.200695
_cell_angle_alpha                 94.533704
_cell_angle_beta                  108.43997
_cell_angle_gamma                 117.054068
_cell_volume                      1906.05093742

loop_
_atom_site_label
_atom_site_type_symbol
_atom_site_description
_atom_site_fract_x
_atom_site_fract_y
_atom_site_fract_z
_atom_type_partial_charge
O1    O     O_R   0.545970 0.684450 0.528810 -0.527826
O2    O     O_R   0.687130 0.639470 0.490120 -0.587204
C1    C     C_R   0.651289 0.714400 0.510008 0.838902
O3    O     O_R   0.519670 0.535100 0.660030 -0.510094
O4    O     O_R   0.660830 0.490120 0.621340 -0.568517
C2    C     C_R   0.616261 0.513596 0.687065 0.845823
Cu1   Cu    Cu3+1 0.416420 0.526630 0.522910 1.049251
Cu2   Cu    Cu3+1 0.583580 0.473370 0.477090 0.988711
O5    O     O_R   0.312870 0.360530 0.509880 -0.517987
O6    O     O_R   0.454030 0.315550 0.471190 -0.542292
O7    O     O_R   0.339170 0.509880 0.378660 -0.606394
O8    O     O_R   0.480330 0.464900 0.339970 -0.545514
C3    C     C_R   0.346046 0.284640 0.486531 0.910149
C4    C     C_R   0.379338 0.480465 0.312203 0.800234
C5    C     C_R   0.670057 0.504845 0.792800 -0.182093
C6    C     C_R   0.301627 0.456819 0.201897 -0.163843
C7    C     C_R   0.667304 0.498547 0.962308 -0.235951
C8    C     C_R   0.617924 0.514687 0.865424 0.648393
C9    C     C_R   0.769502 0.476586 0.818481 -0.344431
C10   C     C_R   0.812303 0.449925 0.911756 0.125033
C11   C     C_R   0.765801 0.468742 0.986645 0.064120
C12   C     C_R   0.909091 0.415656 0.935847 -0.037739
C13   C     C_R   0.980402 0.430457 0.041225 0.063859
C14   C     C_R   0.929293 0.446025 0.113813 -0.125161
C15   C     C_R   0.821019 0.461128 0.085789 -0.130694
C16   C     C_R   0.938269 0.367517 0.860033 0.014252
C17   C     C_R   0.052934 0.361389 0.889723 0.653004
C18   C     C_R   0.136054 0.395089 0.993424 -0.126415
C19   C     C_R   0.099416 0.427934 0.070195 0.007967
C20   C     C_R   0.253902 0.393001 0.021509 -0.134762
C21   C     C_R   0.335855 0.422882 0.124791 0.591701
C22   C     C_R   0.185810 0.461732 0.173701 -0.255266
H1    H     H_    0.784808 0.472958 0.143495 0.153800
H2    H     H_    0.165640 0.494198 0.234070 0.182227
H3    H     H_    0.629368 0.510445 0.018714 0.195571
H4    H     H_    0.816077 0.478873 0.765940 0.185201
H5    H     H_    0.968831 0.443738 0.192519 0.133673
H6    H     H_    0.282650 0.367333 0.963509 0.240274
C23   C     C_R   0.165202 0.953096 0.400660 0.593848
C24   C     C_R   0.255196 0.159939 0.474998 -0.422116
C25   C     C_R   0.754778 0.922502 0.599685 0.528493
C26   C     C_R   0.871142 0.029135 0.646671 -0.263010
C27   C     C_R   0.974663 0.055338 0.616678 0.686424
C28   C     C_R   0.956780 0.981912 0.527951 -0.009039
C29   C     C_R   0.838589 0.872007 0.479652 -0.120861
C30   C     C_R   0.055902 0.012722 0.488884 -0.102578
C31   C     C_R   0.053882 0.924874 0.423622 -0.181497
C32   C     C_R   0.936014 0.816248 0.374763 0.219918
C33   C     C_R   0.824043 0.797183 0.392725 0.164235
C34   C     C_R   0.149270 0.130412 0.504711 0.589589
C35   C     C_R   0.266741 0.069679 0.428697 0.465982
C36   C     C_R   0.742364 0.838996 0.522983 -0.237444
H7    H     H_    0.884916 0.087893 0.712535 0.239470
C37   C     C_R   0.270558 0.720516 0.631770 0.102541
H8    H     H_    0.453039 0.726226 0.659371 0.192271
N1    N     N_R   0.290690 0.566960 0.557640 -0.199536
C38   C     C_R   0.651480 0.333472 0.367957 0.058107
C39   C     C_R   0.727202 0.296975 0.338045 0.579256
C40   C     C_R   0.864092 0.362848 0.385242 -0.246390
C41   C     C_R   0.928876 0.468059 0.463093 -0.127701
C42   C     C_R   0.848020 0.504475 0.491602 0.154913
C43   C     C_R   0.071166 0.537234 0.514298 -0.114232
C44   C     C_R   0.131733 0.651075 0.580000 0.013087
C45   C     C_R   0.053062 0.691123 0.598242 0.526107
C46   C     C_R   0.918748 0.615141 0.568992 0.050229
C47   C     C_R   0.157347 0.498590 0.503743 0.138255
C48   C     C_R   0.347045 0.674331 0.620617 0.078366
N2    N     N_R   0.709100 0.433710 0.442970 -0.232266
H9    H     H_    0.120877 0.414950 0.453199 0.147579
H10   H     H_    0.545336 0.281503 0.330580 0.207071
H11   H     H_    0.917292 0.330937 0.357580 0.170243
F1    F     F_    0.369920 0.094333 0.401922 -0.587585
N3    N     N_3   0.925599 0.730307 0.298727 -0.491003
H12   H     H_    0.855004 0.717238 0.227607 0.243708
H13   H     H_    0.893996 0.651135 0.319843 0.202819
F2    F     F_    0.174534 0.869576 0.347691 -0.581710
F3    F     F_    0.125540 0.215424 0.535185 -0.587552
F4    F     F_    0.661857 0.895845 0.639140 -0.652593
F5    F     F_    0.094881 0.146221 0.681061 -0.541143
N4    N     N_3   0.697188 0.711513 0.314414 -0.567768
H14   H     H_    0.621125 0.720138 0.322896 0.227928
H15   H     H_    0.681011 0.627219 0.315844 0.269008
F6    F     F_    0.108293 0.800552 0.659924 -0.639764
N5    N     N_3   0.335011 0.837051 0.696650 -0.452477
H16   H     H_    0.390258 0.839151 0.770481 0.242645
H17   H     H_    0.400122 0.894766 0.668268 0.253416
F7    F     F_    0.667387 0.196871 0.262367 -0.615633
N6    N     N_3   0.867274 0.647470 0.634604 -0.482794
H18   H     H_    0.916162 0.645896 0.708994 0.219920
H19   H     H_    0.888940 0.734291 0.639213 0.256650
F8    F     F_    0.447763 0.417927 0.148559 -0.665017
F9    F     F_    0.081499 0.319518 0.816121 -0.598586
F10   F     F_    0.520814 0.541158 0.843868 -0.620922
N7    N     N_3   0.844950 0.306284 0.755627 -0.523767
H20   H     H_    0.748666 0.278360 0.748136 0.247314
H21   H     H_    0.870817 0.359818 0.707047 0.245627

loop_
_geom_bond_atom_site_label_1
_geom_bond_atom_site_label_2
_geom_bond_distance
_ccdc_geom_bond_type
C16   N7    1.437989 S    
C5    C8    1.406794 A    
C23   C35   1.396069 A    
N3    H12   1.045734 S    
N6    H19   1.046505 S    
C9    C10   1.400516 A    
C39   F7    1.356067 S    
C37   N5    1.434417 S    
Cu1   Cu2   2.712248 S    
C6    C21   1.404670 A    
Cu1   O7    1.912437 S    
C16   C17   1.395251 A    
C13   C19   1.421764 A    
C18   C19   1.415916 A    
N5    H17   1.046139 S    
C19   C22   1.405085 A    
C9    H4    1.074127 S    
C26   H7    1.082810 S    
C20   C21   1.393488 A    
O7    C4    1.307245 A    
N1    C47   1.369670 A    
C47   H9    1.077088 S    
C37   C44   1.418233 A    
C27   F5    1.357902 S    
C20   H6    1.083634 S    
C41   C43   1.450466 A    
C25   C26   1.383856 A    
O5    C3    1.304639 A    
C3    C24   1.474763 S    
C2    C5    1.475809 S    
C13   C14   1.417273 A    
C38   H10   1.081500 S    
C25   C36   1.407901 A    
C40   C41   1.409207 A    
N3    H13   1.045932 S    
Cu1   N1    2.043885 S    
O3    Cu1   1.924829 S    
C28   C30   1.415453 A    
C14   H5    1.078466 S    
C43   C47   1.421568 A    
C14   C15   1.388837 A    
N4    H15   1.044041 S    
C25   F4    1.357436 S    
C37   C48   1.383056 A    
C29   C36   1.425868 A    
C39   C40   1.393474 A    
C7    C11   1.402996 A    
C41   C42   1.440399 A    
O1    C1    1.306989 A    
C22   H2    1.076401 S    
C5    C9    1.399614 A    
C27   C28   1.419751 A    
C45   F6    1.361607 S    
C43   C44   1.418613 A    
C31   C32   1.407274 A    
C29   C33   1.428837 A    
Cu2   O8    1.924829 S    
C10   C11   1.416144 A    
C7    C8    1.395378 A    
C17   F9    1.359644 S    
C23   F2    1.358002 S    
N5    H16   1.046041 S    
N7    H21   1.045293 S    
O3    C2    1.306615 A    
C32   C33   1.407609 A    
C10   C12   1.425474 A    
Cu2   N2    2.032145 S    
C21   F8    1.357623 S    
C12   C16   1.430539 A    
C4    C6    1.474747 S    
C35   F1    1.357765 S    
C38   N2    1.356430 A    
N1    C48   1.345466 A    
C34   F3    1.359755 S    
C28   C29   1.417027 A    
C46   N6    1.422837 S    
C23   C31   1.412535 A    
Cu1   O5    1.934519 S    
C11   C15   1.391987 A    
C30   C31   1.415068 A    
O1    Cu1   1.948490 S    
C32   N3    1.436062 S    
O2    Cu2   1.934520 S    
O8    C4    1.307445 A    
N4    H14   1.043953 S    
O6    C3    1.310043 A    
O4    Cu2   1.912436 S    
H8    C48   1.081264 S    
C1    C36   1.469943 S    
C6    C22   1.400777 A    
C24   C35   1.405188 A    
C30   C34   1.400837 A    
C33   N4    1.440377 S    
C45   C46   1.392845 A    
C18   C20   1.405379 A    
O2    C1    1.304423 A    
C42   N2    1.417274 A    
C38   C39   1.391008 A    
O4    C2    1.308776 A    
C24   C34   1.405005 A    
N7    H20   1.044650 S    
C44   C45   1.384091 A    
C42   C46   1.446364 A    
N6    H18   1.046234 S    
Cu2   O6    1.948489 S    
C26   C27   1.386291 A    
C40   H11   1.078375 S    
C17   C18   1.396216 A    
C8    F10   1.357360 S    
C12   C13   1.421237 A    
C7    H3    1.084210 S    
C15   H1    1.084427 S    
