data_mof_unit_8477.cif
_audit_creation_date              2013-03-05T15:48:30-0500
_audit_creation_method            fapswitch 2.2
_symmetry_space_group_name_H-M    P1
_symmetry_Int_Tables_number       1
_space_group_crystal_system       triclinic
_cell_length_a                    20.154409
_cell_length_b                    7.096531
_cell_length_c                    13.484773
_cell_angle_alpha                 90.000643
_cell_angle_beta                  103.530646
_cell_angle_gamma                 89.998685
_cell_volume                      1875.14775068

loop_
_atom_site_label
_atom_site_type_symbol
_atom_site_description
_atom_site_fract_x
_atom_site_fract_y
_atom_site_fract_z
_atom_type_partial_charge
O1    O     O_R   0.449830 0.506740 0.599960 -0.572089
O2    O     O_R   0.550170 0.006740 0.400040 -0.572129
O3    O     O_R   0.588980 0.179860 0.596720 -0.616174
O4    O     O_R   0.411020 0.679860 0.403280 -0.616134
C1    C     C_R   0.616119 0.344587 0.619545 0.948483
C2    C     C_R   0.383882 0.844590 0.380455 0.948123
O5    O     O_R   0.452740 0.177340 0.612040 -0.596813
O6    O     O_R   0.547260 0.677340 0.387960 -0.596780
O7    O     O_R   0.412960 0.002070 0.415460 -0.589220
O8    O     O_R   0.587040 0.502070 0.584540 -0.589133
C3    C     C_R   0.436671 0.346052 0.638935 1.029719
C4    C     C_R   0.563338 0.846042 0.361078 1.029268
O9    O     O_3   0.487110 0.337570 0.435490 -0.278560
O10   O     O_3   0.512890 0.837570 0.564510 -0.278551
V1    V     V_3+5 0.502390 0.064650 0.511970 1.204871
V2    V     V_3+5 0.497610 0.564650 0.488030 1.204965
C5    C     C_R   0.608924 0.881914 0.105418 -0.198457
C6    C     C_R   0.391066 0.382843 0.894575 -0.198548
H1    H     H_    0.692499 0.903319 0.980970 0.141313
H2    H     H_    0.307476 0.404460 0.018987 0.141411
H3    H     H_    0.584010 0.897100 0.025342 0.188162
H4    H     H_    0.415952 0.398453 0.974637 0.188688
C7    C     C_R   0.601900 0.856528 0.281591 -0.272331
C8    C     C_R   0.398123 0.356608 0.718445 -0.272385
C9    C     C_R   0.931541 0.830369 0.317508 -0.213377
C10   C     C_R   0.068475 0.330053 0.682504 -0.213403
C11   C     C_R   0.895990 0.811301 0.393827 0.138962
C12   C     C_R   0.104035 0.310903 0.606201 0.138992
C13   C     C_R   0.824693 0.821638 0.369893 -0.235885
C14   C     C_R   0.175330 0.321378 0.630136 -0.235880
C15   C     C_R   0.787140 0.848330 0.267855 0.092928
C16   C     C_R   0.212872 0.348319 0.732158 0.092889
C17   C     C_R   0.824226 0.864382 0.190190 0.107582
C18   C     C_R   0.175775 0.364542 0.809804 0.107621
C19   C     C_R   0.714126 0.856669 0.239902 0.117772
C20   C     C_R   0.285886 0.356795 0.760114 0.117851
C21   C     C_R   0.680366 0.875226 0.135352 0.112333
C22   C     C_R   0.319630 0.375845 0.864640 0.112252
C23   C     C_R   0.717959 0.888582 0.060862 -0.175119
C24   C     C_R   0.282026 0.389384 0.939110 -0.175151
C25   C     C_R   0.788647 0.884426 0.087709 -0.239402
C26   C     C_R   0.211341 0.384958 0.912265 -0.239422
C27   C     C_R   0.673253 0.848018 0.311876 -0.272005
C28   C     C_R   0.326772 0.347813 0.688168 -0.272083
C29   C     C_R   0.569068 0.874631 0.177514 0.364326
C30   C     C_R   0.430945 0.375336 0.822508 0.363870
C31   C     C_R   0.896437 0.857457 0.216334 -0.179864
C32   C     C_R   0.103565 0.357422 0.783662 -0.179875
H5    H     H_    0.695150 0.836784 0.392601 0.119856
H6    H     H_    0.304887 0.336117 0.607461 0.119862
H7    H     H_    0.986839 0.821486 0.336603 0.115664
H8    H     H_    0.013179 0.321038 0.663409 0.115664
H9    H     H_    0.800260 0.805079 0.432395 0.123730
H10   H     H_    0.199769 0.304783 0.567643 0.123726
H11   H     H_    0.815241 0.895674 0.026919 0.118664
H12   H     H_    0.184740 0.396336 0.973040 0.118700
C33   C     C_3   0.235503 0.729257 0.145074 -0.372820
C34   C     C_3   0.764502 0.229221 0.854922 -0.372721
H13   H     H_    0.215612 0.582510 0.136641 0.161742
H14   H     H_    0.784406 0.082487 0.863361 0.161748
H15   H     H_    0.237489 0.779186 0.067576 0.164729
H16   H     H_    0.762506 0.279143 0.932415 0.164728
C35   C     C_3   0.308545 0.728740 0.214897 -0.368115
C36   C     C_3   0.691464 0.228670 0.785086 -0.368083
H17   H     H_    0.345067 0.782967 0.171419 0.219130
H18   H     H_    0.654931 0.282817 0.828568 0.219058
H19   H     H_    0.323603 0.580814 0.236711 0.158680
H20   H     H_    0.676428 0.080741 0.763244 0.158622
H21   H     H_    0.272037 0.620198 0.386594 0.110024
H22   H     H_    0.727974 0.120278 0.613358 0.110005
C37   C     C_3   0.184702 0.785639 0.298542 -0.120734
C38   C     C_3   0.815300 0.285683 0.701462 -0.120644
C39   C     C_3   0.219817 0.058325 0.203005 -0.387518
C40   C     C_3   0.780170 0.558311 0.797026 -0.387639
C41   C     C_3   0.187128 0.857714 0.189679 0.053628
C42   C     C_3   0.812870 0.357715 0.810329 0.053619
H23   H     H_    0.187083 0.156725 0.234590 0.172400
H24   H     H_    0.812896 0.656733 0.765445 0.172419
H25   H     H_    0.223518 0.115041 0.127488 0.166732
H26   H     H_    0.776472 0.614999 0.872550 0.166699
C43   C     C_3   0.312280 0.851132 0.311912 0.024934
C44   C     C_3   0.687719 0.351127 0.688092 0.024941
C45   C     C_3   0.258690 0.770671 0.368160 -0.118800
C46   C     C_3   0.741316 0.270740 0.631832 -0.118941
C47   C     C_3   0.291557 0.055217 0.275383 -0.340437
C48   C     C_3   0.708427 0.555201 0.724658 -0.340346
H27   H     H_    0.329162 0.114001 0.234952 0.193284
H28   H     H_    0.670821 0.613926 0.765106 0.193351
H29   H     H_    0.291988 0.148564 0.341853 0.153523
H30   H     H_    0.707984 0.648598 0.658204 0.153506
H31   H     H_    0.153922 0.888763 0.331221 0.104449
H32   H     H_    0.846084 0.388812 0.668800 0.104429
O11   O     O_R   0.912980 0.203550 0.915410 -0.588019
O12   O     O_R   0.087020 0.703550 0.084590 -0.588019
O13   O     O_R   0.047270 0.535570 0.887960 -0.589844
O14   O     O_R   0.952730 0.035570 0.112040 -0.589844
C49   C     C_R   0.063746 0.367912 0.861514 0.936704
C50   C     C_R   0.936251 0.867918 0.138480 0.936731
O15   O     O_R   0.911030 0.532970 0.903270 -0.601515
O16   O     O_R   0.088970 0.032970 0.096730 -0.601507
O17   O     O_R   0.949820 0.708150 0.099970 -0.587203
O18   O     O_R   0.050180 0.208150 0.900030 -0.587185
C51   C     C_R   0.883782 0.364978 0.881804 0.869075
C52   C     C_R   0.116217 0.864976 0.118201 0.869076
O19   O     O_3   0.012900 0.375230 0.064480 -0.274521
O20   O     O_3   0.987100 0.875230 0.935520 -0.274524
V3    V     V_3+5 0.997610 0.648190 0.988040 1.168133
V4    V     V_3+5 0.002390 0.148190 0.011960 1.168147
N1    N     N_R   0.495955 0.887857 0.143769 0.222433
O21   O     O_R   0.465215 0.827759 0.053509 -0.401516
O22   O     O_R   0.460714 0.980124 0.197203 -0.463848
N2    N     N_R   0.504059 0.388922 0.856287 0.222548
O23   O     O_R   0.534769 0.330460 0.946917 -0.401095
O24   O     O_R   0.539333 0.479856 0.802378 -0.464309
C53   C     C_1   0.149202 0.602912 0.295517 0.030674
N3    N     N_1   0.121309 0.459937 0.293032 -0.071895
C54   C     C_1   0.850797 0.102956 0.704476 0.030640
N4    N     N_1   0.878688 0.959978 0.706959 -0.071896
C55   C     C_1   0.262413 0.865270 0.466991 0.009933
N5    N     N_1   0.265388 0.938859 0.544484 -0.076636
C56   C     C_1   0.737593 0.365428 0.533025 0.009947
N6    N     N_1   0.734619 0.439087 0.455552 -0.076595
C57   C     C_1   0.933162 0.776061 0.497142 0.037641
N7    N     N_1   0.963319 0.746996 0.579871 -0.079164
C58   C     C_1   0.066882 0.275465 0.502897 0.037640
N8    N     N_1   0.036744 0.246249 0.420174 -0.079241

loop_
_geom_bond_atom_site_label_1
_geom_bond_atom_site_label_2
_geom_bond_distance
_ccdc_geom_bond_type
C34   H16   1.113011 S    
O15   C51   1.316156 A    
C35   H17   1.111575 S    
O17   V3    2.016716 S    
C7    C29   1.410490 A    
C30   N2    1.440175 S    
C11   C13   1.399068 A    
O1    C3    1.308497 A    
C38   C42   1.566053 S    
O2    C4    1.308511 A    
O11   C51   1.318785 A    
C2    O7    1.298384 A    
N2    O24   1.300839 A    
C34   C42   1.554887 S    
C57   N7    1.157250 T    
C23   C25   1.385736 A    
O5    C3    1.313322 A    
C32   C49   1.464907 S    
O19   V3    2.181990 S    
C4    C7    1.465709 S    
C31   C50   1.464848 S    
C40   C42   1.561285 S    
C35   C43   1.557374 S    
C36   H20   1.113043 S    
C19   C21   1.420939 A    
C5    C29   1.399462 A    
N1    O22   1.300703 A    
O11   V4    1.999701 S    
C38   H32   1.114650 S    
C48   H28   1.113132 S    
H22   C46   1.114963 S    
C33   H13   1.112127 S    
O20   V3    1.752773 S    
C34   H14   1.112116 S    
C53   N3    1.156650 T    
C3    C8    1.465788 S    
O16   C52   1.316149 A    
C7    C27   1.401310 A    
C45   C55   1.478388 S    
C25   H11   1.082230 S    
C26   H12   1.082221 S    
C18   C26   1.407269 A    
O14   C50   1.307038 A    
C38   C54   1.476927 S    
C15   C17   1.426463 A    
O18   V4    2.016733 S    
C19   C27   1.413667 A    
C9    C31   1.395407 A    
C49   O18   1.302451 A    
C10   C32   1.395426 A    
C42   C51   1.526318 S    
C24   C26   1.385722 A    
O14   V4    2.023336 S    
O12   C52   1.318795 A    
O6    V2    2.023295 S    
C2    C43   1.521454 S    
C40   H26   1.113591 S    
C39   C41   1.561322 S    
C6    C30   1.399539 A    
N2    O23   1.301862 A    
C43   C45   1.565664 S    
C33   C35   1.550827 S    
C37   C45   1.568809 S    
C47   H27   1.113132 S    
C34   C36   1.550829 S    
C21   C23   1.395767 A    
O19   V4    1.752767 S    
C35   H19   1.113040 S    
O12   V3    1.999710 S    
O16   V4    2.021574 S    
O4    C2    1.296796 A    
C48   H30   1.112952 S    
C11   C57   1.440954 S    
C27   H5    1.077618 S    
O5    V1    2.023263 S    
C46   C56   1.478397 S    
C44   C48   1.555107 S    
C5    H3    1.084449 S    
C13   H9    1.077431 S    
C36   H18   1.111571 S    
O4    V2    2.021594 S    
C22   C24   1.395772 A    
C9    H7    1.085413 S    
H21   C45   1.114959 S    
C10   H8    1.085414 S    
C14   H10   1.077424 S    
O6    C4    1.313272 A    
C36   C44   1.557381 S    
C39   H25   1.113609 S    
C37   C53   1.476972 S    
O1    V2    2.013581 S    
C5    C21   1.402299 A    
C40   C48   1.543789 S    
O2    V1    2.013565 S    
C39   C47   1.543792 S    
C56   N6    1.157132 T    
C38   C46   1.568809 S    
O13   V3    2.023304 S    
C8    C28   1.401353 A    
C44   C46   1.565652 S    
C41   C52   1.526326 S    
C17   C31   1.415887 A    
C15   C19   1.432303 A    
C20   C28   1.413675 A    
C18   C32   1.415904 A    
C16   C20   1.432337 A    
O3    V1    2.021616 S    
C12   C58   1.440963 S    
C28   H6    1.077610 S    
C47   H29   1.112954 S    
C6    H4    1.084446 S    
C37   C41   1.566079 S    
O3    C1    1.296800 A    
C55   N5    1.157128 T    
O13   C49   1.307068 A    
C33   H15   1.113024 S    
C9    C11   1.391350 A    
C50   O17   1.302452 A    
O15   V3    2.021595 S    
C10   C12   1.391369 A    
C8    C30   1.410690 A    
C33   C41   1.554903 S    
C20   C22   1.420898 A    
C6    C22   1.402266 A    
C17   C25   1.407287 A    
C1    O8    1.298387 A    
C13   C15   1.419396 A    
O8    V2    2.010461 S    
C54   N4    1.156625 T    
C14   C16   1.419383 A    
C1    C44   1.521465 S    
C58   N8    1.157255 T    
O20   V4    2.181982 S    
H2    C24   1.084528 S    
C12   C14   1.399065 A    
C29   N1    1.439960 S    
O7    V1    2.010470 S    
C37   H31   1.114669 S    
H1    C23   1.084526 S    
C40   H24   1.111613 S    
O9    V2    1.753123 S    
C39   H23   1.111635 S    
O10   V1    1.753129 S    
N1    O21   1.301651 A    
C43   C47   1.555108 S    
C16   C18   1.426482 A    
