data_mof_unit_50369.cif
_audit_creation_date              2012-12-10T16:52:09-0500
_audit_creation_method            fapswitch 2.2
_symmetry_space_group_name_H-M    P1
_symmetry_Int_Tables_number       1
_space_group_crystal_system       triclinic
_cell_length_a                    7.86127
_cell_length_b                    8.552492
_cell_length_c                    14.93659
_cell_angle_alpha                 92.81144
_cell_angle_beta                  84.755308
_cell_angle_gamma                 94.029744
_cell_volume                      996.642888097

loop_
_atom_site_label
_atom_site_type_symbol
_atom_type_description
_atom_site_fract_x
_atom_site_fract_y
_atom_site_fract_z
_atom_type_partial_charge
C1    C     C_R   0.545583 0.794419 0.497984 0.971755
C2    C     C_R   0.577289 0.627224 0.813165 0.111204
C3    C     C_R   0.502167 0.500909 0.231779 -0.158218
C4    C     C_R   0.497833 0.499091 0.768220 -0.158218
C5    C     C_R   0.594377 0.622747 0.185558 0.095978
C6    C     C_R   0.405623 0.377253 0.814442 0.095978
C7    C     C_R   0.600997 0.617596 0.091744 0.046896
C8    C     C_R   0.399004 0.382404 0.908256 0.046896
C9    C     C_R   0.500024 0.500270 0.046920 0.002099
C10   C     C_R   0.499976 0.499731 0.953079 0.002099
C11   C     C_R   0.400799 0.382508 0.095734 0.012207
C12   C     C_R   0.454417 0.205581 0.502016 0.971756
C13   C     C_R   0.599201 0.617493 0.904266 0.012207
C14   C     C_R   0.709939 0.723782 0.041678 -0.178860
C15   C     C_R   0.290061 0.276218 0.958322 -0.178860
C16   C     C_R   0.714490 0.721264 0.948755 0.191910
C17   C     C_R   0.285510 0.278737 0.051245 0.191910
C18   C     C_2   0.569285 0.958339 0.496839 -0.295460
C19   C     C_2   0.430715 0.041661 0.503161 -0.295460
C20   C     C_R   0.499759 0.499544 0.672633 0.932271
C21   C     C_R   0.500241 0.500456 0.327366 0.932271
C22   C     C_R   0.422710 0.372776 0.186834 0.111204
H1    H     H_    0.799487 0.805217 0.073359 0.210751
H2    H     H_    0.200515 0.194783 0.926641 0.210751
H3    H     H_    0.700126 0.009777 0.490728 0.203995
H4    H     H_    0.299874 0.990223 0.509272 0.203995
I1    I     I_    0.420219 0.148762 0.245681 -0.234498
I2    I     I_    0.579780 0.851238 0.754319 -0.234499
I3    I     I_    0.730014 0.807750 0.258636 -0.249853
I4    I     I_    0.269986 0.192250 0.741364 -0.249853
I5    I     I_    0.932405 0.846953 0.884706 -0.229092
I6    I     I_    0.067591 0.153051 0.115294 -0.229091
I7    I     I_    0.030911 0.274660 0.390955 -0.113484
I8    I     I_    0.969089 0.725340 0.609044 -0.113484
N1    N     N_2   0.950330 0.457950 0.475660 0.020248
N2    N     N_2   0.049670 0.542050 0.524340 0.020248
O1    O     O_R   0.389250 0.738570 0.505970 -0.611755
O2    O     O_R   0.610750 0.261430 0.494030 -0.611756
O3    O     O_R   0.678390 0.711620 0.490370 -0.603432
O4    O     O_R   0.321610 0.288380 0.509630 -0.603432
O5    O     O_R   0.355420 0.513510 0.639950 -0.589082
O6    O     O_R   0.644580 0.486490 0.360050 -0.589082
O7    O     O_R   0.644560 0.486560 0.624350 -0.603631
O8    O     O_R   0.355440 0.513440 0.375650 -0.603631
Zn1   Zn    Zn3+2 0.306940 0.517990 0.510420 1.068048
Zn2   Zn    Zn3+2 0.693060 0.482010 0.489580 1.068048

loop_
_geom_bond_atom_site_label_1
_geom_bond_atom_site_label_2
_ccdc_geom_bond_type
C14   H1    S    
C12   O4    A    
C2    C4    A    
C15   C17   A    
C21   O8    A    
C9    C10   A    
C11   C22   A    
C5    I3    S    
N1    N2    D    
C1    O1    A    
C20   O5    A    
N2    Zn1   S    
C16   I5    S    
C9    C11   A    
C1    C18   S    
C18   H3    S    
O3    Zn2   S    
C6    C8    A    
C12   C19   S    
C4    C6    A    
C15   H2    S    
I7    N1    S    
C8    C15   A    
I8    N2    S    
C22   I1    S    
C12   O2    A    
O4    Zn1   S    
C17   I6    S    
O7    Zn2   S    
C14   C16   A    
O2    Zn2   S    
C3    C21   S    
C1    O3    A    
O1    Zn1   S    
C21   O6    A    
C4    C20   S    
C7    C9    A    
C20   O7    A    
O8    Zn1   S    
C19   H4    S    
C8    C10   A    
C18   C19   D    
O6    Zn2   S    
C13   C16   A    
C5    C7    A    
C2    C13   A    
O5    Zn1   S    
C11   C17   A    
C3    C22   A    
C2    I2    S    
C6    I4    S    
N1    Zn2   S    
C7    C14   A    
C3    C5    A    
C10   C13   A    
