data_mof_unit_44910.cif
_audit_creation_date              2012-12-10T18:05:54-0500
_audit_creation_method            fapswitch 2.2
_symmetry_space_group_name_H-M    P1
_symmetry_Int_Tables_number       1
_space_group_crystal_system       triclinic
_cell_length_a                    12.658938
_cell_length_b                    13.007411
_cell_length_c                    14.982057
_cell_angle_alpha                 93.510776
_cell_angle_beta                  102.901839
_cell_angle_gamma                 81.671561
_cell_volume                      2378.23765107

loop_
_atom_site_label
_atom_site_type_symbol
_atom_type_description
_atom_site_fract_x
_atom_site_fract_y
_atom_site_fract_z
_atom_type_partial_charge
C1    C     C_R   0.438557 0.692013 0.492027 0.870640
C2    C     C_R   0.535844 0.584974 0.822928 -0.212669
C3    C     C_R   0.505784 0.499987 0.767835 -0.069244
C4    C     C_R   0.501179 0.501339 0.672425 0.886081
C5    C     C_R   0.482819 0.412049 0.803239 -0.216843
C6    C     C_R   0.685785 0.081093 0.662132 -0.186143
C7    C     C_R   0.595153 0.200524 0.541213 -0.119507
C8    C     C_R   0.298919 0.842336 0.429214 0.194296
C9    C     C_R   0.264686 0.949709 0.428737 -0.136025
C10   C     C_R   0.334641 0.016953 0.475649 -0.227067
C11   C     C_R   0.439389 0.978054 0.524902 0.062871
C12   C     C_R   0.492494 0.404140 0.084280 -0.038508
C13   C     C_R   0.461652 0.873295 0.547014 0.073665
C14   C     C_R   0.522848 0.041006 0.552846 0.018648
C15   C     C_R   0.609600 0.012118 0.627804 0.157857
C16   C     C_R   0.560849 0.308142 0.513032 0.908374
C17   C     C_R   0.619195 0.913888 0.664615 -0.234841
C18   C     C_R   0.548733 0.843125 0.621927 -0.170932
C19   C     C_R   0.527086 0.126661 0.502261 -0.089816
C20   C     C_R   0.675185 0.177335 0.621484 -0.201629
C21   C     C_R   0.397300 0.803227 0.491635 -0.171785
C22   C     C_R   0.092207 0.338277 0.371964 -0.246362
C23   C     C_R   0.560248 0.672040 0.064341 -0.260515
C24   C     C_R   0.802464 0.620761 0.619960 -0.031696
C25   C     C_R   0.911492 0.630059 0.659494 -0.076462
C26   C     C_R   0.992241 0.574185 0.618752 -0.194319
C27   C     C_R   0.964479 0.515945 0.536011 0.021516
C28   C     C_R   0.498316 0.502228 0.326840 0.916356
C29   C     C_R   0.854641 0.499627 0.506504 0.208478
C30   C     C_R   0.042456 0.468410 0.485272 -0.048973
C31   C     C_R   0.013836 0.387548 0.419512 0.085293
C32   C     C_R   0.905988 0.362132 0.399672 -0.094404
C33   C     C_R   0.827376 0.421933 0.440133 -0.241227
C34   C     C_R   0.560895 0.673435 0.971862 0.188187
C35   C     C_R   0.146346 0.501575 0.494110 0.053983
C36   C     C_R   0.196551 0.366465 0.391302 0.006464
C37   C     C_R   0.478850 0.411020 0.175604 -0.079726
C38   C     C_R   0.499436 0.501053 0.230036 -0.194167
C39   C     C_R   0.529566 0.587305 0.194176 0.162497
C40   C     C_R   0.534316 0.584977 0.101944 0.086802
C41   C     C_R   0.513647 0.494676 0.046681 -0.003152
C42   C     C_2   0.440134 0.326394 0.214911 0.954693
C43   C     C_2   0.481701 0.125064 0.402388 0.978128
C44   C     C_3   0.174547 0.813706 0.278988 -0.775812
C45   C     C_R   0.536998 0.585449 0.915906 0.110544
C46   C     C_2   0.871445 0.274016 0.337283 0.928963
C47   C     C_3   0.454119 0.750226 0.256276 -0.770986
C48   C     C_2   0.165067 0.606952 0.531930 0.877280
C49   C     C_2   0.941322 0.694769 0.743989 0.923855
C50   C     C_3   0.491557 0.836790 0.898196 -0.759708
C51   C     C_3   0.567732 0.161976 0.863579 -0.781428
C52   C     C_2   0.503138 0.206463 0.069895 0.919130
C53   C     C_R   0.514407 0.495411 0.953470 -0.004629
C54   C     C_R   0.491301 0.406754 0.896954 0.095269
C55   C     C_R   0.480134 0.313702 0.934539 0.127374
C56   C     C_R   0.486275 0.310418 0.029187 -0.063197
H1    H     H_    0.684394 0.889860 0.722655 0.192133
H2    H     H_    0.746089 0.402016 0.422812 0.234397
H3    H     H_    0.578450 0.740897 0.106081 0.189757
H4    H     H_    0.555122 0.651195 0.792053 0.167763
H5    H     H_    0.461652 0.346996 0.757125 0.177603
H6    H     H_    0.727495 0.234189 0.653622 0.167530
H7    H     H_    0.319139 0.238697 0.208094 0.365438
H8    H     H_    0.495468 0.060648 0.278888 0.354505
H9    H     H_    0.200648 0.723890 0.394404 0.281849
H10   H     H_    0.153914 0.747344 0.231183 0.255131
H11   H     H_    0.222318 0.861227 0.247859 0.251372
H12   H     H_    0.750573 0.062251 0.721826 0.157169
H13   H     H_    0.097100 0.860705 0.288514 0.251877
H14   H     H_    0.904473 0.123854 0.297797 0.358990
H15   H     H_    0.607090 0.668210 0.310006 0.269781
H16   H     H_    0.401019 0.711971 0.289556 0.253662
H17   H     H_    0.408012 0.775324 0.187217 0.249563
H18   H     H_    0.478021 0.820055 0.298043 0.263101
H19   H     H_    0.106424 0.759739 0.532888 0.350552
H20   H     H_    0.060932 0.751057 0.838669 0.350613
H21   H     H_    0.645289 0.799573 0.980377 0.244018
H22   H     H_    0.449765 0.870273 0.953317 0.246129
H23   H     H_    0.307338 0.099612 0.472334 0.190912
H24   H     H_    0.433150 0.798359 0.844593 0.256238
H25   H     H_    0.517927 0.900863 0.866374 0.244950
H26   H     H_    0.410947 0.178303 0.889200 0.275679
H27   H     H_    0.615023 0.127586 0.928998 0.257787
H28   H     H_    0.618375 0.211039 0.837363 0.250764
H29   H     H_    0.548616 0.098027 0.812554 0.243353
H30   H     H_    0.441775 0.074550 0.081912 0.336331
H31   H     H_    0.186546 0.982381 0.388165 0.180321
H32   H     H_    0.561020 0.766261 0.649329 0.154746
H33   H     H_    0.256366 0.329126 0.354586 0.207438
H34   H     H_    0.073873 0.279677 0.318673 0.192393
H35   H     H_    0.737672 0.659828 0.651021 0.162344
H36   H     H_    0.076352 0.573244 0.654423 0.198837
N1    N     N_R   0.222190 0.444670 0.452360 -0.149597
N2    N     N_R   0.776970 0.554790 0.547140 -0.136569
N3    N     N_2   0.238050 0.774253 0.365837 -0.312154
N4    N     N_2   0.550639 0.678898 0.249084 -0.319526
N5    N     N_2   0.586180 0.763563 0.935842 -0.309310
N6    N     N_2   0.466905 0.222717 0.876837 -0.315091
O1    O     O_R   0.366740 0.627160 0.477250 -0.600077
O2    O     O_R   0.334967 0.301264 0.178850 -0.786874
O3    O     O_2   0.395401 0.177997 0.370565 -0.673028
O4    O     O_R   0.535559 0.057740 0.345511 -0.759656
O5    O     O_2   0.782640 0.284438 0.283445 -0.569760
O6    O     O_R   0.937774 0.177785 0.342969 -0.812537
O7    O     O_2   0.241613 0.619078 0.595609 -0.593909
O8    O     O_R   0.087773 0.692145 0.499861 -0.820159
O9    O     O_2   0.870212 0.739610 0.781343 -0.658908
O10   O     O_R   0.051085 0.704920 0.781177 -0.788658
O11   O     O_2   0.590388 0.176485 0.121192 -0.571280
O12   O     O_R   0.544830 0.662520 0.507680 -0.618567
O13   O     O_R   0.419948 0.143269 0.049843 -0.804460
O14   O     O_R   0.410940 0.482340 0.616930 -0.567309
O15   O     O_R   0.589030 0.517700 0.647360 -0.639457
O16   O     O_R   0.455170 0.337480 0.492320 -0.585456
O17   O     O_R   0.633260 0.372840 0.522750 -0.632339
O18   O     O_R   0.410970 0.482300 0.352640 -0.608128
O19   O     O_R   0.589060 0.517660 0.383070 -0.633742
O20   O     O_2   0.501638 0.277877 0.277462 -0.582148
Zn1   Zn    Zn3+2 0.381090 0.476390 0.479680 1.004749
Zn2   Zn    Zn3+2 0.618910 0.523610 0.520320 0.943455

loop_
_geom_bond_atom_site_label_1
_geom_bond_atom_site_label_2
_ccdc_geom_bond_type
C36   H33   S    
C55   C56   A    
C16   O17   A    
C1    C21   S    
C33   H2    S    
C27   C29   A    
C44   H10   S    
C51   H29   S    
C49   O9    D    
C53   C54   A    
C23   H3    S    
C26   C27   A    
C37   C38   A    
C30   C35   A    
C24   N2    A    
C28   O19   A    
C30   C31   A    
C11   C14   A    
C2    H4    S    
C26   H36   S    
C23   C40   A    
C29   C33   A    
C12   C37   A    
C34   N5    S    
C37   C42   S    
C28   O18   A    
C6    C15   A    
N2    Zn2   S    
C36   N1    A    
C48   O8    S    
C48   O7    D    
C8    C9    A    
C47   N4    S    
H21   N5    S    
C9    C10   A    
O16   Zn1   S    
C51   N6    S    
C6    H12   S    
C4    O14   A    
C45   C53   A    
H20   O10   S    
C27   C30   A    
H26   N6    S    
C1    O1    A    
C8    N3    S    
C35   C48   S    
C50   H22   S    
C19   C43   S    
C8    C21   A    
C49   O10   S    
C35   N1    A    
C2    C45   A    
C38   C39   A    
C39   N4    S    
C22   C31   A    
C5    H5    S    
C4    O15   A    
C24   C25   A    
C47   H17   S    
O19   Zn2   S    
O12   Zn2   S    
C39   C40   A    
C42   O20   D    
H15   N4    S    
C52   O13   S    
C25   C26   A    
C46   O6    S    
C18   H32   S    
C50   H24   S    
H8    O4    S    
C43   O3    D    
H7    O2    S    
C42   O2    S    
C1    O12   A    
O15   Zn2   S    
C5    C54   A    
C31   C32   A    
C28   C38   S    
C23   C34   A    
C17   C18   A    
C22   H34   S    
C13   C21   A    
C44   H13   S    
C34   C45   A    
C41   C53   A    
C12   C56   A    
C13   C18   A    
C7    C16   S    
O17   Zn2   S    
C7    C19   A    
C3    C4    S    
C24   H35   S    
C51   H27   S    
C6    C20   A    
C12   C41   A    
C15   C17   A    
C54   C55   A    
C40   C41   A    
C50   N5    S    
C32   C46   S    
C14   C19   A    
C47   H18   S    
C3    C5    A    
C16   O16   A    
O14   Zn1   S    
C10   H23   S    
C22   C36   A    
C46   O5    D    
O18   Zn1   S    
C32   C33   A    
C2    C3    A    
C43   O4    S    
C44   N3    S    
C9    H31   S    
C11   C13   A    
C29   N2    A    
C52   O11   D    
C55   N6    S    
H30   O13   S    
H14   O6    S    
C20   H6    S    
C25   C49   S    
C47   H16   S    
C10   C11   A    
O1    Zn1   S    
H9    N3    S    
H19   O8    S    
C7    C20   A    
C14   C15   A    
C44   H11   S    
N1    Zn1   S    
C51   H28   S    
C52   C56   S    
C50   H25   S    
C17   H1    S    
