data_mof_unit_17894.cif
_audit_creation_date              2012-12-11T14:24:57-0500
_audit_creation_method            fapswitch 2.2
_symmetry_space_group_name_H-M    P1
_symmetry_Int_Tables_number       1
_space_group_crystal_system       triclinic
_cell_length_a                    18.984368
_cell_length_b                    11.029492
_cell_length_c                    18.809201
_cell_angle_alpha                 89.973308
_cell_angle_beta                  90.905838
_cell_angle_gamma                 90.008106
_cell_volume                      3937.92709651

loop_
_atom_site_label
_atom_site_type_symbol
_atom_type_description
_atom_site_fract_x
_atom_site_fract_y
_atom_site_fract_z
_atom_type_partial_charge
C1    C     C_R   0.730174 0.375319 0.145493 0.533141
C2    C     C_R   0.247782 0.907054 0.071092 -0.006832
C3    C     C_R   0.689188 0.608152 0.411077 -0.082960
C4    C     C_R   0.942518 0.014626 0.515771 -0.143472
C5    C     C_R   0.132865 0.177155 0.433679 -0.115926
C6    C     C_R   0.442518 0.514626 0.515771 -0.143472
C7    C     C_R   0.632867 0.677155 0.433676 -0.115925
C8    C     C_R   0.940443 0.974278 0.446070 -0.114621
C9    C     C_R   0.108158 0.161954 0.502011 -0.142833
C10   C     C_R   0.440443 0.474277 0.446070 -0.114621
C11   C     C_R   0.608159 0.661956 0.502008 -0.142834
C12   C     C_R   0.878640 0.925051 0.418531 -0.081557
C13   C     C_R   0.257957 0.396288 0.931926 0.002144
C14   C     C_R   0.139620 0.077916 0.547703 -0.086087
C15   C     C_R   0.378640 0.425051 0.418531 -0.081558
C16   C     C_R   0.639621 0.577919 0.547702 -0.086087
C17   C     C_R   0.749569 0.923885 0.426929 -0.000450
C18   C     C_R   0.240158 0.931802 0.571667 0.004745
C19   C     C_R   0.249569 0.423885 0.426929 -0.000450
C20   C     C_R   0.740158 0.431804 0.571666 0.004745
C21   C     C_R   0.731363 0.378639 0.353957 0.531087
C22   C     C_R   0.270319 0.381136 0.645782 0.545004
C23   C     C_R   0.231363 0.878639 0.353957 0.531087
C24   C     C_R   0.747787 0.407065 0.071096 -0.006836
C25   C     C_R   0.770319 0.881136 0.645782 0.545003
C26   C     C_R   0.532825 0.158105 0.352978 0.532883
C27   C     C_R   0.466940 0.154989 0.646185 0.548020
C28   C     C_R   0.032825 0.658105 0.352978 0.532884
C29   C     C_R   0.966939 0.654989 0.646185 0.548020
C30   C     C_R   0.742152 0.969855 0.355745 0.529281
C31   C     C_R   0.255892 0.971150 0.643780 0.544851
C32   C     C_R   0.242152 0.469855 0.355745 0.529281
C33   C     C_R   0.755892 0.471150 0.643780 0.544852
C34   C     C_3   0.495635 0.278243 0.977523 -0.121080
C35   C     C_R   0.695618 0.858598 0.965986 0.012698
C36   C     C_3   0.447742 0.219645 0.034083 -0.141271
C37   C     C_3   0.995659 0.778243 0.977519 -0.121090
C38   C     C_3   0.947756 0.719679 0.034081 -0.141268
C39   C     C_3   0.561009 0.218932 0.013246 -0.118094
C40   C     C_3   0.439093 0.105972 0.986756 -0.107262
C41   C     C_3   0.061021 0.718898 0.013243 -0.118093
C42   C     C_3   0.939084 0.606008 0.986758 -0.107260
C43   C     C_3   0.512514 0.160740 0.068375 0.048816
C44   C     C_3   0.487686 0.163921 0.931376 0.055586
C45   C     C_3   0.012516 0.660740 0.068374 0.048815
C46   C     C_R   0.305621 0.854076 0.035438 0.012481
C47   C     C_3   0.987688 0.663923 0.931375 0.055582
C48   C     C_3   0.627827 0.741178 0.150187 -0.243648
C49   C     C_3   0.574091 0.641883 0.169460 -0.338478
C50   C     C_3   0.578909 0.610677 0.248173 -0.400600
C51   C     C_3   0.371765 0.745541 0.848932 -0.238042
C52   C     C_3   0.420628 0.642395 0.824855 -0.330543
C53   C     C_3   0.414621 0.623810 0.744787 -0.413698
C54   C     C_3   0.127825 0.241184 0.150187 -0.243641
C55   C     C_3   0.074093 0.141884 0.169461 -0.338488
C56   C     C_3   0.078923 0.110666 0.248171 -0.400597
C57   C     C_R   0.195619 0.358593 0.965986 0.012697
C58   C     C_3   0.871765 0.245544 0.848934 -0.238042
C59   C     C_3   0.920627 0.142396 0.824857 -0.330547
C60   C     C_3   0.914617 0.123810 0.744789 -0.413695
C61   C     C_R   0.805625 0.354082 0.035441 0.012489
C62   C     C_R   0.693725 0.846025 0.041983 0.039013
C63   C     C_R   0.305847 0.843689 0.959173 0.022215
C64   C     C_R   0.193725 0.346024 0.041983 0.039011
C65   C     C_R   0.271367 0.372155 0.855780 0.535989
C66   C     C_R   0.805849 0.343696 0.959176 0.022222
C67   C     C_R   0.812269 0.935020 0.046393 -0.161416
C68   C     C_R   0.194415 0.958735 0.958494 -0.158263
C69   C     C_R   0.312270 0.435016 0.046394 -0.161416
C70   C     C_R   0.694423 0.458758 0.958499 -0.158266
C71   C     C_R   0.816228 0.929401 0.973723 -0.139319
C72   C     C_R   0.194171 0.960730 0.031009 -0.162576
C73   C     C_R   0.316229 0.429399 0.973724 -0.139315
C74   C     C_R   0.694181 0.460756 0.031014 -0.162588
C75   C     C_R   0.634986 0.833058 0.925271 -0.102370
C76   C     C_R   0.230173 0.875316 0.145491 0.533139
C77   C     C_R   0.362133 0.806558 0.075314 -0.087502
C78   C     C_R   0.134988 0.333047 0.925270 -0.102372
C79   C     C_R   0.862135 0.306560 0.075317 -0.087504
C80   C     C_R   0.079890 0.271082 0.954222 -0.146557
C81   C     C_R   0.903914 0.218556 0.047187 -0.137827
C82   C     C_R   0.579889 0.771091 0.954222 -0.146563
C83   C     C_R   0.403912 0.718553 0.047184 -0.137823
C84   C     C_R   0.582668 0.735423 0.024337 -0.122826
C85   C     C_R   0.403258 0.697680 0.975231 -0.109687
C86   C     C_R   0.082668 0.235420 0.024337 -0.122808
C87   C     C_R   0.771367 0.872156 0.855780 0.535987
C88   C     C_R   0.903259 0.197683 0.975233 -0.109686
C89   C     C_R   0.635513 0.776703 0.071531 0.026869
C90   C     C_R   0.359400 0.764323 0.928449 0.021558
C91   C     C_R   0.135513 0.276703 0.071531 0.026880
C92   C     C_R   0.859401 0.264326 0.928451 0.021560
C93   C     C_R   0.533927 0.154934 0.143534 0.549146
C94   C     C_R   0.466243 0.155530 0.856338 0.549439
C95   C     C_R   0.033928 0.654934 0.143534 0.549146
C96   C     C_R   0.966244 0.655531 0.856338 0.549435
C97   C     C_R   0.750785 0.902759 0.081499 -0.012634
C98   C     C_3   0.504279 0.046906 0.021980 -0.097279
C99   C     C_R   0.251021 0.910404 0.921123 -0.010912
C100  C     C_R   0.250785 0.402757 0.081499 -0.012640
C101  C     C_R   0.751024 0.410414 0.921126 -0.010912
C102  C     C_R   0.493037 0.151598 0.572753 0.003056
C103  C     C_R   0.505238 0.168295 0.424717 -0.006197
C104  C     C_R   0.993037 0.651598 0.572753 0.003056
C105  C     C_R   0.005237 0.668295 0.424717 -0.006197
C106  C     C_R   0.477794 0.048974 0.527866 0.041002
C107  C     C_R   0.471317 0.067688 0.454185 0.023838
C108  C     C_R   0.977794 0.548974 0.527866 0.041002
C109  C     C_3   0.552403 0.105190 0.966009 -0.121879
C110  C     C_R   0.971317 0.567688 0.454184 0.023838
C111  C     C_R   0.533365 0.258679 0.469785 -0.143318
C112  C     C_R   0.521827 0.255302 0.542596 -0.151370
C113  C     C_R   0.033365 0.758679 0.469785 -0.143318
C114  C     C_R   0.021827 0.755301 0.542596 -0.151371
C115  C     C_R   0.470649 0.927731 0.552269 -0.087351
C116  C     C_R   0.439921 0.977392 0.410758 -0.085486
C117  C     C_R   0.970649 0.427731 0.552269 -0.087351
C118  C     C_R   0.939921 0.477393 0.410758 -0.085486
C119  C     C_R   0.946459 0.336499 0.507250 -0.147562
C120  C     C_3   0.004259 0.546909 0.021983 -0.097281
C121  C     C_R   0.930892 0.360990 0.436542 -0.117930
C122  C     C_R   0.446459 0.836499 0.507251 -0.147563
C123  C     C_R   0.430892 0.860990 0.436542 -0.117931
C124  C     C_R   0.759638 0.925295 0.573692 0.004202
C125  C     C_R   0.250278 0.913738 0.425472 0.001161
C126  C     C_R   0.259638 0.425294 0.573691 0.004202
C127  C     C_R   0.750278 0.413738 0.425471 0.001161
C128  C     C_R   0.819858 0.953381 0.531276 0.043964
C129  C     C_R   0.215992 0.013801 0.454351 0.027350
C130  C     C_R   0.319858 0.453381 0.531275 0.043964
C131  C     C_3   0.052392 0.605159 0.966010 -0.121872
C132  C     C_R   0.715993 0.513803 0.454351 0.027350
C133  C     C_R   0.816370 0.926993 0.458905 0.022967
C134  C     C_R   0.198343 0.008152 0.525922 0.041584
C135  C     C_R   0.316371 0.426993 0.458905 0.022967
C136  C     C_R   0.698345 0.508154 0.525921 0.041584
C137  C     C_R   0.688519 0.922353 0.468745 -0.138775
C138  C     C_R   0.279320 0.838155 0.543018 -0.155129
C139  C     C_R   0.188519 0.422352 0.468745 -0.138775
C140  C     C_R   0.779320 0.338155 0.543018 -0.155129
C141  C     C_R   0.741875 0.964925 0.150136 0.539150
C142  C     C_R   0.757957 0.896290 0.931926 0.002142
C143  C     C_R   0.258344 0.965583 0.850284 0.533174
C144  C     C_R   0.241875 0.464925 0.150136 0.539149
C145  C     C_R   0.758344 0.465584 0.850285 0.533171
C146  C     C_R   0.693974 0.912189 0.541602 -0.155633
C147  C     C_R   0.279163 0.823407 0.470203 -0.138064
C148  C     C_R   0.193974 0.412188 0.541602 -0.155633
C149  C     C_R   0.779163 0.323407 0.470203 -0.138065
C150  C     C_R   0.882808 0.007914 0.557314 -0.086028
C151  C     C_R   0.189185 0.108151 0.411078 -0.082959
C152  C     C_R   0.382808 0.507914 0.557314 -0.086028
Cr1   Cr    Cr6+3 0.772820 0.169820 0.252640 0.995546
Cr2   Cr    Cr6+3 0.383280 0.011130 0.749340 0.977871
Cr3   Cr    Cr6+3 0.116720 0.511130 0.250660 0.974646
Cr4   Cr    Cr6+3 0.883280 0.511130 0.749340 0.977871
Cr5   Cr    Cr6+3 0.227180 0.169820 0.747360 1.004252
Cr6   Cr    Cr6+3 0.272820 0.669820 0.252640 0.995545
Cr7   Cr    Cr6+3 0.727180 0.669820 0.747360 1.004252
Cr8   Cr    Cr6+3 0.615040 0.323610 0.249150 0.973807
Cr9   Cr    Cr6+3 0.384960 0.323610 0.750850 0.981021
Cr10  Cr    Cr6+3 0.115040 0.823610 0.249150 0.973799
Cr11  Cr    Cr6+3 0.884960 0.823610 0.750850 0.981020
Cr12  Cr    Cr6+3 0.616720 0.011130 0.250660 0.974648
H1    H     H_    0.611856 0.263140 0.026389 0.133258
H2    H     H_    0.426638 0.994409 0.355436 0.120306
H3    H     H_    0.988065 0.397671 0.604168 0.135107
H4    H     H_    0.926638 0.494409 0.355436 0.120306
H5    H     H_    0.939299 0.246767 0.527976 0.103462
H6    H     H_    0.912298 0.289634 0.401506 0.122504
H7    H     H_    0.439299 0.746767 0.527976 0.103462
H8    H     H_    0.412298 0.789634 0.401506 0.122503
H9    H     H_    0.636228 0.930220 0.445355 0.153795
H10   H     H_    0.308464 0.775665 0.576849 0.115131
H11   H     H_    0.136228 0.430220 0.445355 0.153794
H12   H     H_    0.388417 0.060052 0.974256 0.132435
H13   H     H_    0.808464 0.275665 0.576849 0.115131
H14   H     H_    0.886129 0.052724 0.608007 0.123230
H15   H     H_    0.208437 0.122103 0.357859 0.100259
H16   H     H_    0.386129 0.552723 0.608007 0.123230
H17   H     H_    0.708441 0.622103 0.357858 0.100256
H18   H     H_    0.647260 0.897334 0.572821 0.120005
H19   H     H_    0.301263 0.740632 0.449072 0.152761
H20   H     H_    0.147260 0.397334 0.572821 0.120005
H21   H     H_    0.801262 0.240631 0.449072 0.152761
H22   H     H_    0.990181 0.052085 0.538183 0.094943
H23   H     H_    0.111877 0.763073 0.026384 0.133256
H24   H     H_    0.108238 0.242089 0.398118 0.116598
H25   H     H_    0.490181 0.552085 0.538183 0.094943
H26   H     H_    0.608240 0.742088 0.398114 0.116599
H27   H     H_    0.986328 0.982660 0.413023 0.118228
H28   H     H_    0.065148 0.216558 0.520231 0.104070
H29   H     H_    0.486327 0.482661 0.413023 0.118228
H30   H     H_    0.565148 0.716558 0.520227 0.104071
H31   H     H_    0.878225 0.893988 0.363891 0.117641
H32   H     H_    0.114194 0.064420 0.598036 0.130192
H33   H     H_    0.378225 0.393988 0.363891 0.117641
H34   H     H_    0.888400 0.560118 0.974260 0.132428
H35   H     H_    0.614195 0.564425 0.598035 0.130193
H36   H     H_    0.493055 0.373141 0.957946 0.098892
H37   H     H_    0.405578 0.261683 0.065504 0.110564
H38   H     H_    0.993097 0.873138 0.957939 0.098896
H39   H     H_    0.905606 0.761745 0.065503 0.110560
H40   H     H_    0.506190 0.952129 0.041551 0.146433
H41   H     H_    0.595989 0.063467 0.936315 0.114858
H42   H     H_    0.006153 0.452133 0.041556 0.146422
H43   H     H_    0.095968 0.563414 0.936314 0.114865
H44   H     H_    0.857690 0.970179 0.075261 0.136522
H45   H     H_    0.564758 0.332039 0.448800 0.148798
H46   H     H_    0.150498 0.003212 0.931738 0.150436
H47   H     H_    0.357691 0.470172 0.075262 0.136524
H48   H     H_    0.650507 0.503241 0.931745 0.150446
H49   H     H_    0.629217 0.861077 0.870414 0.128020
H50   H     H_    0.372283 0.830905 0.130128 0.131659
H51   H     H_    0.129218 0.361064 0.870413 0.128020
H52   H     H_    0.872285 0.330907 0.130131 0.131655
H53   H     H_    0.866349 0.950694 0.950471 0.132236
H54   H     H_    0.148494 0.999230 0.055171 0.139589
H55   H     H_    0.366350 0.450694 0.950471 0.132230
H56   H     H_    0.537697 0.331297 0.575606 0.120244
H57   H     H_    0.648508 0.499267 0.055177 0.139593
H58   H     H_    0.035185 0.248718 0.921416 0.110282
H59   H     H_    0.936591 0.164902 0.081975 0.088793
H60   H     H_    0.535182 0.748730 0.921416 0.110288
H61   H     H_    0.436588 0.664897 0.081973 0.088794
H62   H     H_    0.041704 0.176209 0.041092 0.100825
H63   H     H_    0.940122 0.130512 0.957289 0.084647
H64   H     H_    0.541705 0.676209 0.041091 0.100829
H65   H     H_    0.440122 0.630511 0.957287 0.084646
H66   H     H_    0.633906 0.587413 0.262258 0.190331
H67   H     H_    0.064758 0.832039 0.448800 0.148798
H68   H     H_    0.562160 0.689367 0.280600 0.112228
H69   H     H_    0.544227 0.532341 0.259973 0.155408
H70   H     H_    0.520123 0.676637 0.160039 0.128369
H71   H     H_    0.580409 0.558867 0.137813 0.187175
H72   H     H_    0.680555 0.718252 0.172986 0.140405
H73   H     H_    0.603445 0.817848 0.178006 0.208229
H74   H     H_    0.358828 0.607963 0.729120 0.175858
H75   H     H_    0.433989 0.705320 0.716351 0.113314
H76   H     H_    0.446807 0.544419 0.729067 0.152531
H77   H     H_    0.476350 0.664529 0.836803 0.122887
H78   H     H_    0.037697 0.831297 0.575606 0.120244
H79   H     H_    0.409366 0.557507 0.852568 0.201032
H80   H     H_    0.319766 0.735409 0.821542 0.152491
H81   H     H_    0.402031 0.824639 0.830351 0.207897
H82   H     H_    0.133920 0.087396 0.262245 0.190345
H83   H     H_    0.062184 0.189351 0.280604 0.112227
H84   H     H_    0.044242 0.032331 0.259975 0.155419
H85   H     H_    0.020124 0.176635 0.160050 0.128368
H86   H     H_    0.080410 0.058874 0.137809 0.187172
H87   H     H_    0.180553 0.218267 0.172988 0.140406
H88   H     H_    0.103439 0.317855 0.178004 0.208227
H89   H     H_    0.488066 0.897671 0.604169 0.135107
H90   H     H_    0.858824 0.107961 0.729123 0.175860
H91   H     H_    0.933983 0.205320 0.716352 0.113313
H92   H     H_    0.946803 0.044420 0.729069 0.152532
H93   H     H_    0.976349 0.164528 0.836803 0.122886
H94   H     H_    0.909365 0.057509 0.852571 0.201032
H95   H     H_    0.819766 0.235413 0.821545 0.152491
H96   H     H_    0.902031 0.324640 0.830354 0.207899
O1    O     O_R   0.788190 0.043000 0.172520 -0.516849
O2    O     O_R   0.454170 0.051610 0.669840 -0.539814
O3    O     O_R   0.045830 0.551610 0.330160 -0.529229
O4    O     O_R   0.954170 0.551610 0.669840 -0.539814
O5    O     O_R   0.681920 0.959720 0.327070 -0.520068
O6    O     O_R   0.318080 0.959720 0.672930 -0.501163
O7    O     O_R   0.181920 0.459720 0.327070 -0.520067
O8    O     O_R   0.818080 0.459720 0.672930 -0.501163
O9    O     O_3   0.668190 0.168190 0.250820 -0.232618
O10   O     O_3   0.331810 0.168190 0.749180 -0.235412
O11   O     O_3   0.168190 0.668190 0.250820 -0.232619
O12   O     O_R   0.211810 0.043000 0.827480 -0.517999
O13   O     O_3   0.831810 0.668190 0.749180 -0.235412
O14   O     O_R   0.766240 0.292300 0.176860 -0.505243
O15   O     O_R   0.233760 0.292300 0.823140 -0.504852
O16   O     O_R   0.266240 0.792300 0.176860 -0.505245
O17   O     O_R   0.733760 0.792300 0.823140 -0.504851
O18   O     O_R   0.670310 0.409160 0.168720 -0.539631
O19   O     O_R   0.329690 0.409160 0.831280 -0.543640
O20   O     O_R   0.170310 0.909160 0.168720 -0.539634
O21   O     O_R   0.829690 0.909160 0.831280 -0.543640
O22   O     O_R   0.556160 0.251900 0.173380 -0.507435
O23   O     O_R   0.288190 0.543000 0.172520 -0.516848
O24   O     O_R   0.443840 0.251900 0.826620 -0.510019
O25   O     O_R   0.056160 0.751900 0.173380 -0.507435
O26   O     O_R   0.943840 0.751900 0.826620 -0.510019
O27   O     O_R   0.545410 0.050140 0.168240 -0.537759
O28   O     O_R   0.454590 0.050140 0.831760 -0.537494
O29   O     O_R   0.045410 0.550140 0.168240 -0.537760
O30   O     O_R   0.954590 0.550140 0.831760 -0.537492
O31   O     O_R   0.681530 0.958350 0.176970 -0.528336
O32   O     O_R   0.318470 0.958350 0.823030 -0.534336
O33   O     O_R   0.181530 0.458350 0.176970 -0.528337
O34   O     O_R   0.711810 0.543000 0.827480 -0.518001
O35   O     O_R   0.818470 0.458350 0.823030 -0.534334
O36   O     O_R   0.788610 0.044480 0.334450 -0.527807
O37   O     O_R   0.211390 0.044480 0.665550 -0.537414
O38   O     O_R   0.288610 0.544480 0.334450 -0.527807
O39   O     O_R   0.711390 0.544480 0.665550 -0.537414
O40   O     O_R   0.766630 0.293670 0.326970 -0.513319
O41   O     O_R   0.233370 0.293670 0.673030 -0.493891
O42   O     O_R   0.266630 0.793670 0.326970 -0.513317
O43   O     O_R   0.733370 0.793670 0.673030 -0.493891
O44   O     O_R   0.670730 0.410640 0.330640 -0.539098
O45   O     O_R   0.556550 0.253260 0.323480 -0.510648
O46   O     O_R   0.329270 0.410640 0.669360 -0.548428
O47   O     O_R   0.170730 0.910640 0.330640 -0.539105
O48   O     O_R   0.829270 0.910640 0.669360 -0.548429
O49   O     O_R   0.443450 0.253260 0.676520 -0.494591
O50   O     O_R   0.056550 0.753260 0.323480 -0.510648
O51   O     O_R   0.943450 0.753260 0.676520 -0.494591
O52   O     O_R   0.545830 0.051610 0.330160 -0.529229

loop_
_geom_bond_atom_site_label_1
_geom_bond_atom_site_label_2
_ccdc_geom_bond_type
C105  C110  A    
C24   C61   A    
C21   O40   A    
C51   H80   S    
C110  C118  A    
C48   H73   S    
C56   H84   S    
Cr8   O22   S    
C99   C143  S    
C96   O30   A    
C117  C119  A    
C40   C98   S    
C15   H33   S    
C88   H63   S    
C82   H60   S    
C106  C107  A    
C73   H55   S    
C4    H22   S    
C38   C45   S    
C80   C86   A    
C31   O37   A    
C102  C112  A    
Cr11  O21   S    
C138  H10   S    
C54   H87   S    
C55   H85   S    
C69   H47   S    
Cr3   O3    S    
C59   C60   S    
C98   C109  S    
Cr3   O29   S    
C31   O6    A    
C17   C30   S    
C116  H2    S    
C19   C32   S    
C53   H76   S    
C77   H50   S    
C141  O31   A    
C139  C148  A    
C76   O20   A    
C51   C52   S    
Cr7   O13   S    
C137  C146  A    
C42   H34   S    
C85   H65   S    
C100  C144  S    
C10   H29   S    
C41   C131  S    
Cr5   O12   S    
Cr6   O11   S    
C58   H96   S    
C39   H1    S    
C50   H69   S    
C6    C10   A    
C37   C38   S    
C151  H15   S    
C115  H89   S    
C68   C72   A    
C60   H90   S    
C20   C33   S    
C45   C120  S    
C128  C150  A    
C13   C73   A    
C82   C84   A    
C17   C133  A    
C72   H54   S    
Cr12  O27   S    
Cr9   O46   S    
C141  O1    A    
C57   C78   A    
C46   C77   A    
C85   C90   A    
Cr9   O10   S    
C4    C150  A    
C5    C151  A    
C106  C115  A    
C22   O46   A    
C52   H77   S    
Cr10  O50   S    
C81   C88   A    
C44   C94   S    
C33   O39   A    
C69   C100  A    
C125  C129  A    
C1    O18   A    
C19   C139  A    
C41   C45   S    
C17   C137  A    
C18   C31   S    
C5    H24   S    
Cr5   O37   S    
Cr2   O10   S    
Cr6   O42   S    
Cr12  O9    S    
C116  C123  A    
C70   H48   S    
C111  C112  A    
C68   H46   S    
C111  H45   S    
C70   C101  A    
C5    C9    A    
C74   H57   S    
C101  C145  S    
C105  C113  A    
C51   H81   S    
C51   C90   S    
C78   C80   A    
C13   C57   A    
C60   H92   S    
C118  H4    S    
C63   C99   A    
C41   H23   S    
Cr4   O4    S    
C37   H38   S    
C59   H94   S    
C50   H68   S    
C37   C47   S    
Cr1   O1    S    
C123  H8    S    
C132  C136  A    
C121  H6    S    
Cr11  O26   S    
C145  O35   A    
C66   C101  A    
Cr10  O47   S    
Cr7   O39   S    
C93   O22   A    
C119  C121  A    
Cr10  O11   S    
C33   O8    A    
C34   C39   S    
C52   H79   S    
C40   H12   S    
C32   O38   A    
C66   C92   A    
C27   O2    A    
C124  C146  A    
C75   H49   S    
C29   C104  S    
C70   C74   A    
C49   H70   S    
C34   H36   S    
C62   C97   A    
Cr4   O8    S    
C39   C109  S    
C8    C12   A    
C144  O23   A    
C27   O49   A    
C112  H56   S    
Cr4   O30   S    
C30   O5    A    
C20   C136  A    
C109  H41   S    
C1    O14   A    
C119  H5    S    
C79   H52   S    
C114  H78   S    
Cr7   O17   S    
C36   H37   S    
C45   C95   S    
C52   C53   S    
C54   C55   S    
Cr4   O35   S    
C108  C117  A    
C78   H51   S    
C103  C107  A    
C75   C82   A    
Cr12  O52   S    
C28   O3    A    
C27   C102  S    
C64   C91   A    
C46   C63   A    
C48   C89   S    
C127  C149  A    
C42   C120  S    
C61   C79   A    
C6    H25   S    
C108  C110  A    
C50   H66   S    
C34   C36   S    
C95   O29   A    
C37   C41   S    
C107  C116  A    
C35   C142  A    
C80   H58   S    
C143  O32   A    
C40   C44   S    
C1    C24   S    
C122  H7    S    
C54   H88   S    
C58   C92   S    
C140  C149  A    
C67   H44   S    
C16   C136  A    
C55   C56   S    
C149  H21   S    
C65   O15   A    
C120  C131  S    
C23   O47   A    
C130  C135  A    
C53   H75   S    
C30   O36   A    
Cr8   O9    S    
C129  C151  A    
C3    C7    A    
C145  O34   A    
Cr8   O45   S    
C126  C130  A    
C19   C135  A    
C62   C89   A    
C29   O4    A    
C32   O7    A    
C103  C111  A    
Cr11  O48   S    
C18   C138  A    
Cr6   O38   S    
C26   O52   A    
C96   O26   A    
C47   C96   S    
C43   C98   S    
C69   C73   A    
C124  C128  A    
C6    C152  A    
C44   C109  S    
C131  H43   S    
C2    C72   A    
C113  H67   S    
Cr1   O36   S    
C56   H83   S    
Cr9   O24   S    
C146  H18   S    
C3    C132  A    
Cr9   O19   S    
C93   O27   A    
Cr10  O20   S    
C94   O28   A    
C58   C59   S    
C95   O25   A    
C9    C14   A    
Cr2   O2    S    
C26   C103  S    
C11   C16   A    
C144  O33   A    
C140  H13   S    
C55   H86   S    
Cr8   O18   S    
Cr7   O43   S    
C3    H17   S    
C97   C141  S    
Cr4   O13   S    
Cr6   O23   S    
C83   C85   A    
C38   H39   S    
C125  C147  A    
C12   H31   S    
Cr11  O51   S    
C104  C108  A    
C2    C76   S    
C113  C114  A    
Cr11  O13   S    
C126  C148  A    
Cr5   O15   S    
Cr3   O11   S    
Cr6   O16   S    
C71   H53   S    
C58   H95   S    
C21   O44   A    
C20   C140  A    
C137  H9    S    
C54   C91   S    
C23   O42   A    
C117  H3    S    
Cr2   O32   S    
C43   C93   S    
C67   C71   A    
C87   C142  S    
C67   C97   A    
C129  C134  A    
Cr10  O25   S    
C64   C100  A    
C86   C91   A    
C47   C131  S    
C59   H93   S    
C36   C43   S    
C29   O51   A    
C152  H16   S    
C139  H11   S    
C11   H30   S    
C4    C8    A    
C13   C65   S    
C2    C46   A    
C7    C11   A    
C35   C75   A    
Cr3   O33   S    
C98   H40   S    
C38   C42   S    
C10   C15   A    
C22   C126  S    
C15   C135  A    
C77   C83   A    
C8    H27   S    
C76   O16   A    
C87   O17   A    
C127  C132  A    
C61   C66   A    
C88   C92   A    
C65   O19   A    
C18   C134  A    
Cr1   O14   S    
C21   C127  S    
C9    H28   S    
C28   C105  S    
C23   C125  S    
C25   O48   A    
C115  C122  A    
C25   C124  S    
C81   H59   S    
C143  O12   A    
C36   C40   S    
C22   O41   A    
C34   C44   S    
C79   C81   A    
C39   C43   S    
C14   C134  A    
C56   H82   S    
C60   H91   S    
C118  C121  A    
C87   O21   A    
Cr8   O44   S    
C138  C147  A    
C148  H20   S    
C7    H26   S    
Cr2   O28   S    
C48   H72   S    
C16   H35   S    
C71   C142  A    
C104  C114  A    
Cr1   O40   S    
C49   C50   S    
C12   C133  A    
Cr9   O49   S    
C86   H62   S    
C84   C89   A    
C84   H64   S    
C57   C64   A    
C94   O24   A    
C83   H61   S    
C147  H19   S    
C14   H32   S    
C48   C49   S    
C28   O50   A    
Cr1   O9    S    
Cr5   O41   S    
Cr2   O6    S    
C53   H74   S    
Cr12  O31   S    
Cr12  O5    S    
C25   O43   A    
C150  H14   S    
C120  H42   S    
C68   C99   A    
C49   H71   S    
C128  C133  A    
C130  C152  A    
C24   C74   A    
Cr5   O10   S    
C63   C90   A    
C102  C106  A    
C35   C62   A    
C42   C47   S    
Cr7   O34   S    
C26   O45   A    
C122  C123  A    
Cr3   O7    S    
