data_mof_unit_62187.cif
_audit_creation_date              2012-12-10T17:09:22-0500
_audit_creation_method            fapswitch 2.2
_symmetry_space_group_name_H-M    P1
_symmetry_Int_Tables_number       1
_space_group_crystal_system       triclinic
_cell_length_a                    44.044675
_cell_length_b                    30.167082
_cell_length_c                    30.175604
_cell_angle_alpha                 90.0
_cell_angle_beta                  133.363516
_cell_angle_gamma                 89.999892
_cell_volume                      29149.0420723

loop_
_atom_site_label
_atom_site_type_symbol
_atom_type_description
_atom_site_fract_x
_atom_site_fract_y
_atom_site_fract_z
_atom_type_partial_charge
C1    C     C_R   0.500015 0.500005 0.914367 0.803951
C2    C     C_3   0.726222 0.534012 0.191452 -0.131732
C3    C     C_R   0.920056 0.500005 0.420042 0.818490
C4    C     C_R   0.579944 0.000005 0.579958 0.818491
C5    C     C_R   0.420056 0.000005 0.420041 0.818494
C6    C     C_R   1.000000 0.414206 0.500000 0.799744
C7    C     C_R   0.500000 0.914206 0.500000 0.799746
C8    C     C_R   0.500000 0.414127 0.500000 0.812465
C9    C     C_R   1.000000 0.914127 0.500000 0.812465
C10   C     C_R   0.500000 0.499953 0.585797 0.810099
C11   C     C_R   0.500000 0.499953 0.414203 0.810099
C12   C     C_R   0.000000 0.999953 0.585797 0.810100
C13   C     C_3   0.773777 0.034048 0.808513 -0.131709
C14   C     C_R   1.000000 0.999953 0.414203 0.810100
C15   C     C_R   0.500000 0.585791 0.500000 0.810880
C16   C     C_R   1.000000 0.085791 0.500000 0.810882
C17   C     C_R   0.472245 0.342733 0.499689 -0.236175
C18   C     C_R   0.527755 0.342733 0.500312 -0.236175
C19   C     C_R   0.972245 0.842733 0.499688 -0.236176
C20   C     C_R   0.027755 0.842733 0.500312 -0.236176
C21   C     C_R   0.500000 0.365801 0.500000 -0.059580
C22   C     C_R   0.000000 0.865801 0.500000 -0.059581
C23   C     C_R   0.527454 0.296415 0.499238 0.110531
C24   C     C_3   0.226223 0.034044 0.191483 -0.131712
C25   C     C_R   0.472546 0.296415 0.500762 0.110531
C26   C     C_R   0.027454 0.796415 0.499238 0.110532
C27   C     C_R   0.972546 0.796415 0.500762 0.110532
C28   C     C_3   0.274566 0.452165 0.789712 0.258861
C29   C     C_3   0.725434 0.452152 0.210330 0.258864
C30   C     C_3   0.774566 0.952168 0.789719 0.258863
C31   C     C_3   0.225434 0.952166 0.210285 0.258862
C32   C     C_R   0.500000 0.273136 0.500000 0.061626
C33   C     C_R   0.000000 0.773136 0.500000 0.061626
C34   C     C_R   0.554000 0.272979 0.497256 -0.203022
C35   C     C_1   0.162468 0.499419 0.662862 -0.064500
C36   C     C_R   0.446001 0.272979 0.502745 -0.203022
C37   C     C_R   0.054000 0.772979 0.497257 -0.203024
C38   C     C_R   0.946000 0.772979 0.502744 -0.203023
C39   C     C_R   0.053301 0.726699 0.495819 -0.205460
C40   C     C_R   0.946699 0.726700 0.504181 -0.205463
C41   C     C_R   0.553301 0.226699 0.495818 -0.205462
C42   C     C_R   0.446699 0.226700 0.504182 -0.205461
C43   C     C_R   0.026504 0.703263 0.497284 0.109556
C44   C     C_R   0.973496 0.703263 0.502716 0.109557
C45   C     C_R   0.526504 0.203263 0.497284 0.109556
C46   C     C_1   0.837532 0.499419 0.337138 -0.064485
C47   C     C_R   0.473496 0.203263 0.502717 0.109556
C48   C     C_R   1.000000 0.726541 0.500000 0.061687
C49   C     C_R   0.500000 0.226541 0.500000 0.061687
C50   C     C_R   0.025780 0.656943 0.496248 -0.239203
C51   C     C_R   0.974220 0.656943 0.503753 -0.239204
C52   C     C_R   0.525780 0.156943 0.496247 -0.239202
C53   C     C_R   0.474220 0.156943 0.503753 -0.239203
C54   C     C_R   1.000000 0.633865 0.500000 -0.057422
C55   C     C_R   0.500000 0.133865 0.500000 -0.057423
C56   C     C_R   0.527523 0.657120 0.555354 -0.243812
C57   C     C_1   0.662468 0.999419 0.662862 -0.064503
C58   C     C_R   0.472477 0.657120 0.444646 -0.243812
C59   C     C_R   0.027524 0.157120 0.555354 -0.243812
C60   C     C_R   0.972474 0.157120 0.444646 -0.243812
C61   C     C_R   0.500000 0.634078 0.500000 -0.061094
C62   C     C_R   1.000000 0.134078 0.500000 -0.061097
C63   C     C_R   0.472793 0.703424 0.444182 0.109147
C64   C     C_R   0.527207 0.703424 0.555818 0.109147
C65   C     C_R   0.972790 0.203424 0.444182 0.109145
C66   C     C_R   0.027208 0.203424 0.555818 0.109147
C67   C     C_3   0.225524 0.451887 0.740593 0.286176
C68   C     C_1   0.337532 0.999419 0.337138 -0.064502
C69   C     C_3   0.774476 0.451875 0.259443 0.286171
C70   C     C_3   0.725524 0.951889 0.740599 0.286177
C71   C     C_3   0.274476 0.951888 0.259404 0.286173
C72   C     C_R   0.500000 0.726696 0.500000 0.059769
C73   C     C_R   0.999999 0.226696 0.500000 0.059769
C74   C     C_R   0.446544 0.726845 0.388977 -0.205486
C75   C     C_R   0.553456 0.726845 0.611023 -0.205485
C76   C     C_R   0.946538 0.226845 0.388977 -0.205489
C77   C     C_R   0.053459 0.226845 0.611022 -0.205486
C78   C     C_R   0.947297 0.273107 0.388958 -0.215451
C79   C     C_1   0.337475 0.499465 0.838210 -0.064615
C80   C     C_R   0.052701 0.273107 0.611042 -0.215480
C81   C     C_R   0.447303 0.773107 0.388958 -0.215482
C82   C     C_R   0.552697 0.773107 0.611042 -0.215483
C83   C     C_R   0.973744 0.296543 0.444146 0.109370
C84   C     C_R   0.026254 0.296542 0.555854 0.109372
C85   C     C_R   0.473747 0.796542 0.444146 0.109371
C86   C     C_R   0.526253 0.796542 0.555854 0.109371
C87   C     C_R   0.999999 0.273276 0.500000 0.061257
C88   C     C_R   0.500000 0.773276 0.500000 0.061262
C89   C     C_R   0.974394 0.342845 0.444563 -0.247571
C90   C     C_1   0.662525 0.499464 0.161791 -0.064595
C91   C     C_R   0.025604 0.342845 0.555437 -0.247571
C92   C     C_R   0.474397 0.842845 0.444563 -0.247569
C93   C     C_R   0.525603 0.842845 0.555437 -0.247569
C94   C     C_R   1.000000 0.365900 0.500000 -0.055602
C95   C     C_R   0.500000 0.865900 0.500000 -0.055605
C96   C     C_1   0.124781 0.499907 0.624910 -0.186988
C97   C     C_1   0.875219 0.499908 0.375090 -0.186992
C98   C     C_1   0.624781 0.999907 0.624910 -0.186988
C99   C     C_1   0.375219 0.999907 0.375090 -0.186987
C100  C     C_3   0.291241 0.498978 0.792656 0.149101
C101  C     C_1   0.837475 0.999465 0.838210 -0.064617
C102  C     C_3   0.708759 0.498976 0.207345 0.149097
C103  C     C_3   0.791241 0.998978 0.792657 0.149100
C104  C     C_3   0.208759 0.998977 0.207343 0.149101
C105  C     C_3   0.225744 0.510044 0.680065 -0.357878
C106  C     C_3   0.774256 0.510077 0.319927 -0.357901
C107  C     C_3   0.725744 0.010037 0.680064 -0.357876
C108  C     C_3   0.274256 0.010040 0.319935 -0.357878
C109  C     C_3   0.208575 0.498419 0.709470 0.177691
C110  C     C_3   0.791425 0.498418 0.290531 0.177685
C111  C     C_3   0.708575 0.998419 0.709470 0.177692
C112  C     C_R   0.499985 0.500005 0.085632 0.803942
C113  C     C_1   0.162525 0.999465 0.161789 -0.064615
C114  C     C_3   0.291424 0.998419 0.290530 0.177692
C115  C     C_1   0.582886 0.411963 0.788478 0.229043
C116  C     C_1   0.417110 0.411967 0.211519 0.229041
C117  C     C_1   0.082890 0.911966 0.788481 0.229040
C118  C     C_1   0.917110 0.911967 0.211518 0.229041
C119  C     C_3   0.321745 0.409498 0.879444 0.059349
C120  C     C_3   0.304160 0.362326 0.862577 -0.371577
C121  C     C_3   0.339038 0.327985 0.900277 -0.900061
C122  C     C_3   0.678253 0.409441 0.120642 0.059365
C123  C     C_3   0.695842 0.362270 0.137556 -0.371584
C124  C     C_1   0.375173 0.499867 0.875476 -0.177786
C125  C     C_3   0.660966 0.327924 0.099900 -0.900066
C126  C     C_3   0.821744 0.909507 0.879459 0.059346
C127  C     C_3   0.804159 0.862336 0.862598 -0.371577
C128  C     C_3   0.839037 0.827995 0.900305 -0.900063
C129  C     C_3   0.178256 0.909501 0.120550 0.059352
C130  C     C_3   0.195842 0.862329 0.137415 -0.371577
C131  C     C_3   0.160963 0.827989 0.099712 -0.900061
C132  C     C_3   0.176956 0.394366 0.678702 0.057968
C133  C     C_3   0.191943 0.352886 0.718144 -0.364553
C134  C     C_3   0.155151 0.324538 0.696447 -0.914092
C135  C     C_1   0.624827 0.499867 0.124524 -0.177788
C136  C     C_3   0.823051 0.394368 0.321373 0.057983
C137  C     C_3   0.808066 0.352869 0.281963 -0.364582
C138  C     C_3   0.844861 0.324519 0.303672 -0.914034
C139  C     C_3   0.676957 0.894366 0.678715 0.057964
C140  C     C_3   0.691943 0.852890 0.718163 -0.364548
C141  C     C_3   0.655150 0.824543 0.696467 -0.914098
C142  C     C_3   0.323044 0.894366 0.321292 0.057967
C143  C     C_3   0.308058 0.852888 0.281848 -0.364551
C144  C     C_3   0.344851 0.824541 0.303544 -0.914091
C145  C     C_1   0.289543 0.579142 0.814980 0.253529
C146  C     C_1   0.875173 0.999867 0.875476 -0.177785
C147  C     C_1   0.710453 0.579119 0.184945 0.253534
C148  C     C_1   0.789542 0.079146 0.814967 0.253528
C149  C     C_1   0.210457 0.079144 0.185025 0.253528
C150  C     C_1   0.124827 0.999867 0.124524 -0.177785
C151  C     C_R   0.527826 0.472047 0.684796 -0.232982
C152  C     C_R   0.472173 0.472049 0.315203 -0.232982
C153  C     C_R   0.027827 0.972049 0.684797 -0.232982
C154  C     C_R   0.972172 0.972049 0.315203 -0.232982
C155  C     C_R   0.500108 0.499734 0.634205 -0.064295
C156  C     C_R   0.000015 0.000005 0.914367 0.803945
C157  C     C_R   0.499891 0.499734 0.365795 -0.064295
C158  C     C_R   0.000109 0.999734 0.634205 -0.064296
C159  C     C_R   0.999891 0.999734 0.365795 -0.064296
C160  C     C_R   0.472577 0.527211 0.629799 -0.240485
C161  C     C_R   0.527424 0.527210 0.370202 -0.240486
C162  C     C_R   0.972576 0.027210 0.629798 -0.240486
C163  C     C_R   0.027424 0.027209 0.370202 -0.240486
C164  C     C_R   0.473073 0.527875 0.676533 0.120173
C165  C     C_R   0.526928 0.527873 0.323468 0.120173
C166  C     C_R   0.973072 0.027873 0.676532 0.120173
C167  C     C_R   0.999985 0.000005 0.085632 0.803943
C168  C     C_R   0.026928 0.027873 0.323468 0.120172
C169  C     C_R   0.500499 0.499414 0.727253 0.047822
C170  C     C_R   0.499501 0.499414 0.272746 0.047822
C171  C     C_R   0.000499 0.999414 0.727254 0.047822
C172  C     C_R   0.999501 0.999414 0.272746 0.047822
C173  C     C_R   0.420035 0.499984 0.920040 0.820114
C174  C     C_R   0.579965 0.499984 0.079960 0.820117
C175  C     C_R   0.920035 0.999984 0.920040 0.820113
C176  C     C_R   0.079965 0.999984 0.079960 0.820114
C177  C     C_R   0.527905 0.470854 0.731415 0.052891
C178  C     C_3   0.225144 0.533456 0.759332 -0.500505
C179  C     C_R   0.472093 0.470855 0.268584 0.052890
C180  C     C_R   0.027907 0.970855 0.731416 0.052891
C181  C     C_R   0.972093 0.970856 0.268584 0.052891
C182  C     C_R   0.446663 0.556654 0.673422 -0.209397
C183  C     C_R   0.553339 0.556652 0.326579 -0.209398
C184  C     C_R   0.946661 0.056652 0.673420 -0.209397
C185  C     C_R   0.053339 0.056651 0.326580 -0.209396
C186  C     C_R   0.447362 0.557527 0.720326 -0.208526
C187  C     C_R   0.552639 0.557525 0.279676 -0.208529
C188  C     C_R   0.947360 0.057525 0.720324 -0.208526
C189  C     C_3   0.774856 0.533430 0.240642 -0.500509
C190  C     C_R   0.052640 0.057524 0.279676 -0.208526
C191  C     C_R   0.474013 0.529138 0.770497 0.114428
C192  C     C_R   0.525988 0.529137 0.229503 0.114429
C193  C     C_R   0.974012 0.029137 0.770496 0.114427
C194  C     C_R   0.025988 0.029137 0.229504 0.114427
C195  C     C_R   0.500418 0.499618 0.773778 0.060525
C196  C     C_R   0.499581 0.499618 0.226221 0.060525
C197  C     C_R   0.000419 0.999618 0.773779 0.060525
C198  C     C_R   0.999581 0.999618 0.226221 0.060525
C199  C     C_R   0.526677 0.470335 0.823561 0.091772
C200  C     C_3   0.725144 0.033460 0.759328 -0.500503
C201  C     C_R   0.473321 0.470336 0.176437 0.091773
C202  C     C_R   0.026679 0.970336 0.823563 0.091774
C203  C     C_R   0.973321 0.970336 0.176437 0.091774
C204  C     C_R   0.553371 0.441745 0.827230 -0.249208
C205  C     C_R   0.446627 0.441747 0.172768 -0.249212
C206  C     C_R   0.053373 0.941747 0.827232 -0.249212
C207  C     C_R   0.946626 0.941748 0.172767 -0.249212
C208  C     C_R   0.554449 0.441980 0.781957 -0.022519
C209  C     C_R   0.445549 0.441983 0.218040 -0.022516
C210  C     C_R   0.054451 0.941983 0.781960 -0.022516
C211  C     C_3   0.274856 0.033458 0.240670 -0.500503
C212  C     C_R   0.945548 0.941983 0.218040 -0.022516
C213  C     C_R   0.474629 0.529621 0.817411 -0.240923
C214  C     C_R   0.525372 0.529620 0.182589 -0.240925
C215  C     C_R   0.974628 0.029620 0.817411 -0.240923
C216  C     C_R   0.025372 0.029620 0.182589 -0.240922
C217  C     C_R   0.500181 0.499968 0.866229 -0.057534
C218  C     C_R   0.499819 0.499968 0.133770 -0.057530
C219  C     C_R   0.000181 0.999968 0.866230 -0.057530
C220  C     C_R   0.999819 0.999968 0.133770 -0.057530
C221  C     C_3   0.274114 0.509246 0.728417 -0.471736
C222  C     C_3   0.273777 0.534042 0.808519 -0.131712
C223  C     C_3   0.725886 0.509284 0.271575 -0.471748
C224  C     C_3   0.774114 0.009238 0.728415 -0.471735
C225  C     C_3   0.225886 0.009242 0.271584 -0.471736
C226  C     C_R   0.525858 0.470192 0.869049 -0.229319
C227  C     C_R   0.474141 0.470193 0.130950 -0.229325
C228  C     C_R   0.025859 0.970193 0.869050 -0.229325
C229  C     C_R   0.974141 0.970194 0.130950 -0.229325
C230  C     C_R   1.000000 0.585522 0.500000 0.806518
C231  C     C_R   0.500000 0.085522 0.500000 0.806518
C232  C     C_R   0.079944 0.500005 0.579958 0.818490
Cu1   Cu    Cu3+1 0.500000 0.544470 0.000000 0.974975
Cu2   Cu    Cu3+1 0.541320 0.499970 0.541370 0.957856
Cu3   Cu    Cu3+1 0.958680 0.999970 0.458630 0.957854
Cu4   Cu    Cu3+1 0.041320 0.999970 0.541370 0.957855
Cu5   Cu    Cu3+1 0.000000 0.044470 0.000000 0.974976
Cu6   Cu    Cu3+1 0.500000 0.455530 0.000000 0.941992
Cu7   Cu    Cu3+1 0.000000 0.955530 0.000000 0.941999
Cu8   Cu    Cu3+1 0.999980 0.499850 0.455510 0.954210
Cu9   Cu    Cu3+1 0.000020 0.499850 0.544490 0.954206
Cu10  Cu    Cu3+1 0.499980 0.999850 0.455510 0.954206
Cu11  Cu    Cu3+1 0.500020 0.999850 0.544490 0.954208
Cu12  Cu    Cu3+1 0.458680 0.499970 0.458630 0.957857
H1    H     H_    0.213705 0.486143 0.642987 0.205350
H2    H     H_    0.785309 0.543602 0.341011 0.175796
H3    H     H_    0.285787 0.356264 0.813558 0.215456
H4    H     H_    0.360063 0.330896 0.892208 0.256515
H5    H     H_    0.325312 0.294186 0.886871 0.258461
H6    H     H_    0.357477 0.332692 0.949584 0.256214
H7    H     H_    0.659117 0.414522 0.071178 0.173692
H8    H     H_    0.656723 0.413827 0.127717 0.137141
H9    H     H_    0.716780 0.358328 0.129433 0.228207
H10   H     H_    0.714222 0.356240 0.186584 0.215473
H11   H     H_    0.639947 0.330862 0.107977 0.256516
H12   H     H_    0.674695 0.294126 0.113340 0.258458
H13   H     H_    0.714694 0.043555 0.658955 0.175794
H14   H     H_    0.642520 0.332598 0.050586 0.256218
H15   H     H_    0.840876 0.914623 0.928916 0.173691
H16   H     H_    0.843278 0.913863 0.872386 0.137137
H17   H     H_    0.783214 0.858426 0.870714 0.228216
H18   H     H_    0.785787 0.856268 0.813581 0.215455
H19   H     H_    0.860063 0.830902 0.892238 0.256515
H20   H     H_    0.825311 0.794196 0.886903 0.258463
H21   H     H_    0.857475 0.832707 0.949611 0.256215
H22   H     H_    0.159123 0.914614 0.071092 0.173690
H23   H     H_    0.156722 0.913859 0.127623 0.137136
H24   H     H_    0.285306 0.043558 0.341042 0.175794
H25   H     H_    0.216785 0.858417 0.129298 0.228215
H26   H     H_    0.214214 0.856265 0.186434 0.215456
H27   H     H_    0.139939 0.830898 0.107782 0.256515
H28   H     H_    0.174690 0.794190 0.113117 0.258462
H29   H     H_    0.142524 0.832697 0.050406 0.256215
H30   H     H_    0.157565 0.383979 0.630561 0.176941
H31   H     H_    0.156182 0.414219 0.679817 0.127433
H32   H     H_    0.212166 0.332927 0.716100 0.228246
H33   H     H_    0.210427 0.362798 0.766173 0.212900
H34   H     H_    0.134895 0.343714 0.699079 0.247672
H35   H     H_    0.213543 0.525630 0.781597 0.168252
H36   H     H_    0.166901 0.294766 0.725899 0.259101
H37   H     H_    0.136373 0.313543 0.648684 0.264120
H38   H     H_    0.842446 0.384003 0.369523 0.176937
H39   H     H_    0.843820 0.414208 0.320236 0.127428
H40   H     H_    0.787851 0.332920 0.284032 0.228243
H41   H     H_    0.789574 0.362758 0.233924 0.212908
H42   H     H_    0.865108 0.343683 0.301014 0.247664
H43   H     H_    0.833112 0.294732 0.274244 0.259098
H44   H     H_    0.863647 0.313546 0.351446 0.264122
H45   H     H_    0.657566 0.883976 0.630575 0.176941
H46   H     H_    0.786459 0.525581 0.218387 0.168243
H47   H     H_    0.656182 0.914222 0.679827 0.127435
H48   H     H_    0.712167 0.832928 0.716123 0.228247
H49   H     H_    0.710426 0.862805 0.766190 0.212898
H50   H     H_    0.634894 0.843720 0.699095 0.247675
H51   H     H_    0.666901 0.794772 0.725923 0.259102
H52   H     H_    0.636374 0.813544 0.648706 0.264119
H53   H     H_    0.342435 0.883978 0.369433 0.176941
H54   H     H_    0.343819 0.914220 0.320178 0.127434
H55   H     H_    0.287835 0.832927 0.283890 0.228247
H56   H     H_    0.289574 0.862801 0.233819 0.212899
H57   H     H_    0.713544 0.025639 0.781593 0.168252
H58   H     H_    0.365107 0.843717 0.300915 0.247673
H59   H     H_    0.333101 0.794769 0.274091 0.259101
H60   H     H_    0.363628 0.813544 0.351306 0.264120
H61   H     H_    0.286456 0.025634 0.218405 0.168251
H62   H     H_    0.548599 0.450902 0.686733 0.158579
H63   H     H_    0.451399 0.450904 0.313265 0.158580
H64   H     H_    0.048601 0.950904 0.686735 0.158581
H65   H     H_    0.786292 0.486193 0.357019 0.205350
H66   H     H_    0.951399 0.950905 0.313265 0.158581
H67   H     H_    0.451465 0.548763 0.590576 0.143983
H68   H     H_    0.548536 0.548761 0.409425 0.143984
H69   H     H_    0.951463 0.048761 0.590575 0.143984
H70   H     H_    0.048537 0.048761 0.409425 0.143985
H71   H     H_    0.425629 0.578690 0.634842 0.146178
H72   H     H_    0.574373 0.578686 0.365161 0.146177
H73   H     H_    0.925627 0.078686 0.634839 0.146178
H74   H     H_    0.074374 0.078686 0.365161 0.146178
H75   H     H_    0.426876 0.580212 0.717193 0.146754
H76   H     H_    0.713705 0.986134 0.642989 0.205350
H77   H     H_    0.573127 0.580209 0.282809 0.146751
H78   H     H_    0.926873 0.080209 0.717190 0.146754
H79   H     H_    0.073127 0.080208 0.282810 0.146753
H80   H     H_    0.454612 0.552323 0.815406 0.145838
H81   H     H_    0.545389 0.552321 0.184595 0.145834
H82   H     H_    0.954610 0.052321 0.815405 0.145837
H83   H     H_    0.045390 0.052320 0.184596 0.145837
H84   H     H_    0.545776 0.447596 0.907324 0.141696
H85   H     H_    0.454222 0.447598 0.092674 0.141687
H86   H     H_    0.045778 0.947598 0.907326 0.141687
H87   H     H_    0.286295 0.986138 0.357012 0.205350
H88   H     H_    0.954221 0.947598 0.092673 0.141686
H89   H     H_    0.573617 0.419335 0.865681 0.149156
H90   H     H_    0.426380 0.419338 0.134316 0.149149
H91   H     H_    0.073621 0.919338 0.865684 0.149149
H92   H     H_    0.926379 0.919339 0.134315 0.149148
H93   H     H_    0.285215 0.483680 0.715693 0.176255
H94   H     H_    0.714783 0.483742 0.284319 0.176245
H95   H     H_    0.785214 0.983669 0.715696 0.176257
H96   H     H_    0.214785 0.983675 0.284305 0.176256
H97   H     H_    0.451107 0.360920 0.499915 0.145546
H98   H     H_    0.286160 0.541701 0.728522 0.200602
H99   H     H_    0.548893 0.360920 0.500085 0.145545
H100  H     H_    0.951107 0.860920 0.499914 0.145546
H101  H     H_    0.048893 0.860920 0.500086 0.145546
H102  H     H_    0.575119 0.290451 0.496463 0.147299
H103  H     H_    0.424881 0.290451 0.503537 0.147299
H104  H     H_    0.075119 0.790451 0.496465 0.147300
H105  H     H_    0.924881 0.790451 0.503536 0.147299
H106  H     H_    0.073882 0.709228 0.493919 0.146277
H107  H     H_    0.926118 0.709228 0.506081 0.146276
H108  H     H_    0.573882 0.209228 0.493918 0.146278
H109  H     H_    0.713842 0.541752 0.271443 0.200610
H110  H     H_    0.426118 0.209228 0.506083 0.146277
H111  H     H_    0.045854 0.638765 0.493826 0.144724
H112  H     H_    0.954146 0.638765 0.506174 0.144724
H113  H     H_    0.545854 0.138765 0.493825 0.144724
H114  H     H_    0.454146 0.138765 0.506175 0.144724
H115  H     H_    0.548470 0.638923 0.597961 0.145554
H116  H     H_    0.451529 0.638923 0.402039 0.145553
H117  H     H_    0.048474 0.138923 0.597961 0.145556
H118  H     H_    0.951525 0.138923 0.402039 0.145556
H119  H     H_    0.425655 0.709376 0.345835 0.147299
H120  H     H_    0.786161 0.041692 0.728516 0.200600
H121  H     H_    0.574345 0.709376 0.654165 0.147299
H122  H     H_    0.925647 0.209376 0.345835 0.147295
H123  H     H_    0.074351 0.209376 0.654165 0.147298
H124  H     H_    0.927082 0.290551 0.345799 0.150988
H125  H     H_    0.072915 0.290551 0.654201 0.151007
H126  H     H_    0.427090 0.790551 0.345799 0.151008
H127  H     H_    0.572910 0.790550 0.654201 0.151010
H128  H     H_    0.954421 0.361019 0.401896 0.142794
H129  H     H_    0.045578 0.361019 0.598104 0.142797
H130  H     H_    0.454426 0.861019 0.401896 0.142800
H131  H     H_    0.213839 0.041697 0.271480 0.200601
H132  H     H_    0.545574 0.861019 0.598104 0.142800
H133  H     H_    0.285176 0.427819 0.774739 0.112134
H134  H     H_    0.714829 0.427829 0.225332 0.112135
H135  H     H_    0.785176 0.927817 0.774751 0.112134
H136  H     H_    0.214825 0.927818 0.225256 0.112135
H137  H     H_    0.215045 0.445329 0.764839 0.104473
H138  H     H_    0.784951 0.445295 0.235195 0.104475
H139  H     H_    0.715045 0.945336 0.764846 0.104473
H140  H     H_    0.284955 0.945332 0.235157 0.104473
H141  H     H_    0.284615 0.525477 0.853347 0.169122
H142  H     H_    0.214694 0.543562 0.658961 0.175794
H143  H     H_    0.715387 0.525415 0.146633 0.169118
H144  H     H_    0.784615 0.025487 0.853343 0.169123
H145  H     H_    0.215385 0.025481 0.146654 0.169122
H146  H     H_    0.212153 0.566611 0.737580 0.196581
H147  H     H_    0.787843 0.566592 0.262369 0.196590
H148  H     H_    0.712153 0.066614 0.737570 0.196579
H149  H     H_    0.287846 0.066612 0.262424 0.196580
H150  H     H_    0.340877 0.414609 0.928902 0.173691
H151  H     H_    0.343278 0.413858 0.872371 0.137137
H152  H     H_    0.283216 0.358411 0.870693 0.228215
N1    N     N_1   0.605658 0.387918 0.793718 -0.279222
N2    N     N_1   0.394338 0.387923 0.206278 -0.279224
N3    N     N_1   0.105663 0.887923 0.793722 -0.279223
N4    N     N_1   0.894336 0.887924 0.206277 -0.279223
N5    N     N_1   0.301902 0.614438 0.820043 -0.278886
N6    N     N_1   0.698090 0.614420 0.179846 -0.278879
N7    N     N_1   0.801902 0.114440 0.820023 -0.278887
N8    N     N_1   0.198097 0.114439 0.179965 -0.278886
O1    O     O_R   0.499980 0.537560 0.935110 -0.582113
O2    O     O_R   0.465140 0.499980 0.400260 -0.584553
O3    O     O_R   0.034860 0.999980 0.599740 -0.584552
O4    O     O_R   0.965140 0.999980 0.400260 -0.584553
O5    O     O_R   0.465120 0.564850 0.465070 -0.586789
O6    O     O_R   0.534880 0.564850 0.534930 -0.586789
O7    O     O_R   0.965120 0.064850 0.465070 -0.586790
O8    O     O_R   0.034880 0.064850 0.534930 -0.586790
O9    O     O_R   0.499970 0.462450 0.935080 -0.587485
O10   O     O_R   0.500030 0.462450 0.064920 -0.587485
O11   O     O_R   0.999970 0.962450 0.935080 -0.587483
O12   O     O_R   0.500020 0.537560 0.064890 -0.582116
O13   O     O_R   0.000030 0.962450 0.064920 -0.587483
O14   O     O_R   0.439720 0.537550 0.939720 -0.570712
O15   O     O_R   0.560280 0.537550 0.060280 -0.570711
O16   O     O_R   0.939720 0.037550 0.939720 -0.570712
O17   O     O_R   0.060280 0.037550 0.060280 -0.570712
O18   O     O_R   0.439710 0.462440 0.939690 -0.590229
O19   O     O_R   0.560290 0.462440 0.060310 -0.590234
O20   O     O_R   0.939710 0.962440 0.939690 -0.590228
O21   O     O_R   0.060290 0.962440 0.060310 -0.590229
O22   O     O_R   0.999990 0.564740 0.462430 -0.584215
O23   O     O_R   0.999980 0.037560 0.935110 -0.582115
O24   O     O_R   0.000010 0.564740 0.537570 -0.584215
O25   O     O_R   0.499990 0.064740 0.462430 -0.584216
O26   O     O_R   0.500010 0.064740 0.537570 -0.584215
O27   O     O_R   0.060270 0.499850 0.522700 -0.578544
O28   O     O_R   0.939730 0.499850 0.477300 -0.578546
O29   O     O_R   0.560270 0.999850 0.522700 -0.578544
O30   O     O_R   0.439730 0.999850 0.477300 -0.578544
O31   O     O_R   0.060290 0.499870 0.597820 -0.581611
O32   O     O_R   0.939710 0.499870 0.402180 -0.581609
O33   O     O_R   0.560290 0.999870 0.597820 -0.581612
O34   O     O_R   0.000020 0.037560 0.064890 -0.582116
O35   O     O_R   0.439710 0.999870 0.402180 -0.581614
O36   O     O_R   0.999980 0.434970 0.462420 -0.585938
O37   O     O_R   0.000020 0.434970 0.537580 -0.585941
O38   O     O_R   0.499980 0.934970 0.462420 -0.585940
O39   O     O_R   0.500020 0.934970 0.537580 -0.585940
O40   O     O_R   0.465090 0.435080 0.465060 -0.584655
O41   O     O_R   0.534910 0.435080 0.534940 -0.584656
O42   O     O_R   0.965090 0.935080 0.465060 -0.584656
O43   O     O_R   0.034910 0.935080 0.534940 -0.584656
O44   O     O_3   0.288979 0.441048 0.847412 -0.640830
O45   O     O_R   0.465080 0.499990 0.529910 -0.586858
O46   O     O_3   0.711017 0.440994 0.152637 -0.640829
O47   O     O_3   0.788978 0.941057 0.847421 -0.640830
O48   O     O_3   0.211022 0.941052 0.152584 -0.640830
O49   O     O_3   0.211367 0.418697 0.696375 -0.634551
O50   O     O_3   0.788639 0.418706 0.303686 -0.634547
O51   O     O_3   0.711368 0.918695 0.696387 -0.634552
O52   O     O_3   0.288633 0.918696 0.303620 -0.634551
O53   O     O_R   0.534920 0.499990 0.470090 -0.586860
O54   O     O_R   0.965080 0.999990 0.529910 -0.586859
O55   O     O_R   0.034920 0.999990 0.470090 -0.586860
O56   O     O_R   0.534860 0.499980 0.599740 -0.584552

loop_
_geom_bond_atom_site_label_1
_geom_bond_atom_site_label_2
_ccdc_geom_bond_type
C179  C209  A    
C223  H109  S    
C126  C127  S    
C225  H96   S    
C18   C21   A    
C36   C42   A    
Cu6   O10   S    
C8    O41   A    
C139  H47   S    
C185  C190  A    
C117  C210  S    
C13   C200  S    
C131  H29   S    
C232  O27   A    
C59   C66   A    
C130  H26   S    
C86   C88   A    
C143  C144  S    
C133  H33   S    
C60   C62   A    
C89   C94   A    
C125  H11   S    
C37   H104  S    
C152  C157  A    
C24   C211  S    
C204  C208  A    
Cu7   O21   S    
C145  N5    T    
C173  O14   A    
C105  H142  S    
C120  H3    S    
C151  C155  A    
C13   C103  S    
C136  H38   S    
C20   H101  S    
C35   C109  S    
C80   C84   A    
C217  C226  A    
C47   C53   A    
Cu10  O29   S    
C119  H151  S    
C58   C61   A    
C53   C55   A    
C153  C180  A    
C101  C103  S    
C133  H32   S    
Cu5   O17   S    
C163  H70   S    
C38   H105  S    
C132  O49   S    
C143  H56   S    
C190  C194  A    
C29   C69   S    
C5    O30   A    
C15   O5    A    
C134  H37   S    
C165  C183  A    
C166  C184  A    
C140  C141  S    
C76   H122  S    
C14   O4    A    
C78   H124  S    
C17   C21   A    
Cu5   O16   S    
C24   H145  S    
C116  C209  S    
Cu1   O1    S    
C28   C67   S    
C152  H63   S    
C15   C61   S    
C200  H57   S    
C180  C210  A    
C175  O20   A    
C50   H111  S    
C117  N3    T    
C60   C65   A    
C118  N4    T    
C182  H71   S    
C46   C110  S    
C221  H93   S    
C199  C204  A    
C139  O51   S    
C167  O34   A    
C74   C81   A    
C160  C164  A    
C139  H45   S    
Cu8   O27   S    
C11   C157  S    
C11   O53   A    
C201  C227  A    
C66   C77   A    
Cu1   O14   S    
Cu7   O20   S    
Cu2   O41   S    
C229  H88   S    
C225  H131  S    
C139  C140  S    
C91   H129  S    
C106  H65   S    
C63   C74   A    
C31   H136  S    
C17   C25   A    
C130  C131  S    
Cu8   O36   S    
C91   C94   A    
C194  C216  A    
C141  H50   S    
C57   C111  S    
C100  C221  S    
C28   O44   S    
C29   C102  S    
Cu4   O55   S    
C75   H121  S    
C25   C36   A    
C122  H8    S    
Cu10  O35   S    
C127  H17   S    
C231  O25   A    
C41   C45   A    
C28   H133  S    
C215  H82   S    
C161  C165  A    
C129  H22   S    
C44   C48   A    
Cu2   Cu12  S    
C34   H102  S    
C169  C195  A    
C35   C96   T    
C27   C33   A    
C220  C229  A    
C216  H83   S    
C76   C78   A    
C178  H146  S    
C151  C177  A    
C222  H141  S    
C174  O19   A    
C2    C102  S    
C129  O48   S    
C128  H19   S    
C153  C158  A    
C108  H24   S    
C90   C102  S    
C123  H10   S    
C160  H67   S    
C142  O52   S    
C109  C178  S    
C156  O11   A    
C131  H28   S    
C137  H40   S    
C56   C64   A    
C213  H80   S    
C172  C198  A    
C205  C209  A    
C219  C228  A    
C156  C219  S    
C156  O23   A    
C18   H99   S    
Cu4   O8    S    
C31   C71   S    
C93   C95   A    
C115  C208  S    
Cu12  O5    S    
C178  H35   S    
C169  C177  A    
Cu9   O31   S    
C85   C92   A    
C193  C215  A    
C195  C199  A    
C83   C89   A    
C214  H81   S    
C211  H149  S    
C214  C218  A    
C140  H49   S    
C141  H52   S    
C202  C228  A    
C45   C52   A    
C6    C94   S    
C2    C147  S    
C10   O56   A    
C138  H43   S    
C5    O35   A    
C106  H2    S    
C114  C211  S    
C86   C93   A    
C111  C200  S    
C69   C110  S    
C206  C210  A    
C26   C33   A    
C106  C223  S    
C128  H21   S    
C23   C34   A    
C188  H78   S    
C197  C202  A    
C183  H72   S    
C63   C72   A    
Cu6   O18   S    
C6    O37   A    
C105  H1    S    
C187  C192  A    
C17   H97   S    
C154  H66   S    
C144  H59   S    
C84   C91   A    
C188  C193  A    
C67   H137  S    
C31   O48   S    
Cu11  O30   S    
C29   O46   S    
Cu11  O39   S    
C120  C121  S    
C44   C51   A    
C129  C130  S    
C85   C88   A    
C105  C109  S    
C112  C218  S    
C221  H98   S    
C56   C61   A    
C107  C111  S    
C126  O47   S    
C216  C220  A    
C136  C137  S    
Cu5   O34   S    
C75   C82   A    
C93   H132  S    
C79   C124  T    
Cu7   O13   S    
C177  C208  A    
C14   C159  S    
C107  H13   S    
C134  H36   S    
C31   C104  S    
Cu12  O2    S    
C163  C168  A    
C89   H128  S    
C154  C159  A    
C227  H85   S    
C170  C196  A    
C90   C135  T    
Cu12  O40   S    
C12   O3    A    
C121  H6    S    
C194  C198  A    
C142  H53   S    
C105  C221  S    
Cu8   Cu9   S    
C64   C75   A    
C199  C226  A    
C191  C195  A    
C32   C49   A    
C148  N7    T    
Cu1   O12   S    
C211  H61   S    
C104  C113  S    
C40   C44   A    
C15   O6    A    
C10   O45   A    
C224  H95   S    
C201  C205  A    
C67   O49   S    
C196  C201  A    
C54   C230  S    
C81   C85   A    
C107  H76   S    
C83   C87   A    
C167  O13   A    
C11   O2    A    
C53   H114  S    
Cu8   O32   S    
C14   O55   A    
C16   O7    A    
C2    H143  S    
C153  H64   S    
C143  H55   S    
C104  C225  S    
Cu4   O43   S    
C187  H77   S    
Cu6   O9    S    
C50   C54   A    
C65   C76   A    
C126  H15   S    
C181  C212  A    
C192  C196  A    
C36   H103  S    
Cu11  O33   S    
C69   H138  S    
C107  C224  S    
Cu9   O24   S    
C230  O24   A    
C123  C125  S    
C108  C225  S    
Cu12  O45   S    
C27   C38   A    
C154  C181  A    
C182  C186  A    
C108  C114  S    
C186  C191  A    
C73   C87   A    
C162  C166  A    
C78   C83   A    
C5    C99   S    
C30   C103  S    
Cu3   Cu4   S    
C2    C189  S    
C52   C55   A    
C226  H84   S    
Cu9   O37   S    
C155  C160  A    
C34   C41   A    
C190  H79   S    
Cu3   O4    S    
C113  C150  T    
C30   C70   S    
C102  C223  S    
C174  O15   A    
C134  H34   S    
C135  C174  S    
C55   C231  S    
C3    O28   A    
C189  H147  S    
C130  H25   S    
C145  C222  S    
C9    O43   A    
C132  H31   S    
C71   C114  S    
C10   C155  S    
C125  H12   S    
Cu1   Cu6   S    
C115  N1    T    
C183  C187  A    
C103  C224  S    
C140  H48   S    
C79   C100  S    
C7    O38   A    
C45   C49   A    
C4    O29   A    
C146  C175  S    
C161  H68   S    
Cu10  Cu11  S    
C43   C50   A    
C30   H135  S    
Cu2   O53   S    
C112  O10   A    
C46   C97   T    
C20   C22   A    
C133  C134  S    
C127  C128  S    
C157  C161  A    
C218  C227  A    
C77   C80   A    
C144  H58   S    
C165  C170  A    
C92   H130  S    
C206  H91   S    
C151  H62   S    
C230  O22   A    
C119  C120  S    
C127  H18   S    
C26   C37   A    
C120  H152  S    
C170  C179  A    
C110  C189  S    
C136  O50   S    
C23   C32   A    
C152  C179  A    
C37   C39   A    
C82   C86   A    
C191  C213  A    
C38   C40   A    
C122  O46   S    
C57   C98   T    
Cu11  O26   S    
C128  H20   S    
C9    C22   S    
C123  H9    S    
C232  O31   A    
C164  C182  A    
C70   C111  S    
C80   H125  S    
C168  C172  A    
C131  H27   S    
C119  O44   S    
C198  C203  A    
C33   C48   A    
C142  C143  S    
C1    C217  S    
Cu8   O22   S    
C6    O36   A    
Cu2   O6    S    
C150  C176  S    
C3    O32   A    
Cu1   O15   S    
C39   H106  S    
C4    C98   S    
C173  O18   A    
C30   O47   S    
C84   C87   A    
C29   H134  S    
C9    O42   A    
C60   H118  S    
C47   C49   A    
C70   O51   S    
C116  N2    T    
C215  C219  A    
C69   O50   S    
C71   H140  S    
C141  H51   S    
C147  N6    T    
C58   H116  S    
C40   H107  S    
C207  H92   S    
Cu5   Cu7   S    
C138  H44   S    
C65   C73   A    
Cu3   O54   S    
C118  C212  S    
C51   H112  S    
C136  H39   S    
C3    C97   S    
C184  H73   S    
C112  O12   A    
C122  H7    S    
C223  H94   S    
C228  H86   S    
C67   C109  S    
C231  O26   A    
C56   H115  S    
C149  N8    T    
C100  C222  S    
Cu4   O3    S    
C19   C27   A    
Cu6   O19   S    
C129  H23   S    
C28   C100  S    
C25   C32   A    
C64   C72   A    
C166  C171  A    
C119  H150  S    
C164  C169  A    
C16   C62   S    
Cu9   O28   S    
C175  O16   A    
C172  C181  A    
C192  C214  A    
C72   C88   A    
C13   H144  S    
C121  H4    S    
C52   H113  S    
C101  C146  T    
C18   C23   A    
C19   C22   A    
C203  C229  A    
C213  C217  A    
C132  C133  S    
C39   C43   A    
C124  C173  S    
C66   C73   A    
C203  C207  A    
C92   C95   A    
C184  C188  A    
C24   C104  S    
C70   H139  S    
C162  H69   S    
C121  H5    S    
Cu10  O38   S    
C137  H41   S    
C142  H54   S    
C132  H30   S    
C8    C21   S    
C224  H120  S    
C71   O52   S    
C8    O40   A    
C59   H117  S    
Cu3   O42   S    
C7    O39   A    
C82   H127  S    
C42   H110  S    
C207  C212  A    
C159  C163  A    
C171  C180  A    
C41   H108  S    
Cu2   O56   S    
C176  O21   A    
C167  C220  S    
C204  H89   S    
C43   C48   A    
C58   C63   A    
C77   H123  S    
C59   C62   A    
C168  C185  A    
C74   H119  S    
C125  H14   S    
Cu3   O7    S    
Cu5   O23   S    
C81   H126  S    
C16   O8    A    
C1    O1    A    
C12   O54   A    
C4    O33   A    
C7    C95   S    
C137  C138  S    
C138  H42   S    
C126  H16   S    
C51   C54   A    
C12   C158  S    
C68   C99   T    
C171  C197  A    
C144  H60   S    
C20   C26   A    
C193  C197  A    
C1    O9    A    
C108  H87   S    
C42   C47   A    
C96   C232  S    
C200  H148  S    
C24   C149  S    
C158  C162  A    
C189  H46   S    
C185  H74   S    
C106  C110  S    
C19   H100  S    
C202  C206  A    
C186  H75   S    
Cu7   O11   S    
C178  C222  S    
C13   C148  S    
C122  C123  S    
C205  H90   S    
Cu10  O25   S    
C176  O17   A    
C68   C114  S    
