data_mof_unit_10754.cif
_audit_creation_date              2013-03-05T16:48:44-0500
_audit_creation_method            fapswitch 2.2
_symmetry_space_group_name_H-M    P1
_symmetry_Int_Tables_number       1
_space_group_crystal_system       triclinic
_cell_length_a                    27.588597
_cell_length_b                    8.915662
_cell_length_c                    8.096152
_cell_angle_alpha                 90.124963
_cell_angle_beta                  90.008127
_cell_angle_gamma                 90.001792
_cell_volume                      1991.41065551

loop_
_atom_site_label
_atom_site_type_symbol
_atom_site_description
_atom_site_fract_x
_atom_site_fract_y
_atom_site_fract_z
_atom_type_partial_charge
O1    O     O_R   0.500000 0.285350 0.636850 -0.593656
O2    O     O_R   0.500000 0.714650 0.363150 -0.607131
O3    O     O_R   0.500000 0.714650 0.636850 -0.618217
O4    O     O_R   0.500000 0.285350 0.363150 -0.623240
C1    C     C_R   0.500020 0.217983 0.499873 0.985744
C2    C     C_R   0.500002 0.782021 0.500111 0.961351
O5    O     O_R   0.428760 0.500000 0.636860 -0.595043
O6    O     O_R   0.571240 0.500000 0.363140 -0.598023
O7    O     O_R   0.571240 0.500000 0.636860 -0.594267
O8    O     O_R   0.428760 0.500000 0.363140 -0.598621
C3    C     C_R   0.405893 0.499401 0.500035 1.041551
C4    C     C_R   0.594113 0.499266 0.500060 1.040554
Zn1   Zn    Zn3+2 0.500000 0.500000 0.682780 1.099154
Zn2   Zn    Zn3+2 0.500000 0.500000 0.317220 1.091669
C5    C     C_R   0.178583 0.371318 0.370368 0.634343
C6    C     C_R   0.821557 0.454036 0.650788 0.628882
C7    C     C_R   0.178504 0.453565 0.651017 0.628921
C8    C     C_R   0.821419 0.370230 0.370694 0.634578
O9    O     O_2   0.203743 0.338313 0.231984 -0.474316
O10   O     O_2   0.796511 0.501714 0.784208 -0.475909
O11   O     O_2   0.203585 0.500355 0.784761 -0.476582
O12   O     O_2   0.796225 0.336260 0.232635 -0.473458
N1    N     N_R   0.202371 0.421267 0.507660 -0.317464
N2    N     N_R   0.797654 0.420885 0.507702 -0.317536
C9    C     C_R   0.273224 0.576989 0.447516 0.383996
C10   C     C_R   0.716218 0.324030 0.557617 0.393556
C11   C     C_R   0.283828 0.323105 0.553891 0.393455
C12   C     C_R   0.726766 0.575230 0.443789 0.383905
C13   C     C_R   0.323494 0.597054 0.445968 0.281857
C14   C     C_R   0.666042 0.344058 0.557692 0.275591
C15   C     C_R   0.334010 0.343010 0.553891 0.275332
C16   C     C_R   0.676500 0.595368 0.442232 0.282684
C17   C     C_R   0.253663 0.440261 0.501722 -0.030280
C18   C     C_R   0.746357 0.439818 0.501729 -0.029737
C19   C     C_R   0.102391 0.391588 0.517902 -0.042144
C20   C     C_R   0.897646 0.391439 0.517951 -0.042200
C21   C     C_R   0.128131 0.355335 0.372948 -0.047597
C22   C     C_R   0.871970 0.439605 0.658755 -0.044929
C23   C     C_R   0.128090 0.439177 0.658922 -0.044615
C24   C     C_R   0.871882 0.354534 0.373214 -0.047974
C25   C     C_R   0.103135 0.305360 0.233782 -0.117755
C26   C     C_R   0.896979 0.473851 0.803488 -0.117128
C27   C     C_R   0.103101 0.472844 0.803828 -0.117400
C28   C     C_R   0.896863 0.304198 0.234195 -0.117342
C29   C     C_R   0.353689 0.480258 0.500361 -0.359006
C30   C     C_R   0.646328 0.480038 0.500454 -0.358654
H1    H     H_    0.122224 0.274805 0.121683 0.200763
H2    H     H_    0.877927 0.509562 0.913835 0.203337
H3    H     H_    0.122170 0.508059 0.914346 0.202963
H4    H     H_    0.877759 0.273188 0.122250 0.201179
C31   C     C_R   0.974294 0.336139 0.376782 0.045595
C32   C     C_R   0.025735 0.422126 0.667776 0.047071
C33   C     C_R   0.974321 0.422325 0.667720 0.046896
C34   C     C_R   0.025728 0.336370 0.376693 0.045767
C35   C     C_R   0.948975 0.382421 0.521121 0.087045
C36   C     C_R   0.051064 0.382483 0.521090 0.087048
C37   C     C_R   0.946992 0.294605 0.235692 -0.216284
C38   C     C_R   0.053001 0.464196 0.808734 -0.219480
C39   C     C_R   0.947075 0.465105 0.808444 -0.219456
C40   C     C_R   0.053012 0.295474 0.235367 -0.216270
H5    H     H_    0.962969 0.255411 0.122446 0.147890
H6    H     H_    0.037031 0.493514 0.925503 0.147318
H7    H     H_    0.963060 0.495135 0.924998 0.147640
H8    H     H_    0.037020 0.256745 0.121944 0.147603
C41   C     C_1   0.500020 0.065219 0.499810 -0.058451
C42   C     C_1   0.500012 0.934786 0.500151 -0.073482
N3    N     N_1   0.500000 0.500000 0.073640 0.002403
N4    N     N_1   0.500000 0.500000 0.926360 0.004348
Cl1   Cl    Cl    0.372103 0.194157 0.617172 -0.461436
Cl2   Cl    Cl    0.651488 0.766511 0.372385 -0.415538
Cl3   Cl    Cl    0.348500 0.769712 0.380787 -0.413956
Cl4   Cl    Cl    0.628002 0.196682 0.625412 -0.461657
Cl5   Cl    Cl    0.258173 0.151586 0.618925 -0.369935
Cl6   Cl    Cl    0.765686 0.719643 0.375764 -0.402366
Cl7   Cl    Cl    0.234269 0.722991 0.383986 -0.401350
Cl8   Cl    Cl    0.741901 0.153961 0.627015 -0.372103

loop_
_geom_bond_atom_site_label_1
_geom_bond_atom_site_label_2
_geom_bond_distance
_ccdc_geom_bond_type
C38   H6    1.074827 S    
C19   C23   1.408501 A    
O3    C2    1.260663 A    
C12   Cl6   1.765555 S    
C33   C39   1.416649 A    
C34   C40   1.416741 A    
C11   C17   1.401388 A    
O5    C3    1.274718 A    
C7    N1    1.364675 A    
C2    C42   1.361998 S    
O1    C1    1.260034 A    
C19   C21   1.408772 A    
C22   C26   1.393031 A    
C9    C13   1.398411 A    
C7    C23   1.398257 A    
C8    C24   1.399377 A    
C5    C21   1.399351 A    
C20   C24   1.408797 A    
O7    Zn1   2.000314 S    
C27   C38   1.384899 A    
C10   C18   1.401394 A    
N1    C17   1.425979 S    
C10   Cl8   1.766487 S    
Zn2   N3    1.972061 S    
C31   C37   1.416759 A    
O3    Zn1   1.950335 S    
C6    O10   1.350247 S    
C5    N1    1.364609 A    
C12   C18   1.404336 A    
C6    N2    1.364731 A    
O4    Zn2   1.950336 S    
O2    C2    1.259939 A    
C33   C35   1.422018 A    
C23   C27   1.392998 A    
C34   C36   1.421945 A    
C11   C15   1.395759 A    
N3    N4    1.192400 T    
C12   C16   1.398405 A    
C4    C30   1.450723 S    
O8    Zn2   2.000317 S    
C27   H3    1.083786 S    
C16   Cl2   1.768573 S    
C7    O11   1.350223 S    
C13   C29   1.405037 A    
C9    Cl7   1.765463 S    
C5    O9    1.349980 S    
C15   Cl1   1.769492 S    
O5    Zn1   2.000213 S    
C28   C37   1.385670 A    
O6    C4    1.275503 A    
C25   H1    1.083656 S    
C26   H2    1.083827 S    
C32   C38   1.416611 A    
C1    C41   1.361997 S    
C10   C14   1.395769 A    
C8    N2    1.364642 A    
C3    C29   1.450335 S    
O1    Zn1   1.948743 S    
C32   C33   1.418450 A    
C28   H4    1.083705 S    
O6    Zn2   2.000211 S    
C19   C36   1.418596 A    
C8    O12   1.349997 S    
C16   C30   1.405183 A    
C14   C30   1.408107 A    
C25   C40   1.385687 A    
O4    C1    1.260530 A    
C26   C39   1.384881 A    
C14   Cl4   1.769660 S    
C37   H5    1.075057 S    
C39   H7    1.074888 S    
C40   H8    1.075001 S    
C31   C34   1.419005 A    
C20   C22   1.408499 A    
C20   C35   1.418594 A    
C31   C35   1.421952 A    
C21   C25   1.393241 A    
O2    Zn2   1.948742 S    
O7    C4    1.274789 A    
N2    C18   1.426085 S    
O8    C3    1.275387 A    
C24   C28   1.393286 A    
C41   C42   1.162908 T    
C15   C29   1.407921 A    
C6    C22   1.398261 A    
C11   Cl5   1.766418 S    
C32   C36   1.421983 A    
C9    C17   1.404361 A    
C13   Cl3   1.768515 S    
Zn1   N4    1.972061 S    
