data_mof_unit_63901.cif
_audit_creation_date              2012-12-11T17:22:53-0500
_audit_creation_method            fapswitch 2.2
_symmetry_space_group_name_H-M    P1
_symmetry_Int_Tables_number       1
_space_group_crystal_system       triclinic
_cell_length_a                    8.221817
_cell_length_b                    16.470023
_cell_length_c                    27.05657
_cell_angle_alpha                 95.976118
_cell_angle_beta                  92.869544
_cell_angle_gamma                 86.525989
_cell_volume                      3633.68336476

loop_
_atom_site_label
_atom_site_type_symbol
_atom_type_description
_atom_site_fract_x
_atom_site_fract_y
_atom_site_fract_z
_atom_type_partial_charge
Ba1   Ba    Ba6+2 0.851940 0.461560 0.523510 1.653060
Ba2   Ba    Ba6+2 0.337880 0.538370 0.476480 1.656227
C1    C     C_3   0.643866 0.164049 0.650098 -0.357877
C2    C     C_3   0.645474 0.248558 0.632377 0.332625
C3    C     C_3   0.523402 0.661002 0.627161 0.310277
C4    C     C_3   0.517835 0.687010 0.682692 -0.362923
C5    C     C_3   0.041194 0.727833 0.339944 0.345207
C6    C     C_3   0.056788 0.754382 0.288263 -0.354899
C7    C     C_3   0.510988 0.757769 0.358330 0.375840
C8    C     C_3   0.477156 0.835107 0.332434 -0.364206
C9    C     C_R   0.100370 0.494301 0.190898 0.589695
C10   C     C_R   0.817390 0.518911 0.168806 0.579906
C11   C     C_2   0.791262 0.578198 0.276464 -0.087082
C12   C     C_3   0.149113 0.282981 0.659122 0.320148
C13   C     C_3   0.761583 0.593914 0.331430 -0.096246
C14   C     C_1   0.973809 0.485559 0.344117 0.024394
C15   C     C_2   0.994115 0.469261 0.295547 -0.087630
C16   C     C_2   0.903788 0.520055 0.258547 0.202667
C17   C     C_R   0.014487 0.500150 0.103319 -0.076250
C18   C     C_R   0.137276 0.485245 0.139914 -0.045242
C19   C     C_R   0.295382 0.462302 0.124906 -0.042673
C20   C     C_R   0.854204 0.519146 0.118229 -0.030699
C21   C     C_2   0.859767 0.537762 0.363103 -0.263927
C22   C     C_2   0.344268 0.475041 0.641793 -0.284612
C23   C     C_3   0.132982 0.261989 0.711979 -0.332698
C24   C     C_R   0.251270 0.469962 0.985995 0.022492
C25   C     C_R   0.965850 0.512264 0.964354 0.014178
C26   C     C_R   0.127422 0.489710 0.949846 0.052791
C27   C     C_R   0.409867 0.447986 0.969298 -0.111356
C28   C     C_R   0.447051 0.450060 0.919859 -0.075223
C29   C     C_R   0.327188 0.471361 0.884203 -0.025442
C30   C     C_R   0.166171 0.487566 0.898589 -0.076304
C31   C     C_R   0.044603 0.502547 0.861755 -0.047482
C32   C     C_R   0.084065 0.495625 0.810859 0.591018
C33   C     C_R   0.366848 0.478041 0.834614 0.583563
C34   C     C_3   0.176955 0.289639 0.417727 0.310573
C35   C     C_2   0.429905 0.448097 0.726876 -0.104510
C36   C     C_3   0.487947 0.469808 0.678098 -0.031370
C37   C     C_1   0.213781 0.518378 0.657988 0.027648
C38   C     C_2   0.180788 0.528717 0.706371 -0.075458
C39   C     C_2   0.288720 0.485934 0.744387 0.179333
C40   C     C_R   0.213401 0.473216 0.037245 0.016329
C41   C     C_R   0.052031 0.496232 0.051862 0.052732
C42   C     C_R   0.927875 0.515556 0.015681 0.022076
C43   C     C_R   0.331965 0.454886 0.074870 -0.112016
C44   C     C_R   0.733446 0.538459 0.082316 -0.076821
C45   C     C_3   0.181900 0.197388 0.404917 -0.382272
C46   C     C_R   0.848073 0.531144 0.926598 -0.109195
C47   C     C_R   0.885867 0.524526 0.876557 -0.041993
C48   C     C_R   0.769398 0.537733 0.032472 -0.110919
C49   C     C_R   0.386250 0.266933 0.520631 -0.292233
C50   C     C_R   0.525234 0.240902 0.494871 0.030640
C51   C     C_R   0.577456 0.157894 0.490261 -0.126061
C52   C     C_R   0.488275 0.100195 0.511313 0.247276
C53   C     C_R   0.343873 0.127516 0.535401 -0.166645
C54   C     C_R   0.292047 0.210620 0.539329 -0.009727
C55   C     C_R   0.619251 0.852568 0.506754 -0.117469
C56   C     C_3   0.021643 0.709565 0.579468 0.290009
C57   C     C_R   0.667812 0.769465 0.503303 0.005296
C58   C     C_R   0.709688 0.908026 0.484120 0.254583
C59   C     C_R   0.802461 0.740156 0.476485 -0.283772
C60   C     C_R   0.900133 0.793921 0.457004 -0.013250
C61   C     C_R   0.852854 0.877834 0.459975 -0.164699
C62   C     C_3   0.025805 0.802385 0.590062 -0.280674
C63   C     C_3   0.663283 0.363669 0.375925 0.306998
C64   C     C_3   0.658550 0.345151 0.319639 -0.367733
H1    H     H_    0.742293 0.247443 0.605138 0.108147
H2    H     H_    0.261681 0.179517 0.373202 0.124728
H3    H     H_    0.230339 0.165883 0.437185 0.062840
H4    H     H_    0.056952 0.177421 0.394654 0.127420
H5    H     H_    0.897425 0.692032 0.567617 -0.012987
H6    H     H_    0.104457 0.689845 0.548907 0.077945
H7    H     H_    0.001114 0.831593 0.555208 0.033281
H8    H     H_    0.148814 0.818795 0.605311 0.099804
H9    H     H_    0.787575 0.379624 0.389120 -0.000091
H10   H     H_    0.576246 0.416386 0.385443 0.084936
H11   H     H_    0.763246 0.148031 0.668732 0.144086
H12   H     H_    0.752361 0.296099 0.308650 0.112067
H13   H     H_    0.682806 0.400739 0.301979 0.082489
H14   H     H_    0.536176 0.325086 0.306100 0.142282
H15   H     H_    0.525190 0.262854 0.614052 -0.045252
H16   H     H_    0.621525 0.118009 0.617867 0.089206
H17   H     H_    0.398466 0.646790 0.612858 0.016081
H18   H     H_    0.606676 0.605473 0.621362 0.044197
H19   H     H_    0.436812 0.743146 0.689348 0.130980
H20   H     H_    0.469817 0.638034 0.702056 0.055810
H21   H     H_    0.642369 0.699531 0.698323 0.139078
H22   H     H_    0.545551 0.162868 0.676676 0.115399
H23   H     H_    0.194759 0.307359 0.738618 0.076758
H24   H     H_    0.082830 0.662233 0.339285 0.066975
H25   H     H_    0.911035 0.736671 0.348941 -0.055570
H26   H     H_    0.184036 0.742910 0.276407 0.158993
H27   H     H_    0.975448 0.719216 0.261109 0.065615
H28   H     H_    0.645295 0.749452 0.363834 -0.094491
H29   H     H_    0.457567 0.766641 0.395504 0.091269
H30   H     H_    0.533513 0.887245 0.354937 0.076780
H31   H     H_    0.344175 0.849640 0.328007 0.149687
H32   H     H_    0.092296 0.345357 0.656461 0.083191
H33   H     H_    0.530326 0.826930 0.295187 0.107562
H34   H     H_    0.067917 0.415297 0.282210 0.105473
H35   H     H_    0.392087 0.448637 0.151968 0.163363
H36   H     H_    0.507600 0.407644 0.748062 0.150070
H37   H     H_    0.570775 0.433045 0.909344 0.116778
H38   H     H_    0.509818 0.429276 0.993475 0.071464
H39   H     H_    0.455807 0.434861 0.067179 0.073879
H40   H     H_    0.730357 0.620415 0.252460 0.114343
H41   H     H_    0.610026 0.556218 0.092875 0.117987
H42   H     H_    0.724440 0.551610 0.934297 0.077822
H43   H     H_    0.280820 0.282416 0.651846 -0.051044
H44   H     H_    0.790522 0.539352 0.849400 0.170372
H45   H     H_    0.086704 0.574265 0.718723 0.117151
H46   H     H_    0.668952 0.555066 0.008056 0.071527
H47   H     H_    0.842065 0.546565 0.402803 0.082582
H48   H     H_    0.333252 0.429443 0.609982 0.061258
H49   H     H_    0.514007 0.873534 0.528039 0.108384
H50   H     H_    0.270879 0.083991 0.550284 0.093489
H51   H     H_    0.685119 0.138776 0.469687 0.110731
H52   H     H_    0.928735 0.919636 0.444657 0.089116
H53   H     H_    0.345836 0.330925 0.523443 0.074847
H54   H     H_    0.002144 0.263121 0.720609 0.155235
H55   H     H_    0.839469 0.675763 0.474634 0.065142
H56   H     H_    0.190343 0.200174 0.716274 0.111630
H57   H     H_    0.099738 0.305714 0.450202 0.067604
N1    N     N_R   0.940661 0.510071 0.205393 -0.425754
N2    N     N_R   0.245738 0.485731 0.797026 -0.420268
N3    N     N_2   0.535350 0.014787 0.508082 -0.233304
N4    N     N_2   0.665190 0.993841 0.486709 -0.232775
O1    O     O_2   0.915540 0.542930 0.617950 -0.455767
O2    O     O_3   0.621173 0.294220 0.397107 -0.633467
O3    O     O_3   0.069979 0.225336 0.625781 -0.598108
O4    O     O_2   0.274150 0.457040 0.382020 -0.453335
O5    O     O_3   0.042160 0.457070 0.442220 -0.498539
O6    O     O_3   0.525310 0.603770 0.411640 -0.482999
O7    O     O_3   0.113319 0.326600 0.376262 -0.635815
O8    O     O_3   0.637620 0.597020 0.524620 -0.474823
O9    O     O_3   0.118810 0.645070 0.435950 -0.483903
O10   O     O_2   0.237524 0.790059 0.467493 -0.484665
O11   O     O_3   0.137223 0.775544 0.374532 -0.595895
O12   O     O_3   0.147530 0.542870 0.557780 -0.489784
O13   O     O_3   0.552080 0.402920 0.475380 -0.488802
O14   O     O_2   0.387280 0.697260 0.523450 -0.460565
O15   O     O_3   0.580219 0.725293 0.603827 -0.628802
O16   O     O_2   0.444026 0.529830 0.322148 -0.432885
O17   O     O_3   0.441972 0.690985 0.329512 -0.580127
O18   O     O_2   0.211708 0.489597 0.222280 -0.564536
O19   O     O_2   0.510462 0.479579 0.825634 -0.614420
O20   O     O_2   0.674749 0.525583 0.180004 -0.598020
O21   O     O_2   0.973343 0.497533 0.779153 -0.575326
O22   O     O_3   0.664390 0.396160 0.588360 -0.494378
O23   O     O_2   0.827243 0.439505 0.672983 -0.435521
O24   O     O_3   0.071089 0.673569 0.622749 -0.642417
O25   O     O_3   0.676410 0.306026 0.673289 -0.606220
O26   O     O_2   0.802410 0.302720 0.476520 -0.460333
O27   O     O_3   0.070880 0.354870 0.564040 -0.491394
O28   O     O_2   0.952890 0.209848 0.533892 -0.485581
P1    P     P_3+3 0.086060 0.566890 0.610430 0.994408
P2    P     P_3+3 0.625290 0.314770 0.461990 0.986092
P3    P     P_3+3 0.096143 0.248766 0.565149 0.943970
P4    P     P_3+3 0.103630 0.433040 0.389570 0.992905
P5    P     P_3+3 0.098217 0.751751 0.434144 0.949786
P6    P     P_3+3 0.663723 0.404085 0.653179 0.985736
P7    P     P_3+3 0.572117 0.699223 0.539456 0.957595
P8    P     P_3+3 0.542149 0.601352 0.347443 0.996226
C65   C     C_1   0.903521 0.834823 0.625760 0.324580
N5    N     N_1   0.807146 0.860517 0.653895 -0.272372
H58   H     H_    0.021342 0.820530 0.288253 0.108463
H59   H     H_    0.302021 0.308797 0.426807 0.004727

loop_
_geom_bond_atom_site_label_1
_geom_bond_atom_site_label_2
_ccdc_geom_bond_type
C25   C46   A    
C12   H43   S    
C53   C54   A    
C22   H48   S    
N3    N4    D    
C8    H31   S    
C9    N1    Am   
Ba1   O1    S    
C62   C65   S    
Ba1   O5    S    
O2    P2    S    
C5    C6    S    
C55   H49   S    
C51   C52   A    
C56   O24   S    
C64   H13   S    
C52   N3    S    
C60   C61   A    
C63   H10   S    
C11   C16   D    
C58   C61   A    
Ba2   O12   S    
C10   O20   D    
C13   P8    S    
C65   N5    T    
C35   C36   S    
O27   P3    S    
C3    C4    S    
C3    H17   S    
C51   H51   S    
C56   H5    S    
C55   C57   A    
C53   H50   S    
C31   C47   A    
C22   C36   S    
C10   C20   A    
C22   C37   D    
C34   C45   S    
C59   H55   S    
C49   C54   A    
C12   H32   S    
C33   N2    Am   
C45   H3    S    
C54   P3    S    
C32   O21   D    
C25   C42   A    
C36   P6    S    
C2    H15   S    
C17   C18   A    
C17   C41   A    
Ba2   P4    S    
C28   H37   S    
C49   H53   S    
C62   H7    S    
Ba1   O22   S    
C6    H26   S    
C23   H56   S    
C7    H29   S    
O25   P6    S    
Ba1   O12   S    
C19   H35   S    
C13   C21   S    
O7    P4    S    
O14   P7    D    
C14   P4    S    
O26   P2    D    
C8    H33   S    
C2    O25   S    
O6    P8    S    
C7    C8    S    
O16   P8    D    
C7    O17   S    
C43   H39   S    
Ba2   O4    S    
C38   H45   S    
C19   C43   A    
C56   C62   S    
C64   H12   S    
C9    C18   A    
C57   C59   A    
O5    P4    S    
C49   C50   A    
Ba2   O6    S    
C39   N2    S    
C26   C30   A    
C17   C20   A    
C37   C38   D    
C61   H52   S    
O1    P1    D    
C14   C15   D    
C55   C58   A    
C5    O11   S    
C5    H24   S    
C34   H59   S    
Ba2   O9    S    
C35   H36   S    
C27   H38   S    
C33   O19   D    
Ba1   P1    S    
O4    P4    D    
C41   C42   A    
C45   H4    S    
C27   C28   A    
O13   P2    S    
C21   H47   S    
Ba2   O5    S    
C29   C30   A    
C10   N1    Am   
C8    H30   S    
C28   C29   A    
C5    H25   S    
C44   H41   S    
C34   H57   S    
C1    H16   S    
C48   H46   S    
C15   C16   S    
O24   P1    S    
Ba1   O26   S    
C4    H19   S    
Ba1   O13   S    
C6    H58   S    
C38   C39   S    
C20   C44   A    
C14   C21   D    
C11   C13   S    
O17   P8    S    
O8    P7    S    
C60   P5    S    
O22   P6    S    
C40   C41   A    
C1    C2    S    
C1    H11   S    
C23   H54   S    
C45   H2    S    
C50   C51   A    
C24   C40   A    
C12   O3    S    
C42   C48   A    
C50   P2    S    
C3    H18   S    
O23   P6    D    
C52   C53   A    
C46   C47   A    
O10   P5    D    
C1    H22   S    
C24   C26   A    
C58   N4    S    
C9    O18   D    
C6    H27   S    
C11   H40   S    
C34   O7    S    
O15   P7    S    
C2    H1    S    
C63   O2    S    
Ba1   O27   S    
C64   H14   S    
C44   C48   A    
C23   H23   S    
Ba2   O8    S    
C4    H20   S    
C37   P1    S    
O3    P3    S    
Ba2   O13   S    
C30   C31   A    
Ba1   P2    S    
C57   P7    S    
C56   H6    S    
C3    O15   S    
C46   H42   S    
O12   P1    S    
C32   N2    Am   
Ba1   Ba2   S    
C31   C32   A    
C29   C33   A    
C12   C23   S    
C35   C39   D    
C59   C60   A    
C15   H34   S    
C4    H21   S    
O9    P5    S    
O11   P5    S    
C18   C19   A    
C24   C27   A    
C63   C64   S    
C25   C26   A    
Ba2   O14   S    
C62   H8    S    
Ba1   O8    S    
C7    H28   S    
C40   C43   A    
C63   H9    S    
C16   N1    S    
C47   H44   S    
O28   P3    D    
