data_mof_unit_59609.cif
_audit_creation_date              2012-12-10T16:55:03-0500
_audit_creation_method            fapswitch 2.2
_symmetry_space_group_name_H-M    P1
_symmetry_Int_Tables_number       1
_space_group_crystal_system       triclinic
_cell_length_a                    9.849371
_cell_length_b                    10.924544
_cell_length_c                    15.671172
_cell_angle_alpha                 88.579948
_cell_angle_beta                  72.043045
_cell_angle_gamma                 91.002547
_cell_volume                      1603.02510723

loop_
_atom_site_label
_atom_site_type_symbol
_atom_type_description
_atom_site_fract_x
_atom_site_fract_y
_atom_site_fract_z
_atom_type_partial_charge
C1    C     C_R   0.999742 0.266004 0.498702 0.823386
C2    C     C_R   0.663415 0.569244 0.901463 -0.082341
C3    C     C_R   0.757762 0.588371 0.952094 -0.052744
C4    C     C_R   0.515151 0.555706 0.945757 0.063884
C5    C     C_R   0.461561 0.584339 0.037496 0.005595
C6    C     C_R   0.553101 0.651679 0.075343 0.088268
C7    C     C_R   0.703754 0.638952 0.038377 0.187548
C8    C     C_R   0.421978 0.502587 0.903218 -0.078396
C9    C     C_R   0.279867 0.477106 0.949742 -0.207516
C10   C     C_R   0.229043 0.492846 0.041786 0.064397
C11   C     C_R   0.320503 0.541977 0.087438 0.099270
C12   C     C_R   0.915270 0.507071 0.671614 0.851407
C13   C     C_R   0.090237 0.451934 0.089418 -0.294698
C14   C     C_R   0.040677 0.456962 0.182423 0.607620
C15   C     C_R   0.273002 0.534408 0.181920 -0.351499
C16   C     C_2   0.886948 0.932289 0.504948 0.626020
C17   C     C_2   0.997016 0.865699 0.511546 -0.454233
C18   C     C_2   0.884759 0.064408 0.516716 0.415119
C19   C     C_2   0.004219 0.134887 0.488792 0.227552
C20   C     C_2   0.399035 0.432761 0.554251 0.141336
C21   C     C_2   0.542146 0.464645 0.567347 0.721985
C22   C     C_R   0.999668 0.734125 0.502061 0.859094
C23   C     C_R   0.084548 0.498560 0.328222 0.816450
C24   C     C_R   0.863980 0.529696 0.768980 -0.287419
C25   C     C_R   0.132623 0.496963 0.229569 -0.145244
C26   C     C_R   0.903292 0.561809 0.912373 -0.268623
C27   C     C_R   0.954654 0.527743 0.822781 0.536998
C28   C     C_R   0.720721 0.559829 0.808381 0.520420
Cu1   Cu    Cu3+1 0.138640 0.500020 0.499980 0.987147
Cu2   Cu    Cu3+1 0.861360 0.499980 0.500020 1.104492
H1    H     H_    0.020442 0.413701 0.054716 0.162303
H2    H     H_    0.085682 0.907457 0.528494 0.178772
H3    H     H_    0.650737 0.469269 0.439643 0.160349
H4    H     H_    0.345677 0.555057 0.219298 0.181565
H5    H     H_    0.212430 0.435505 0.914770 0.198368
H6    H     H_    0.978289 0.565167 0.949913 0.175417
H7    H     H_    0.458252 0.472557 0.835049 0.242436
N1    N     N_2   0.346430 0.498660 0.500980 -0.168639
N2    N     N_2   0.652550 0.498630 0.501000 -0.340917
O1    O     O_R   0.117050 0.321960 0.499980 -0.582399
O2    O     O_R   0.882890 0.321920 0.500020 -0.541898
O3    O     O_R   0.052910 0.500040 0.629810 -0.555065
O4    O     O_R   0.818750 0.499990 0.629840 -0.461422
O5    O     O_R   0.117110 0.678080 0.499980 -0.592614
O6    O     O_R   0.882950 0.678040 0.500020 -0.491386
O7    O     O_R   0.181250 0.500010 0.370160 -0.590219
O8    O     O_R   0.947090 0.499960 0.370190 -0.534269
C29   C     C_3   0.804554 0.680902 0.089350 -0.370839
C30   C     C_3   0.902320 0.789501 0.042409 -0.800821
H8    H     H_    0.998550 0.758503 0.990330 0.255002
H9    H     H_    0.939185 0.839622 0.092337 0.247568
H10   H     H_    0.845985 0.853979 0.010023 0.260351
H11   H     H_    0.745532 0.706705 0.158521 0.214006
H12   H     H_    0.869954 0.603377 0.098391 0.212107
F1    F     F_    0.769643 0.879012 0.491352 -0.599160
F2    F     F_    0.755229 0.114483 0.554741 -0.641401
F3    F     F_    0.133175 0.087912 0.444592 -0.690805
C31   C     C_3   0.315012 0.320161 0.603996 -0.342154
C32   C     C_3   0.379201 0.251329 0.668044 -0.721007
H13   H     H_    0.491262 0.226886 0.633249 0.302520
H14   H     H_    0.373361 0.306683 0.727480 0.286844
H15   H     H_    0.316420 0.165057 0.692612 0.235519
H16   H     H_    0.206029 0.344426 0.643576 0.266547
H17   H     H_    0.308327 0.253796 0.552928 0.238277
C33   C     C_3   0.442854 0.592346 0.439258 -0.206155
C34   C     C_3   0.383807 0.703569 0.403254 -0.646251
H18   H     H_    0.313003 0.680997 0.363177 0.246647
H19   H     H_    0.338517 0.769249 0.457006 0.267708
H20   H     H_    0.475559 0.755873 0.356491 0.189166
H21   H     H_    0.507468 0.642477 0.474277 0.191723
H22   H     H_    0.508507 0.546107 0.378558 0.161437
F4    F     F_    0.551925 0.461995 0.651526 -0.601857
F5    F     F_    0.905379 0.416288 0.226098 -0.663829
F6    F     F_    0.094376 0.500225 0.787972 -0.660620
F7    F     F_    0.641699 0.597266 0.755796 -0.590634
C35   C     C_3   0.490285 0.747877 0.144836 -0.427264
C36   C     C_3   0.545760 0.878084 0.112918 -0.754703
H23   H     H_    0.646553 0.898160 0.127705 0.257841
H24   H     H_    0.561564 0.892007 0.039982 0.258394
H25   H     H_    0.467290 0.945206 0.149807 0.250458
H26   H     H_    0.373029 0.752052 0.159059 0.220621
H27   H     H_    0.510202 0.724185 0.208804 0.189108

loop_
_geom_bond_atom_site_label_1
_geom_bond_atom_site_label_2
_ccdc_geom_bond_type
C34   H19   S    
Cu1   O3    S    
Cu2   O6    S    
C24   C27   A    
C4    C8    A    
C36   H23   S    
C19   F3    S    
C29   H12   S    
C26   C27   A    
H3    N2    S    
C5    C11   A    
C12   O4    A    
C3    C7    A    
C5    C6    A    
C15   C25   A    
C34   H20   S    
C33   H21   S    
C18   C19   D    
C12   O3    A    
C1    O1    A    
C11   C15   A    
C22   O5    A    
C16   C17   D    
C30   H9    S    
Cu1   N1    S    
Cu2   O2    S    
C27   F6    S    
C9    C10   A    
C15   H4    S    
C18   F2    S    
C34   H18   S    
C32   H13   S    
C23   O7    A    
C13   C14   A    
C36   H24   S    
C31   H17   S    
C29   H11   S    
C32   H14   S    
C23   O8    A    
C21   F4    S    
C14   F5    S    
Cu2   O8    S    
C35   C36   S    
C35   H27   S    
C8    C9    A    
C31   C32   S    
C33   H22   S    
C1    C19   S    
C2    C4    A    
Cu1   Cu2   S    
C20   N1    D    
C21   N2    D    
N1    C33   S    
C30   H10   S    
C1    O2    A    
C29   C30   S    
C30   H8    S    
Cu1   O5    S    
Cu2   O4    S    
C8    H7    S    
C20   C31   S    
C36   H25   S    
C26   H6    S    
C31   H16   S    
C32   H15   S    
C13   H1    S    
C3    C26   A    
C24   C28   A    
C4    C5    A    
C10   C13   A    
C35   H26   S    
C6    C35   S    
C6    C7    A    
C12   C24   S    
C17   C22   S    
Cu1   O7    S    
C7    C29   S    
C2    C3    A    
C16   F1    S    
Cu1   O1    S    
Cu2   N2    S    
C23   C25   S    
C14   C25   A    
C10   C11   A    
C22   O6    A    
C20   C21   S    
C16   C18   S    
C33   C34   S    
C9    H5    S    
C17   H2    S    
C2    C28   A    
C28   F7    S    
