data_mof_unit_44773.cif
_audit_creation_date              2012-12-11T14:44:20-0500
_audit_creation_method            fapswitch 2.2
_symmetry_space_group_name_H-M    P1
_symmetry_Int_Tables_number       1
_space_group_crystal_system       triclinic
_cell_length_a                    19.220471
_cell_length_b                    11.188555
_cell_length_c                    18.592017
_cell_angle_alpha                 89.575775
_cell_angle_beta                  89.380479
_cell_angle_gamma                 89.802939
_cell_volume                      3997.83431584

loop_
_atom_site_label
_atom_site_type_symbol
_atom_type_description
_atom_site_fract_x
_atom_site_fract_y
_atom_site_fract_z
_atom_type_partial_charge
C1    C     C_R   0.730200 0.376072 0.145800 0.509391
C2    C     C_R   0.268417 0.382286 0.851781 0.508450
C3    C     C_R   0.234776 0.888458 0.152909 0.506690
C4    C     C_R   0.770332 0.874001 0.854867 0.521816
C5    C     C_R   0.520861 0.381747 0.915239 0.204668
C6    C     C_R   0.490176 0.405907 0.065111 0.184175
C7    C     C_R   0.025617 0.873166 0.909003 0.183878
C8    C     C_R   0.987278 0.907851 0.055448 0.189807
C9    C     C_R   0.996811 0.984200 0.929213 0.150296
C10   C     C_R   0.983933 0.006896 0.004471 0.163789
C11   C     C_R   0.502135 0.494446 0.942912 0.163630
C12   C     C_R   0.494346 0.509044 0.018471 0.189234
C13   C     C_R   0.670846 0.968351 0.022152 -0.171044
C14   C     C_R   0.330547 0.957371 0.978957 -0.135900
C15   C     C_R   0.171727 0.458493 0.022897 -0.176729
C16   C     C_R   0.829283 0.470041 0.977718 -0.153615
C17   C     C_R   0.681793 0.928957 0.951028 -0.148219
C18   C     C_R   0.327052 0.937486 0.054426 -0.134500
C19   C     C_R   0.178761 0.447682 0.947246 -0.172597
C20   C     C_R   0.818501 0.433039 0.049487 -0.134363
C21   C     C_R   0.750942 0.914049 0.926290 -0.020254
C22   C     C_R   0.264981 0.961038 0.092444 -0.011590
C23   C     C_R   0.246632 0.444875 0.918079 -0.006437
C24   C     C_R   0.749611 0.418057 0.074536 -0.019555
C25   C     C_R   0.805694 0.947297 0.970519 -0.101559
C26   C     C_R   0.219250 0.037096 0.059903 -0.106514
C27   C     C_R   0.298846 0.499821 0.957980 -0.083952
C28   C     C_R   0.694596 0.444332 0.029162 -0.098589
C29   C     C_R   0.790508 0.021839 0.026620 0.056126
C30   C     C_R   0.214840 0.035587 0.985619 -0.038499
C31   C     C_R   0.280737 0.554234 0.021487 0.060811
C32   C     C_R   0.707962 0.519194 0.972371 0.051214
C33   C     C_R   0.728874 0.000362 0.063264 0.008464
C34   C     C_R   0.271538 0.999822 0.941784 0.020715
C35   C     C_R   0.229609 0.497425 0.062323 0.036058
C36   C     C_R   0.772112 0.510562 0.937455 0.002022
C37   C     C_R   0.446856 0.137895 0.450337 -0.090009
C38   C     C_R   0.432052 0.139707 0.523255 -0.085545
C39   C     C_R   0.973737 0.618171 0.452206 -0.046479
C40   C     C_R   0.950635 0.624232 0.522362 -0.123828
C41   C     C_R   0.484852 0.165244 0.572339 0.064362
C42   C     C_R   0.513963 0.165432 0.427254 0.037611
C43   C     C_R   0.995290 0.664297 0.575773 0.030060
C44   C     C_R   0.041177 0.656007 0.434618 0.065509
C45   C     C_R   0.531872 0.157553 0.146687 0.567411
C46   C     C_R   0.466989 0.154689 0.853754 0.582960
C47   C     C_R   0.032526 0.657843 0.145829 0.582760
C48   C     C_R   0.966797 0.653770 0.853663 0.584310
C49   C     C_R   0.552069 0.192268 0.549395 -0.094096
C50   C     C_R   0.566654 0.192812 0.476282 -0.130375
C51   C     C_R   0.063177 0.700310 0.559191 -0.081177
C52   C     C_R   0.086004 0.697866 0.487770 -0.117566
C53   C     C_R   0.827041 0.914283 0.446776 0.235924
C54   C     C_R   0.200557 0.011798 0.523600 0.247660
C55   C     C_R   0.307303 0.477459 0.469235 0.248932
C56   C     C_R   0.697790 0.506253 0.526229 0.233968
C57   C     C_R   0.836453 0.909605 0.521313 -0.024820
C58   C     C_R   0.211105 0.021722 0.449230 0.023208
C59   C     C_R   0.302515 0.501494 0.542555 0.024883
C60   C     C_R   0.709023 0.515762 0.451855 0.009430
C61   C     C_R   0.778690 0.873262 0.565419 -0.011881
C62   C     C_R   0.254343 0.936172 0.416351 -0.005806
C63   C     C_R   0.249751 0.441500 0.582225 -0.008743
C64   C     C_R   0.752118 0.429524 0.419179 -0.001768
C65   C     C_R   0.711694 0.871473 0.538004 -0.145092
C66   C     C_R   0.307106 0.881615 0.455899 -0.175051
C67   C     C_R   0.188821 0.409165 0.547402 -0.151952
C68   C     C_R   0.801471 0.367477 0.459849 -0.175480
C69   C     C_R   0.701052 0.898176 0.467196 -0.213005
C70   C     C_R   0.309941 0.900288 0.529270 -0.219485
C71   C     C_R   0.185598 0.418974 0.472923 -0.210596
C72   C     C_R   0.802573 0.381648 0.533650 -0.207465
C73   C     C_R   0.757694 0.916459 0.421103 -0.014666
C74   C     C_R   0.253886 0.955686 0.565164 -0.024407
C75   C     C_R   0.246176 0.445727 0.432750 -0.020194
C76   C     C_R   0.749531 0.445914 0.568191 -0.008209
C77   C     C_R   0.726715 0.022516 0.140664 0.548092
C78   C     C_R   0.271972 0.017950 0.861072 0.557789
C79   C     C_R   0.227506 0.519410 0.140161 0.564018
C80   C     C_R   0.773848 0.525538 0.858808 0.538451
C81   C     C_R   0.730471 0.380124 0.350941 0.532706
C82   C     C_R   0.269225 0.383800 0.650057 0.534656
C83   C     C_R   0.230971 0.881657 0.350101 0.522417
C84   C     C_R   0.787962 0.838997 0.639889 0.532835
C85   C     C_R   0.533165 0.156715 0.353179 0.565183
C86   C     C_R   0.467222 0.156977 0.646949 0.569511
C87   C     C_R   0.063581 0.651602 0.360507 0.548429
C88   C     C_R   0.969267 0.656997 0.648237 0.561566
C89   C     C_R   0.742633 0.969567 0.352454 0.574333
C90   C     C_R   0.260292 0.980205 0.642262 0.555447
C91   C     C_R   0.240061 0.476451 0.356577 0.562998
C92   C     C_R   0.758846 0.476017 0.643908 0.553781
C93   C     C_R   0.499491 0.164896 0.924604 0.038957
C94   C     C_R   0.500158 0.174438 0.075024 0.041511
C95   C     C_R   0.003165 0.661569 0.922286 0.039517
C96   C     C_R   0.003228 0.674714 0.072366 0.036773
C97   C     C_R   0.507911 0.278083 0.957992 -0.078438
C98   C     C_R   0.499311 0.286993 0.034674 -0.085859
C99   C     C_R   0.012775 0.773848 0.954233 -0.082915
C100  C     C_R   0.001624 0.786715 0.029936 -0.082014
C101  C     C_R   0.493139 0.066326 0.038836 -0.168721
C102  C     C_R   0.497458 0.061106 0.965788 -0.170731
C103  C     C_R   0.998715 0.565162 0.036745 -0.177146
C104  C     C_R   0.003016 0.558481 0.963727 -0.180736
Cr1   Cr    Cr6+3 0.772000 0.169640 0.250110 1.093582
Cr2   Cr    Cr6+3 0.228000 0.169640 0.749890 1.128161
Cr3   Cr    Cr6+3 0.272000 0.669640 0.250110 1.063534
Cr4   Cr    Cr6+3 0.728000 0.669640 0.749890 1.137739
Cr5   Cr    Cr6+3 0.614960 0.323350 0.249260 1.138334
Cr6   Cr    Cr6+3 0.385040 0.323350 0.750740 1.146953
Cr7   Cr    Cr6+3 0.114960 0.823350 0.249260 1.133264
Cr8   Cr    Cr6+3 0.885040 0.823350 0.750740 1.135172
Cr9   Cr    Cr6+3 0.616670 0.010620 0.250840 1.037661
Cr10  Cr    Cr6+3 0.383330 0.010620 0.749160 1.039251
Cr11  Cr    Cr6+3 0.116670 0.510620 0.250840 1.011516
Cr12  Cr    Cr6+3 0.883330 0.510620 0.749160 1.042153
H1    H     H_    0.490261 0.981469 0.067177 0.180299
H2    H     H_    0.494282 0.973723 0.941374 0.187782
H3    H     H_    0.995830 0.480585 0.065403 0.176509
H4    H     H_    0.999659 0.471072 0.939498 0.193690
H5    H     H_    0.666717 0.858487 0.572384 0.200996
H6    H     H_    0.344627 0.822341 0.430724 0.180112
H7    H     H_    0.144246 0.377750 0.577700 0.189852
H8    H     H_    0.837492 0.305174 0.435005 0.168436
H9    H     H_    0.647887 0.906445 0.448833 0.159154
H10   H     H_    0.354684 0.867221 0.557931 0.152323
H11   H     H_    0.136461 0.402424 0.446892 0.149934
H12   H     H_    0.843728 0.339859 0.564120 0.146011
H13   H     H_    0.619399 0.967242 0.045776 0.161356
H14   H     H_    0.376810 0.931649 0.949534 0.178403
H15   H     H_    0.122530 0.440556 0.049354 0.146459
H16   H     H_    0.879945 0.462609 0.953168 0.165947
H17   H     H_    0.638100 0.905133 0.917845 0.170819
H18   H     H_    0.370228 0.899222 0.081896 0.151238
H19   H     H_    0.134220 0.427845 0.914569 0.146282
H20   H     H_    0.862132 0.409338 0.082968 0.180616
H21   H     H_    0.858818 0.943694 0.951487 0.148198
H22   H     H_    0.176934 0.074997 0.091355 0.197013
H23   H     H_    0.350193 0.515024 0.936372 0.196810
H24   H     H_    0.641078 0.436227 0.047523 0.145055
H25   H     H_    0.406605 0.115611 0.412380 0.131261
H26   H     H_    0.379683 0.120112 0.541801 0.114212
H27   H     H_    0.938504 0.586987 0.411306 0.152764
H28   H     H_    0.898015 0.596104 0.535374 0.108251
H29   H     H_    0.592774 0.210567 0.587585 0.155309
H30   H     H_    0.619177 0.212010 0.457807 0.122769
H31   H     H_    0.098275 0.727435 0.601140 0.164472
H32   H     H_    0.138419 0.726104 0.474121 0.104116
O1    O     O_R   0.787540 0.042690 0.170470 -0.428503
O2    O     O_R   0.212460 0.042690 0.829530 -0.442184
O3    O     O_R   0.287540 0.542690 0.170470 -0.426042
O4    O     O_R   0.712460 0.542690 0.829530 -0.418960
O5    O     O_R   0.556540 0.252920 0.323970 -0.448227
O6    O     O_R   0.443460 0.252920 0.676030 -0.433395
O7    O     O_R   0.056540 0.752920 0.323970 -0.424009
O8    O     O_R   0.943460 0.752920 0.676030 -0.480124
O9    O     O_R   0.545870 0.051100 0.330840 -0.517543
O10   O     O_R   0.454130 0.051100 0.669160 -0.523147
O11   O     O_R   0.045870 0.551100 0.330840 -0.519582
O12   O     O_R   0.954130 0.551100 0.669160 -0.515390
O13   O     O_R   0.681340 0.959300 0.325510 -0.528640
O14   O     O_R   0.318660 0.959300 0.674490 -0.530489
O15   O     O_R   0.181340 0.459300 0.325510 -0.542075
O16   O     O_R   0.818660 0.459300 0.674490 -0.519540
O17   O     O_3   0.667880 0.167870 0.250070 -0.323353
O18   O     O_3   0.332120 0.167870 0.749930 -0.325225
O19   O     O_3   0.167880 0.667870 0.250070 -0.334458
O20   O     O_3   0.832120 0.667870 0.749930 -0.350096
O21   O     O_R   0.765660 0.292160 0.175050 -0.522145
O22   O     O_R   0.234340 0.292160 0.824950 -0.533952
O23   O     O_R   0.265660 0.792160 0.175050 -0.535970
O24   O     O_R   0.734340 0.792160 0.824950 -0.529165
O25   O     O_R   0.670190 0.408980 0.168550 -0.492983
O26   O     O_R   0.329810 0.408980 0.831450 -0.492991
O27   O     O_R   0.170190 0.908980 0.168550 -0.483768
O28   O     O_R   0.829810 0.908980 0.831450 -0.461961
O29   O     O_R   0.556580 0.251450 0.175160 -0.432924
O30   O     O_R   0.443420 0.251450 0.824840 -0.449670
O31   O     O_R   0.056580 0.751450 0.175160 -0.416983
O32   O     O_R   0.943420 0.751450 0.824840 -0.446777
O33   O     O_R   0.545920 0.049510 0.170320 -0.536131
O34   O     O_R   0.454080 0.049510 0.829680 -0.535704
O35   O     O_R   0.045920 0.549510 0.170320 -0.539136
O36   O     O_R   0.954080 0.549510 0.829680 -0.528674
O37   O     O_R   0.681390 0.957840 0.176710 -0.498278
O38   O     O_R   0.318610 0.957840 0.823290 -0.491586
O39   O     O_R   0.181390 0.457840 0.176710 -0.509188
O40   O     O_R   0.818610 0.457840 0.823290 -0.490979
O41   O     O_R   0.787500 0.044280 0.330990 -0.427353
O42   O     O_R   0.212500 0.044280 0.669010 -0.386919
O43   O     O_R   0.287500 0.544280 0.330990 -0.429137
O44   O     O_R   0.712500 0.544280 0.669010 -0.404550
O45   O     O_R   0.765610 0.293630 0.323860 -0.504080
O46   O     O_R   0.234390 0.293630 0.676140 -0.474402
O47   O     O_R   0.265610 0.793630 0.323860 -0.509950
O48   O     O_R   0.734390 0.793630 0.676140 -0.472644
O49   O     O_R   0.670140 0.410570 0.329080 -0.511429
O50   O     O_R   0.329860 0.410570 0.670920 -0.514873
O51   O     O_R   0.170140 0.910570 0.329080 -0.525198
O52   O     O_R   0.829860 0.910570 0.670920 -0.512133
S1    S     S_3+6 0.900205 0.928120 0.386176 0.007151
O53   O     O_2   0.883882 0.867835 0.316546 -0.212356
O54   O     O_2   0.914641 0.058516 0.372428 -0.313869
O55   O     O_3   0.972614 0.866750 0.418618 -0.536395
H33   H     H_    0.010888 0.918440 0.400794 0.403276
S2    S     S_3+6 0.116647 0.051577 0.559208 -0.006119
O56   O     O_2   0.092098 0.957990 0.611864 -0.228401
O57   O     O_2   0.120435 0.168959 0.597407 -0.306447
O58   O     O_3   0.057935 0.063366 0.493260 -0.584381
H34   H     H_    0.036144 0.143160 0.498888 0.353696
S3    S     S_3+6 0.391042 0.468347 0.428033 0.000881
O59   O     O_2   0.389955 0.384794 0.365037 -0.269035
O60   O     O_2   0.414114 0.590193 0.403150 -0.291970
O61   O     O_3   0.447236 0.415368 0.488786 -0.519367
H35   H     H_    0.489581 0.397223 0.460249 0.405051
S4    S     S_3+6 0.614265 0.550374 0.562133 0.008573
O62   O     O_2   0.587741 0.454338 0.612174 -0.220601
O63   O     O_2   0.619850 0.664895 0.603132 -0.292859
O64   O     O_3   0.555676 0.572343 0.497065 -0.543504
H36   H     H_    0.519016 0.623250 0.518993 0.384546
C105  C     C_3   0.901200 0.968030 0.552842 -0.200017
C106  C     C_3   0.886374 0.096996 0.574626 -0.398404
H37   H     H_    0.879115 0.151569 0.525215 0.143874
H38   H     H_    0.838854 0.105057 0.608639 0.186833
H39   H     H_    0.931305 0.133071 0.604524 0.181774
H40   H     H_    0.924448 0.915782 0.596661 0.211079
H41   H     H_    0.944589 0.974934 0.515343 0.254512
C107  C     C_3   0.176599 0.120710 0.405515 -0.238656
C108  C     C_3   0.226027 0.174872 0.349049 -0.417718
H42   H     H_    0.271357 0.216343 0.375532 0.173183
H43   H     H_    0.245340 0.107508 0.310256 0.164790
H44   H     H_    0.197584 0.242645 0.317229 0.179595
H45   H     H_    0.128731 0.089110 0.379049 0.218286
H46   H     H_    0.160142 0.193539 0.441773 0.173944
C109  C     C_3   0.353657 0.588154 0.576629 -0.217667
C110  C     C_3   0.319538 0.666652 0.634644 -0.420064
H47   H     H_    0.272522 0.711344 0.613030 0.144331
H48   H     H_    0.303452 0.616015 0.683277 0.188226
H49   H     H_    0.357505 0.734258 0.652634 0.168041
H50   H     H_    0.399458 0.540394 0.598786 0.240133
H51   H     H_    0.374353 0.649798 0.534592 0.163532
C111  C     C_3   0.673845 0.613586 0.407565 -0.227375
C112  C     C_3   0.721676 0.665237 0.348631 -0.417999
H52   H     H_    0.771713 0.694384 0.371812 0.165494
H53   H     H_    0.733338 0.600494 0.305456 0.175845
H54   H     H_    0.695095 0.741104 0.322212 0.176488
H55   H     H_    0.624950 0.581846 0.383180 0.237004
H56   H     H_    0.658338 0.687417 0.443273 0.186136
S5    S     S_3+6 0.580058 0.373406 0.838383 0.075767
O65   O     O_2   0.564002 0.281590 0.782597 -0.279613
O66   O     O_2   0.586757 0.490657 0.799579 -0.135750
O67   O     O_3   0.657462 0.334997 0.871161 -0.576779
H57   H     H_    0.684876 0.306705 0.829119 0.373204
S6    S     S_3+6 0.463062 0.429305 0.157809 0.104351
O68   O     O_2   0.424835 0.322368 0.187394 -0.273457
O69   O     O_2   0.525336 0.456036 0.203120 -0.215680
O70   O     O_3   0.411757 0.546638 0.169970 -0.439953
H58   H     H_    0.413338 0.563645 0.222198 0.380700
S7    S     S_3+6 0.084778 0.856906 0.831338 0.042971
O71   O     O_2   0.067327 0.759747 0.779398 -0.283730
O72   O     O_2   0.090934 0.970179 0.788176 -0.157389
O73   O     O_3   0.163502 0.821477 0.863310 -0.590771
H59   H     H_    0.190834 0.793223 0.821228 0.377739
S8    S     S_3+6 0.964982 0.936286 0.147950 0.110809
O74   O     O_2   0.928832 0.829464 0.180163 -0.250071
O75   O     O_2   0.029853 0.964807 0.188699 -0.220494
O76   O     O_3   0.912883 0.052507 0.161642 -0.412916
H60   H     H_    0.917854 0.072519 0.213177 0.387389
S9    S     S_3+6 0.969375 0.082244 0.857314 0.073141
O77   O     O_2   0.951113 0.008753 0.792996 -0.210163
O78   O     O_2   0.906773 0.155033 0.877201 -0.304909
O79   O     O_3   0.032172 0.176844 0.830910 -0.500281
H61   H     H_    0.012205 0.222617 0.790210 0.365241
S10   S     S_3+6 0.990777 0.160466 0.036090 -0.006200
O80   O     O_2   0.006185 0.244878 0.975133 -0.305616
O81   O     O_2   0.928188 0.209633 0.073997 -0.294788
O82   O     O_3   0.055501 0.166703 0.096064 -0.539315
H62   H     H_    0.055987 0.250616 0.112712 0.358116
S11   S     S_3+6 0.478989 0.611896 0.881136 0.065577
O83   O     O_2   0.451353 0.558729 0.813175 -0.245084
O84   O     O_2   0.423670 0.691549 0.912639 -0.292792
O85   O     O_3   0.548760 0.696439 0.860493 -0.489723
H63   H     H_    0.530655 0.761755 0.829613 0.362690
S12   S     S_3+6 0.498447 0.657585 0.055209 0.030638
O86   O     O_2   0.542378 0.656655 0.121591 -0.294788
O87   O     O_2   0.527710 0.749356 0.004113 -0.297174
O88   O     O_3   0.418762 0.704779 0.076674 -0.500093
H64   H     H_    0.424677 0.747090 0.122841 0.359465
C113  C     C_3   0.802933 0.150086 0.009372 -0.242493
C114  C     C_3   0.751681 0.197908 0.953903 -0.396675
H65   H     H_    0.748624 0.140695 0.905800 0.190014
H66   H     H_    0.699154 0.208645 0.978483 0.179655
H67   H     H_    0.770579 0.283201 0.932647 0.203238
H68   H     H_    0.799616 0.201873 0.059171 0.195386
H69   H     H_    0.854593 0.160327 0.986128 0.261548
C115  C     C_3   0.147073 0.073567 0.958811 -0.231513
C116  C     C_3   0.149641 0.204504 0.951173 -0.340104
H70   H     H_    0.131706 0.244781 0.001867 0.196486
H71   H     H_    0.204016 0.232171 0.942563 0.152867
H72   H     H_    0.118944 0.235298 0.905338 0.237354
H73   H     H_    0.130167 0.030850 0.910495 0.252452
H74   H     H_    0.108093 0.046176 0.998453 0.172931
C117  C     C_3   0.273237 0.687042 0.015497 -0.247292
C118  C     C_3   0.196504 0.726953 0.010217 -0.412965
H75   H     H_    0.192213 0.821586 0.997776 0.192856
H76   H     H_    0.169709 0.679903 0.966454 0.214572
H77   H     H_    0.167978 0.711459 0.061617 0.130652
H78   H     H_    0.296401 0.722469 0.063659 0.219937
H79   H     H_    0.302115 0.722707 0.968025 0.210355
C119  C     C_3   0.670009 0.634585 0.974667 -0.232080
C120  C     C_3   0.684438 0.697411 0.046554 -0.383336
H80   H     H_    0.682165 0.637256 0.094088 0.191611
H81   H     H_    0.736660 0.739384 0.045041 0.153467
H82   H     H_    0.643708 0.763478 0.057852 0.224041
H83   H     H_    0.684722 0.692857 0.929282 0.188545
H84   H     H_    0.614960 0.613989 0.969109 0.232981

loop_
_geom_bond_atom_site_label_1
_geom_bond_atom_site_label_2
_ccdc_geom_bond_type
C62   C83   S    
C55   C59   A    
C114  H67   S    
Cr2   O22   S    
C7    S7    S    
S4    O64   S    
C119  H84   S    
O85   H63   S    
C7    C99   A    
Cr2   O18   S    
S12   O86   D    
C82   O50   A    
Cr5   O25   S    
Cr6   O30   S    
C29   C33   A    
S10   O80   D    
C37   C42   A    
S6    O69   D    
C54   C74   A    
Cr5   O49   S    
C40   C43   A    
O79   H61   S    
C70   C74   A    
C66   H6    S    
C78   O38   A    
C8    S8    S    
C70   H10   S    
Cr6   O26   S    
Cr7   O31   S    
C41   C49   A    
C107  C108  S    
C25   C29   A    
Cr3   O19   S    
C117  H78   S    
C27   C31   A    
C51   C52   A    
Cr1   O41   S    
C28   C32   A    
C47   O35   A    
C36   C80   S    
C48   O36   A    
C62   C66   A    
S2    O56   D    
Cr3   O23   S    
C91   O43   A    
C53   S1    S    
C19   C23   A    
C13   C33   A    
C108  H42   S    
C117  C118  S    
C68   C72   A    
Cr1   O21   S    
C12   S12   S    
C115  C116  S    
S9    O78   D    
C17   H17   S    
Cr7   O19   S    
C6    C98   A    
C14   H14   S    
S12   O88   S    
C59   C109  S    
S7    O72   D    
C61   C84   S    
C67   H7    S    
C57   C61   A    
C105  H41   S    
C59   C63   A    
S6    O70   S    
C60   C64   A    
C74   C90   S    
C86   O6    A    
C31   C117  S    
C6    C12   A    
C66   C70   A    
C32   C119  S    
C87   O11   A    
C95   C99   A    
S11   O84   D    
Cr11  O15   S    
C111  H56   S    
Cr9   O13   S    
C61   C65   A    
C8    C10   A    
Cr12  O20   S    
Cr9   O9    S    
Cr7   O7    S    
Cr8   O52   S    
O67   H57   S    
Cr2   O2    S    
C109  H50   S    
C97   C98   A    
S1    O54   D    
Cr2   O46   S    
C115  H74   S    
C1    O25   A    
S5    O65   D    
C113  H69   S    
C90   O14   A    
C64   C68   A    
S4    O63   D    
C108  H44   S    
C110  H47   S    
O70   H58   S    
C109  H51   S    
Cr9   O33   S    
C110  H48   S    
S8    O74   D    
C9    C10   A    
C75   C91   S    
C117  H79   S    
Cr3   O3    S    
C44   C52   A    
C118  H76   S    
Cr4   O20   S    
C52   H32   S    
O82   H62   S    
C83   O47   A    
C116  H71   S    
C113  C114  S    
C118  H77   S    
C30   C34   A    
C63   C82   S    
C38   C41   A    
C39   C40   A    
C106  H39   S    
C81   O45   A    
C27   H23   S    
C25   H21   S    
C105  C106  S    
Cr11  O39   S    
C47   C96   S    
C112  H54   S    
Cr9   O37   S    
O58   H34   S    
C80   O40   A    
C20   H20   S    
C88   O12   A    
C106  H38   S    
C107  H45   S    
C42   C50   A    
Cr8   O28   S    
C5    C97   A    
C26   C30   A    
C120  H81   S    
C22   C26   A    
S9    O79   S    
Cr2   O42   S    
C93   C97   A    
C48   O32   A    
C90   O42   A    
C21   C25   A    
S5    O67   S    
C4    O24   A    
C18   C22   A    
C24   C28   A    
C14   C34   A    
O76   H60   S    
C32   C36   A    
O73   H59   S    
C60   C111  S    
C110  H49   S    
C13   C17   A    
C46   O34   A    
S12   O87   D    
C8    C100  A    
C16   C36   A    
C33   C77   S    
C84   O48   A    
Cr4   O24   S    
Cr12  O36   S    
C35   C79   S    
S1    O55   S    
C18   H18   S    
S10   O81   D    
C64   C81   S    
C56   S4    S    
S3    O61   S    
C15   H15   S    
O55   H33   S    
C1    C24   S    
C49   C50   A    
Cr8   O8    S    
Cr3   O43   S    
C2    C23   S    
C13   H13   S    
Cr4   O44   S    
C3    C22   S    
Cr11  O19   S    
C58   C62   A    
C101  C102  A    
Cr6   O50   S    
S10   O82   S    
C71   H11   S    
C30   C115  S    
C15   C19   A    
C41   C86   S    
C37   H25   S    
C43   C88   S    
C88   O8    A    
C5    C11   A    
Cr9   O17   S    
S2    O57   D    
Cr10  O14   S    
C94   C98   A    
C19   H19   S    
C112  H52   S    
C80   O4    A    
C114  H65   S    
C116  H70   S    
C11   S11   S    
C14   C18   A    
Cr10  O10   S    
C9    S9    S    
Cr4   O4    S    
C54   S2    S    
C109  C110  S    
C69   C73   A    
C65   H5    S    
Cr4   O48   S    
C44   C87   S    
Cr5   O5    S    
C50   H30   S    
C69   H9    S    
S9    O77   D    
C91   O15   A    
C85   O9    A    
C10   S10   S    
C89   O13   A    
C119  H83   S    
C103  H3    S    
C5    S5    S    
C57   C105  S    
C77   O1    A    
O64   H36   S    
C53   C57   A    
Cr10  O34   S    
C105  H40   S    
C56   C60   A    
Cr11  O11   S    
S6    O68   D    
S3    O59   D    
C111  C112  S    
C49   H29   S    
C42   C85   S    
C39   C44   A    
Cr5   O17   S    
C2    O22   A    
C3    O27   A    
C31   C35   A    
C29   C113  S    
C119  C120  S    
C26   H22   S    
C93   C102  A    
Cr11  O35   S    
C113  H68   S    
Cr10  O38   S    
C101  H1    S    
S11   O83   D    
C73   C89   S    
C108  H43   S    
C43   C51   A    
C65   C69   A    
Cr1   O17   S    
C67   C71   A    
C16   H16   S    
C17   C21   A    
C82   O46   A    
Cr5   O29   S    
S8    O75   D    
C4    O28   A    
C96   C103  A    
C103  C104  A    
C89   O41   A    
C34   C78   S    
C92   O44   A    
C104  H4    S    
C120  H80   S    
C56   C76   A    
C48   C95   S    
C77   O37   A    
S1    O53   D    
C46   O30   A    
C28   H24   S    
C72   C76   A    
S7    O73   S    
C68   H8    S    
Cr3   O47   S    
C84   O52   A    
Cr1   O45   S    
Cr12  O40   S    
C37   C38   A    
C79   O39   A    
C72   H12   S    
Cr7   O27   S    
S8    O76   S    
Cr8   O20   S    
C96   C100  A    
C6    S6    S    
S11   O85   S    
C47   O31   A    
Cr7   O51   S    
C20   C24   A    
C94   C101  A    
C112  H53   S    
C23   C27   A    
C107  H46   S    
C102  H2    S    
C16   C20   A    
C92   O16   A    
C38   H26   S    
C45   C94   S    
C81   O49   A    
C15   C35   A    
Cr10  O18   S    
C115  H73   S    
C63   C67   A    
S5    O66   D    
S4    O62   D    
O61   H35   S    
Cr6   O6    S    
C99   C100  A    
C51   H31   S    
C85   O5    A    
C86   O10   A    
C76   C92   S    
C118  H75   S    
S3    O60   D    
C39   H27   S    
C40   H28   S    
Cr12  O12   S    
C116  H72   S    
C87   O7    A    
C83   O51   A    
S7    O71   D    
C58   C107  S    
C95   C104  A    
C78   O2    A    
C79   O3    A    
C54   C58   A    
C7    C9    A    
Cr12  O16   S    
C53   C73   A    
C45   O33   A    
C11   C12   A    
C45   O29   A    
Cr1   O1    S    
C111  H55   S    
Cr8   O32   S    
C55   C75   A    
C2    O26   A    
C71   C75   A    
C4    C21   S    
Cr6   O18   S    
S2    O58   S    
C3    O23   A    
C46   C93   S    
C1    O21   A    
C114  H66   S    
C106  H37   S    
C55   S3    S    
O88   H64   S    
C120  H82   S    
