data_mof_unit_50848.cif
_audit_creation_date              2012-12-11T16:31:08-0500
_audit_creation_method            fapswitch 2.2
_symmetry_space_group_name_H-M    P1
_symmetry_Int_Tables_number       1
_space_group_crystal_system       triclinic
_cell_length_a                    22.086874
_cell_length_b                    30.298941
_cell_length_c                    19.290265
_cell_angle_alpha                 90.02364
_cell_angle_beta                  125.169382
_cell_angle_gamma                 89.995206
_cell_volume                      10552.6746287

loop_
_atom_site_label
_atom_site_type_symbol
_atom_type_description
_atom_site_fract_x
_atom_site_fract_y
_atom_site_fract_z
_atom_type_partial_charge
C1    C     C_R   0.643903 0.898823 0.073150 -0.288946
C2    C     C_1   0.032415 0.001185 0.529501 -0.008982
C3    C     C_R   0.995355 0.536063 0.784847 -0.168475
C4    C     C_R   0.706765 0.037967 0.227384 -0.125857
C5    C     C_R   0.293489 0.963123 0.769807 -0.142641
C6    C     C_R   0.293149 0.037873 0.772676 -0.126682
C7    C     C_R   0.706325 0.963265 0.230771 -0.138412
C8    C     C_R   0.206771 0.537921 0.227461 -0.126747
C9    C     C_R   0.793814 0.463309 0.768844 -0.144503
C10   C     C_R   0.793332 0.537982 0.772482 -0.125187
C11   C     C_R   0.206378 0.463196 0.230528 -0.140792
C12   C     C_R   0.645203 0.884351 0.005820 -0.039292
C13   C     C_1   0.467558 0.501282 0.470577 -0.009028
C14   C     C_R   0.396769 0.144926 0.989811 -0.065979
C15   C     C_R   0.359497 0.879676 0.996034 -0.023642
C16   C     C_R   0.603474 0.144303 0.007482 -0.067128
C17   C     C_R   0.142123 0.381556 0.003704 -0.032462
C18   C     C_R   0.897135 0.644433 0.992729 -0.066732
C19   C     C_R   0.852728 0.386981 0.994264 -0.037525
C20   C     C_R   0.102826 0.645017 0.010124 -0.066557
C21   C     C_R   0.456258 0.001939 0.715449 0.099562
C22   C     C_R   0.487998 0.999939 0.244405 0.118128
C23   C     C_R   0.010643 0.499974 0.754283 0.122025
C24   C     C_1   0.532628 0.501308 0.528926 -0.008830
C25   C     C_R   0.044880 0.501918 0.285070 0.092099
C26   C     C_R   0.750089 0.000814 0.269519 0.097845
C27   C     C_R   0.249749 0.000659 0.730903 0.099906
C28   C     C_R   0.250113 0.500742 0.269438 0.098819
C29   C     C_R   0.750060 0.500845 0.730116 0.099057
C30   C     C_1   0.826566 0.001099 0.342443 -0.053084
C31   C     C_1   0.173246 0.000915 0.658051 -0.052897
C32   C     C_1   0.326630 0.501026 0.342269 -0.052904
C33   C     C_1   0.673562 0.501135 0.657227 -0.053453
C34   C     C_1   0.891189 0.001209 0.402055 0.000565
C35   C     C_R   0.585244 0.265462 0.956964 -0.462135
C36   C     C_1   0.108620 0.001067 0.598452 0.000144
C37   C     C_1   0.391293 0.501180 0.401780 0.000061
C38   C     C_1   0.608898 0.501260 0.597714 0.000336
C39   C     C_3   0.560048 0.129396 0.819370 0.101832
C40   C     C_3   0.613834 0.167542 0.840682 -0.305244
C41   C     C_3   0.646827 0.164271 0.789759 -0.998964
C42   C     C_3   0.538727 0.854992 0.166807 0.177847
C43   C     C_3   0.577126 0.824545 0.244260 -0.283246
C44   C     C_3   0.605551 0.849569 0.326443 -0.910163
C45   C     C_3   0.429740 0.136830 0.170828 0.113079
C46   C     C_R   0.231815 0.844791 0.057357 -0.375847
C47   C     C_3   0.384085 0.179085 0.150069 -0.327689
C48   C     C_3   0.347622 0.180564 0.197410 -0.973523
C49   C     C_3   0.475770 0.855751 0.823636 0.112792
C50   C     C_3   0.483712 0.812941 0.870907 -0.304805
C51   C     C_3   0.408358 0.791843 0.834794 -0.989912
C52   C     C_3   0.070350 0.636484 0.829254 0.112844
C53   C     C_3   0.116567 0.678540 0.850542 -0.331161
C54   C     C_3   0.153477 0.679785 0.803690 -0.968676
C55   C     C_3   0.010929 0.350232 0.168297 0.183318
C56   C     C_3   0.028162 0.319756 0.240837 -0.293438
C57   C     C_R   0.414913 0.266468 0.037468 -0.468880
C58   C     C_3   0.060077 0.344683 0.323843 -0.857393
C59   C     C_3   0.940613 0.629470 0.180979 0.102202
C60   C     C_3   0.886895 0.667626 0.159824 -0.303520
C61   C     C_3   0.853908 0.664311 0.210742 -1.002841
C62   C     C_3   0.962740 0.355461 0.827740 0.107045
C63   C     C_3   0.958561 0.319374 0.880762 -0.279870
C64   C     C_3   0.880085 0.301221 0.836158 -1.006809
C65   C     C_3   0.445831 0.226478 0.828981 0.238591
C66   C     C_3   0.392154 0.261137 0.821906 -0.328066
C67   C     C_3   0.347112 0.282323 0.734286 -1.028591
C68   C     C_R   0.773422 0.846199 0.948749 -0.409464
C69   C     C_3   0.374948 0.869329 0.207021 0.253326
C70   C     C_3   0.352774 0.885003 0.264780 -0.377163
C71   C     C_3   0.399987 0.861860 0.350714 -0.919359
C72   C     C_3   0.556244 0.230037 0.163662 0.243219
C73   C     C_3   0.603445 0.266541 0.162059 -0.335099
C74   C     C_3   0.639121 0.295652 0.240744 -1.017473
C75   C     C_3   0.652216 0.889425 0.802833 0.274744
C76   C     C_3   0.698529 0.910705 0.775867 -0.360647
C77   C     C_3   0.688471 0.886491 0.700458 -1.010963
C78   C     C_3   0.942831 0.729470 0.835355 0.244120
C79   C     C_R   0.084292 0.766172 0.960357 -0.469104
C80   C     C_3   0.895911 0.766311 0.836614 -0.337454
C81   C     C_3   0.859848 0.794892 0.757254 -1.015110
C82   C     C_3   0.844174 0.393460 0.196387 0.277642
C83   C     C_3   0.795680 0.413671 0.221325 -0.361632
C84   C     C_3   0.806326 0.389747 0.297250 -1.012354
C85   C     C_3   0.055286 0.726506 0.171660 0.239581
C86   C     C_3   0.108389 0.761454 0.178262 -0.329484
C87   C     C_3   0.152750 0.783197 0.265416 -1.027333
C88   C     C_3   0.122057 0.368480 0.788592 0.256957
C89   C     C_3   0.143417 0.384345 0.730195 -0.370382
C90   C     C_R   0.726451 0.346895 0.052740 -0.413763
C91   C     C_3   0.096825 0.360644 0.644753 -0.924771
C92   C     C_3   0.564860 0.976940 0.562676 0.198562
C93   C     C_3   0.631192 0.984526 0.557728 -0.343193
C94   C     C_3   0.692607 0.010689 0.633813 -0.993569
C95   C     C_3   0.495865 0.094653 0.511597 0.182095
C96   C     C_3   0.501712 0.140650 0.483662 -0.231474
C97   C     C_3   0.581439 0.151435 0.516163 -1.048702
C98   C     C_3   0.270789 0.945530 0.360710 0.193846
C99   C     C_3   0.218482 0.905934 0.327000 -0.276034
C100  C     C_3   0.148856 0.914908 0.238469 -1.028126
C101  C     C_R   0.915731 0.765408 0.044412 -0.462245
C102  C     C_3   0.251978 0.046752 0.222293 0.170391
C103  C     C_3   0.182165 0.059387 0.216308 -0.246932
C104  C     C_3   0.112457 0.050353 0.127917 -1.024124
C105  C     C_3   0.227916 0.444425 0.638910 0.194376
C106  C     C_3   0.279776 0.404643 0.671464 -0.276665
C107  C     C_3   0.349374 0.412971 0.760373 -1.028515
C108  C     C_3   0.248371 0.544722 0.779201 0.169545
C109  C     C_3   0.319011 0.556486 0.786352 -0.245922
C110  C     C_3   0.387954 0.546701 0.874897 -1.022992
C111  C     C_3   0.933745 0.479729 0.434525 0.196761
C112  C     C_R   0.381405 0.117739 0.924557 -0.204586
C113  C     C_R   0.265617 0.344566 0.937493 -0.383617
C114  C     C_3   0.867707 0.488944 0.439350 -0.344407
C115  C     C_3   0.808794 0.517047 0.364916 -0.992131
C116  C     C_3   0.007483 0.595800 0.489571 0.181542
C117  C     C_3   0.002982 0.641956 0.518055 -0.229811
C118  C     C_3   0.923545 0.653668 0.485467 -1.051649
C119  C     C_R   0.563535 0.222014 0.958250 0.657175
C120  C     C_R   0.289804 0.866162 0.061276 0.585159
C121  C     C_R   0.437195 0.223023 0.036201 0.660566
C122  C     C_R   0.718730 0.871118 0.946563 0.601028
C123  C     C_R   0.062043 0.722910 0.962798 0.660308
C124  C     C_R   0.779335 0.373148 0.053589 0.603646
C125  C     C_R   0.937413 0.722035 0.042533 0.657382
C126  C     C_R   0.208611 0.366546 0.934840 0.590633
C127  C     C_R   0.619160 0.191267 0.013366 0.062947
C128  C     C_R   0.357625 0.896906 0.927774 -0.258691
C129  C     C_R   0.297549 0.860160 0.993692 0.019726
C130  C     C_R   0.381702 0.192097 0.981474 0.065846
C131  C     C_R   0.707943 0.864320 0.011225 0.035773
C132  C     C_R   0.117610 0.692199 0.018202 0.069266
C133  C     C_R   0.790004 0.366764 0.988737 0.031904
C134  C     C_R   0.881726 0.691388 0.987027 0.064842
C135  C     C_R   0.203816 0.362266 0.005000 0.023576
C136  C     C_R   0.692601 0.204474 0.070505 -0.321839
C137  C     C_R   0.245228 0.834955 0.922803 -0.243727
C138  C     C_R   0.308410 0.205240 0.923327 -0.330572
C139  C     C_R   0.618914 0.117847 0.074103 -0.200432
C140  C     C_R   0.755790 0.836793 0.080218 -0.258240
C141  C     C_R   0.190839 0.705493 0.076212 -0.331988
C142  C     C_R   0.743132 0.338637 0.920339 -0.255134
C143  C     C_R   0.808357 0.704636 0.929890 -0.321870
C144  C     C_R   0.258064 0.338320 0.076761 -0.247460
C145  C     C_R   0.713007 0.247154 0.067865 -0.175587
C146  C     C_R   0.190595 0.812118 0.922552 -0.166363
C147  C     C_R   0.287654 0.247886 0.925408 -0.172031
C148  C     C_R   0.808881 0.812204 0.080698 -0.163566
C149  C     C_R   0.211538 0.747972 0.073061 -0.171076
C150  C     C_R   0.143393 0.398049 0.072061 -0.276696
C151  C     C_R   0.691382 0.313074 0.920721 -0.164241
C152  C     C_R   0.788005 0.747223 0.933036 -0.175911
C153  C     C_R   0.311656 0.314908 0.075866 -0.167271
C154  C     C_R   0.659923 0.276857 0.008387 0.124996
C155  C     C_R   0.186936 0.815186 0.992346 0.113253
C156  C     C_R   0.340111 0.277690 0.985613 0.129960
C157  C     C_R   0.814279 0.815090 0.012234 0.126232
C158  C     C_R   0.159084 0.777388 0.011872 0.129670
C159  C     C_R   0.686502 0.315429 0.989595 0.127238
C160  C     C_R   0.841065 0.776777 0.993078 0.124638
C161  C     C_R   0.881400 0.617938 0.926006 -0.200423
C162  C     C_R   0.312368 0.316101 0.003934 0.117029
C163  C     C_R   0.469885 0.975154 0.420881 0.562127
C164  C     C_R   0.415300 0.046546 0.510523 0.548059
C165  C     C_R   0.371902 0.970403 0.488187 0.568394
C166  C     C_R   0.373110 0.027905 0.325114 0.564661
C167  C     C_R   0.127643 0.470006 0.511637 0.571237
C168  C     C_R   0.126813 0.527231 0.674971 0.564103
C169  C     C_R   0.027868 0.476134 0.576661 0.560964
C170  C     C_R   0.086719 0.546616 0.490425 0.547253
C171  C     C_R   0.490745 0.971949 0.365478 -0.382561
C172  C     C_R   0.854888 0.400404 0.927055 -0.247131
C173  C     C_R   0.432579 0.044824 0.592313 -0.386510
C174  C     C_R   0.393468 0.968439 0.571630 -0.299096
C175  C     C_R   0.400930 0.027952 0.275511 -0.391002
C176  C     C_R   0.106699 0.468166 0.428454 -0.304865
C177  C     C_R   0.098704 0.527337 0.724289 -0.390849
C178  C     C_R   0.006578 0.472897 0.631697 -0.380281
C179  C     C_R   0.069944 0.544962 0.408844 -0.384889
C180  C     C_R   0.459481 0.999986 0.295943 0.052756
C181  C     C_R   0.427206 0.004859 0.625382 0.015185
C182  C     C_R   0.074217 0.504844 0.375232 0.018076
C183  C     C_R   0.118364 0.617834 0.075423 -0.204511
C184  C     C_R   0.038986 0.500113 0.702540 0.051891
C185  C     C_R   0.556707 0.120385 0.934555 0.582136
C186  C     C_R   0.428790 0.889259 0.067051 0.574501
C187  C     C_R   0.443029 0.121439 0.063677 0.583904
C188  C     C_R   0.576229 0.893643 0.933498 0.617908
C189  C     C_R   0.056849 0.621438 0.936312 0.583604
C190  C     C_R   0.921936 0.395817 0.066513 0.583598
C191  C     C_R   0.943612 0.620461 0.065567 0.581017
C192  C     C_R   0.072333 0.390110 0.933130 0.605217
C193  C     C_R   0.409504 0.002541 0.399704 -0.185487
C194  C     C_1   0.967397 0.001231 0.471004 -0.008850
C195  C     C_R   0.391222 0.007880 0.461258 -0.137467
C196  C     C_R   0.109035 0.507708 0.538810 -0.136774
C197  C     C_R   0.089661 0.502600 0.599428 -0.185322
C198  C     C_R   0.465079 0.965043 0.762944 -0.094098
C199  C     C_R   0.503843 0.036049 0.214459 -0.166592
C200  C     C_R   0.502607 0.963744 0.213427 -0.135235
C201  C     C_R   0.464933 0.036968 0.765057 -0.157296
C202  C     C_R   0.996503 0.463758 0.785663 -0.139279
C203  C     C_R   0.035585 0.536956 0.235210 -0.154788
C204  C     C_R   0.035818 0.465037 0.237360 -0.091992
H1    H     H_    0.688021 0.894869 0.139082 0.144705
H2    H     H_    0.454258 0.074235 0.630989 0.143160
H3    H     H_    0.780512 0.847687 0.897889 0.150077
H4    H     H_    0.045314 0.790648 0.916531 0.155231
H5    H     H_    0.719726 0.347952 0.103906 0.150565
H6    H     H_    0.955393 0.789895 0.087455 0.151072
H7    H     H_    0.268993 0.345621 0.883881 0.142184
H8    H     H_    0.412396 0.198936 0.785317 0.150866
H9    H     H_    0.478431 0.239623 0.805976 0.067749
H10   H     H_    0.353460 0.244995 0.832996 0.226348
H11   H     H_    0.422710 0.287198 0.870710 0.207701
H12   H     H_    0.383980 0.301076 0.723145 0.272427
H13   H     H_    0.383941 0.938266 0.593976 0.146633
H14   H     H_    0.306116 0.305320 0.730218 0.277369
H15   H     H_    0.316800 0.256716 0.684380 0.269930
H16   H     H_    0.434681 0.876116 0.241247 0.162576
H17   H     H_    0.368906 0.832695 0.199009 0.075144
H18   H     H_    0.360735 0.921213 0.273861 0.222688
H19   H     H_    0.293665 0.877859 0.235996 0.195437
H20   H     H_    0.392881 0.825516 0.342365 0.245563
H21   H     H_    0.383034 0.872344 0.392066 0.314712
H22   H     H_    0.459418 0.870216 0.382778 0.274405
H23   H     H_    0.594392 0.204508 0.209617 0.137701
H24   H     H_    0.376553 0.049294 0.220719 0.138385
H25   H     H_    0.524769 0.242200 0.188725 0.071328
H26   H     H_    0.647733 0.251257 0.159528 0.219282
H27   H     H_    0.569280 0.287461 0.104748 0.215457
H28   H     H_    0.595867 0.311818 0.244358 0.269881
H29   H     H_    0.672561 0.321712 0.237314 0.277586
H30   H     H_    0.675870 0.275662 0.298826 0.268933
H31   H     H_    0.594146 0.900944 0.758424 0.138860
H32   H     H_    0.649572 0.852760 0.795647 0.084263
H33   H     H_    0.681709 0.945705 0.759594 0.193661
H34   H     H_    0.758241 0.910839 0.828791 0.216499
H35   H     H_    0.115658 0.437891 0.405887 0.149754
H36   H     H_    0.707904 0.851874 0.718131 0.265775
H37   H     H_    0.721531 0.903066 0.681351 0.279503
H38   H     H_    0.629292 0.886198 0.645842 0.283191
H39   H     H_    0.904475 0.703801 0.789978 0.137226
H40   H     H_    0.974132 0.741152 0.809771 0.072783
H41   H     H_    0.851835 0.751352 0.839906 0.219691
H42   H     H_    0.930338 0.787550 0.893425 0.215285
H43   H     H_    0.902886 0.810793 0.752933 0.269888
H44   H     H_    0.826478 0.821156 0.760335 0.277629
H45   H     H_    0.822942 0.774564 0.699684 0.268877
H46   H     H_    0.123793 0.548107 0.779961 0.138407
H47   H     H_    0.901041 0.406786 0.240451 0.134465
H48   H     H_    0.849834 0.356940 0.205843 0.086717
H49   H     H_    0.810266 0.449007 0.236457 0.194039
H50   H     H_    0.736200 0.412452 0.167789 0.217183
H51   H     H_    0.788728 0.354789 0.280679 0.265367
H52   H     H_    0.772127 0.405807 0.315317 0.278973
H53   H     H_    0.865341 0.390493 0.352226 0.283084
H54   H     H_    0.089173 0.699057 0.215241 0.149490
H55   H     H_    0.022815 0.739371 0.195042 0.068466
H56   H     H_    0.147561 0.745462 0.167757 0.225832
H57   H     H_    0.960977 0.451409 0.615650 0.155079
H58   H     H_    0.077460 0.787181 0.128869 0.208172
H59   H     H_    0.115371 0.801896 0.275834 0.272221
H60   H     H_    0.193472 0.806339 0.269247 0.276977
H61   H     H_    0.183327 0.757926 0.315913 0.270082
H62   H     H_    0.061839 0.374502 0.754258 0.156634
H63   H     H_    0.129354 0.331948 0.797480 0.072773
H64   H     H_    0.134244 0.420441 0.720350 0.222569
H65   H     H_    0.202734 0.377953 0.758993 0.194423
H66   H     H_    0.104582 0.324365 0.653875 0.244533
H67   H     H_    0.113748 0.370999 0.603314 0.315211
H68   H     H_    0.049402 0.574579 0.370734 0.143046
H69   H     H_    0.037238 0.368667 0.612337 0.273284
H70   H     H_    0.734964 0.180932 0.113138 0.158282
H71   H     H_    0.249957 0.830176 0.870457 0.142541
H72   H     H_    0.266208 0.181584 0.880771 0.160212
H73   H     H_    0.748441 0.831630 0.130486 0.141737
H74   H     H_    0.233076 0.682009 0.119306 0.160157
H75   H     H_    0.750389 0.333722 0.869950 0.146996
H76   H     H_    0.765969 0.681167 0.886945 0.158843
H77   H     H_    0.255603 0.334798 0.130941 0.141251
H78   H     H_    0.584079 0.959461 0.622263 0.145501
H79   H     H_    0.450936 0.931703 0.739571 0.105115
H80   H     H_    0.543601 0.008840 0.567868 0.055357
H81   H     H_    0.653240 0.952279 0.554267 0.216632
H82   H     H_    0.613588 0.003884 0.500195 0.196236
H83   H     H_    0.670917 0.042779 0.638655 0.262620
H84   H     H_    0.737774 0.017298 0.625942 0.273301
H85   H     H_    0.716082 0.991837 0.693268 0.271220
H86   H     H_    0.516198 0.070448 0.486042 0.094036
H87   H     H_    0.531604 0.093466 0.582267 0.081174
H88   H     H_    0.466211 0.142379 0.413239 0.205349
H89   H     H_    0.481695 0.165559 0.508410 0.198545
H90   H     H_    0.508852 0.069372 0.234765 0.132063
H91   H     H_    0.617783 0.150603 0.586591 0.274001
H92   H     H_    0.583846 0.184991 0.494749 0.274368
H93   H     H_    0.602109 0.127307 0.490962 0.272870
H94   H     H_    0.281616 0.954933 0.313209 0.110976
H95   H     H_    0.242317 0.973461 0.368804 0.084040
H96   H     H_    0.247306 0.876693 0.324387 0.209811
H97   H     H_    0.202497 0.898375 0.370814 0.202359
H98   H     H_    0.118844 0.944016 0.239598 0.274527
H99   H     H_    0.111622 0.885773 0.216189 0.280373
H100  H     H_    0.163665 0.921135 0.193191 0.266143
H101  H     H_    0.500823 0.929837 0.227929 0.155643
H102  H     H_    0.247131 0.011310 0.203730 0.083283
H103  H     H_    0.255547 0.067483 0.177193 0.106774
H104  H     H_    0.179558 0.040011 0.263451 0.193384
H105  H     H_    0.184360 0.095030 0.231283 0.209236
H106  H     H_    0.113494 0.069658 0.079669 0.269294
H107  H     H_    0.062869 0.060173 0.125560 0.273316
H108  H     H_    0.108211 0.014630 0.112703 0.272973
H109  H     H_    0.217257 0.453528 0.686681 0.111194
H110  H     H_    0.256736 0.472423 0.631568 0.083763
H111  H     H_    0.250582 0.375279 0.672968 0.210123
H112  H     H_    0.354963 0.127776 0.859346 0.144572
H113  H     H_    0.446835 0.070319 0.743665 0.132669
H114  H     H_    0.295842 0.397568 0.627554 0.202209
H115  H     H_    0.379642 0.442247 0.760338 0.274671
H116  H     H_    0.386424 0.383794 0.781753 0.280805
H117  H     H_    0.334480 0.418604 0.805743 0.266277
H118  H     H_    0.251885 0.509265 0.797058 0.084051
H119  H     H_    0.244981 0.565600 0.824298 0.107105
H120  H     H_    0.321494 0.537021 0.739186 0.193226
H121  H     H_    0.318147 0.592130 0.772172 0.210558
H122  H     H_    0.387044 0.566075 0.923191 0.269235
H123  H     H_    0.438174 0.555909 0.878114 0.273804
H124  H     H_    0.997829 0.429847 0.770570 0.141856
H125  H     H_    0.390886 0.510951 0.889335 0.272698
H126  H     H_    0.913544 0.462515 0.374320 0.143009
H127  H     H_    0.957009 0.511045 0.430450 0.057518
H128  H     H_    0.842912 0.457265 0.440317 0.215399
H129  H     H_    0.886411 0.507522 0.498040 0.196067
H130  H     H_    0.833163 0.548663 0.362759 0.262157
H131  H     H_    0.763764 0.524587 0.372594 0.272752
H132  H     H_    0.784389 0.499234 0.304212 0.269888
H133  H     H_    0.986076 0.571972 0.514460 0.094782
H134  H     H_    0.972023 0.594893 0.418884 0.080479
H135  H     H_    0.053682 0.570326 0.256482 0.132034
H136  H     H_    0.038384 0.643448 0.588492 0.205598
H137  H     H_    0.023893 0.666516 0.493783 0.198574
H138  H     H_    0.887294 0.653031 0.415031 0.273560
H139  H     H_    0.922106 0.687334 0.507230 0.274709
H140  H     H_    0.902042 0.629918 0.510275 0.273223
H141  H     H_    0.050740 0.431736 0.260444 0.130185
H142  H     H_    0.990103 0.569393 0.764473 0.132437
H143  H     H_    0.721815 0.072028 0.246351 0.097886
H144  H     H_    0.278814 0.929794 0.745613 0.092438
H145  H     H_    0.278041 0.071891 0.753471 0.097855
H146  H     H_    0.720845 0.930039 0.255529 0.090968
H147  H     H_    0.221845 0.571959 0.246593 0.098112
H148  H     H_    0.312416 0.893532 0.862081 0.137428
H149  H     H_    0.779371 0.430090 0.743937 0.091723
H150  H     H_    0.778336 0.572050 0.753615 0.097749
H151  H     H_    0.220961 0.429899 0.254880 0.091212
H152  H     H_    0.771137 0.256071 0.107630 0.135340
H153  H     H_    0.156330 0.788634 0.872227 0.133232
H154  H     H_    0.229432 0.256519 0.884996 0.134469
H155  H     H_    0.839939 0.787471 0.129519 0.130424
H156  H     H_    0.269740 0.756690 0.113277 0.134461
H157  H     H_    0.661020 0.288103 0.872163 0.131284
H158  H     H_    0.729877 0.756135 0.893283 0.137319
H159  H     H_    0.646082 0.128473 0.139131 0.142982
H160  H     H_    0.347412 0.292355 0.127396 0.132037
H161  H     H_    0.520366 0.127971 0.749298 0.138579
H162  H     H_    0.590289 0.097236 0.839415 0.095199
H163  H     H_    0.584341 0.199536 0.826121 0.198414
H164  H     H_    0.659877 0.166656 0.909084 0.194429
H165  H     H_    0.677075 0.132592 0.803466 0.267396
H166  H     H_    0.686228 0.191913 0.807411 0.270406
H167  H     H_    0.602440 0.166368 0.720721 0.264763
H168  H     H_    0.572281 0.885570 0.182846 0.106219
H169  H     H_    0.536953 0.837437 0.114831 0.061427
H170  H     H_    0.188887 0.395011 0.137655 0.142342
H171  H     H_    0.538346 0.798100 0.235370 0.206639
H172  H     H_    0.625206 0.808561 0.250155 0.152089
H173  H     H_    0.645204 0.875718 0.336694 0.245028
H174  H     H_    0.634598 0.826299 0.380758 0.251810
H175  H     H_    0.559239 0.864838 0.324872 0.256176
H176  H     H_    0.464784 0.133464 0.241000 0.148417
H177  H     H_    0.391998 0.107640 0.145025 0.074396
H178  H     H_    0.420113 0.208474 0.168229 0.200782
H179  H     H_    0.339305 0.180219 0.081424 0.200690
H180  H     H_    0.311647 0.151205 0.181325 0.268456
H181  H     H_    0.854330 0.628569 0.861012 0.143028
H182  H     H_    0.313053 0.210756 0.178939 0.264148
H183  H     H_    0.390404 0.181441 0.266970 0.264249
H184  H     H_    0.448864 0.847570 0.755711 0.135259
H185  H     H_    0.437933 0.879307 0.825353 0.101482
H186  H     H_    0.519214 0.789319 0.865345 0.207006
H187  H     H_    0.510431 0.819968 0.939248 0.184979
H188  H     H_    0.372610 0.814705 0.841368 0.263268
H189  H     H_    0.415808 0.761027 0.870043 0.270307
H190  H     H_    0.380628 0.783568 0.766769 0.265434
H191  H     H_    0.035363 0.633271 0.759051 0.148525
H192  H     H_    0.810342 0.396862 0.861259 0.137737
H193  H     H_    0.107687 0.607119 0.854830 0.075299
H194  H     H_    0.080826 0.708075 0.832334 0.201179
H195  H     H_    0.161118 0.679541 0.919276 0.201299
H196  H     H_    0.188989 0.650213 0.819627 0.268455
H197  H     H_    0.188595 0.709766 0.822709 0.265037
H198  H     H_    0.110948 0.680908 0.734095 0.263675
H199  H     H_    0.060969 0.369907 0.187781 0.090891
H200  H     H_    0.997078 0.328494 0.114187 0.040834
H201  H     H_    0.976776 0.302315 0.223037 0.194447
H202  H     H_    0.069053 0.294525 0.250916 0.153380
H203  H     H_    0.144719 0.627905 0.140617 0.144822
H204  H     H_    0.112228 0.361662 0.343361 0.234133
H205  H     H_    0.072585 0.321027 0.374441 0.247075
H206  H     H_    0.019691 0.369239 0.316959 0.264252
H207  H     H_    0.980390 0.628044 0.251042 0.138255
H208  H     H_    0.910340 0.597313 0.160943 0.095490
H209  H     H_    0.916452 0.699610 0.174530 0.198150
H210  H     H_    0.840859 0.666795 0.091411 0.194326
H211  H     H_    0.823608 0.632639 0.196908 0.268128
H212  H     H_    0.814559 0.691962 0.193217 0.269109
H213  H     H_    0.898311 0.666362 0.279782 0.264775
H214  H     H_    0.535330 0.949827 0.380417 0.156445
H215  H     H_    0.935671 0.342929 0.762052 0.137890
H216  H     H_    0.930817 0.385246 0.822254 0.102639
H217  H     H_    0.996447 0.291861 0.891764 0.208997
H218  H     H_    0.976517 0.333029 0.943366 0.183101
H219  H     H_    0.840258 0.328288 0.820263 0.259196
H220  H     H_    0.877908 0.277396 0.878398 0.269352
H221  H     H_    0.863452 0.283917 0.776862 0.267120
H222  H     H_    0.545522 0.290018 0.914309 0.151038
H223  H     H_    0.226408 0.847220 0.109391 0.142481
H224  H     H_    0.453932 0.291157 0.080577 0.155015
N1    N     N_R   0.579040 0.919410 0.042340 -0.074828
N2    N     N_R   0.460440 0.916550 0.042730 -0.116221
N3    N     N_R   0.460440 0.083450 0.042730 -0.096238
N4    N     N_R   0.539560 0.916550 0.957270 -0.114487
N5    N     N_R   0.039560 0.583450 0.957270 -0.096190
N6    N     N_R   0.960440 0.416550 0.042730 -0.117483
N7    N     N_R   0.960440 0.583450 0.042730 -0.095408
N8    N     N_R   0.039560 0.416550 0.957270 -0.113857
N9    N     N_R   0.478900 0.978820 0.837270 -0.049753
N10   N     N_R   0.521100 0.021180 0.162730 -0.039411
N11   N     N_R   0.521100 0.978820 0.162730 -0.053354
N12   N     N_R   0.420960 0.080590 0.957660 -0.070778
N13   N     N_R   0.478900 0.021180 0.837270 -0.045146
N14   N     N_R   0.978900 0.478820 0.837270 -0.054169
N15   N     N_R   0.021100 0.521180 0.162730 -0.045444
N16   N     N_R   0.021100 0.478820 0.162730 -0.046947
N17   N     N_R   0.978900 0.521180 0.837270 -0.039145
N18   N     N_R   0.639700 0.024040 0.162340 -0.037441
N19   N     N_R   0.360300 0.975960 0.837660 -0.039618
N20   N     N_R   0.360300 0.024040 0.837660 -0.037798
N21   N     N_R   0.639700 0.975960 0.162340 -0.038990
N22   N     N_R   0.139700 0.524040 0.162340 -0.037901
N23   N     N_R   0.420960 0.919410 0.957660 -0.067772
N24   N     N_R   0.860300 0.475960 0.837660 -0.039545
N25   N     N_R   0.860300 0.524040 0.837660 -0.037466
N26   N     N_R   0.139700 0.475960 0.162340 -0.037898
N27   N     N_R   0.579040 0.080590 0.042340 -0.070635
N28   N     N_R   0.079040 0.419410 0.042340 -0.070654
N29   N     N_R   0.920960 0.580590 0.957660 -0.070718
N30   N     N_R   0.920960 0.419410 0.957660 -0.072282
N31   N     N_R   0.079040 0.580590 0.042340 -0.070874
N32   N     N_R   0.539560 0.083450 0.957270 -0.095336
Ni1   Ni    Ni4+2 0.550430 0.949580 0.102370 0.189351
Ni2   Ni    Ni4+2 0.449570 0.050420 0.897630 0.231822
Ni3   Ni    Ni4+2 0.449570 0.949580 0.897630 0.193697
Ni4   Ni    Ni4+2 0.550430 0.050420 0.102370 0.236527
Ni5   Ni    Ni4+2 0.050430 0.449580 0.102370 0.191872
Ni6   Ni    Ni4+2 0.949570 0.550420 0.897630 0.235843
Ni7   Ni    Ni4+2 0.949570 0.449580 0.897630 0.190343
Ni8   Ni    Ni4+2 0.050430 0.550420 0.102370 0.232046
O1    O     O_3   0.517943 0.136281 0.852677 -0.677168
O2    O     O_3   0.337483 0.893451 0.129651 -0.666765
O3    O     O_3   0.511190 0.209648 0.083030 -0.641396
O4    O     O_3   0.677805 0.903546 0.885542 -0.660466
O5    O     O_3   0.988074 0.709474 0.916308 -0.642398
O6    O     O_3   0.818361 0.406536 0.113123 -0.658312
O7    O     O_3   0.011425 0.709035 0.088280 -0.641374
O8    O     O_3   0.159375 0.393044 0.865619 -0.664061
O9    O     O_3   0.508648 0.950653 0.494994 -0.648680
O10   O     O_3   0.420954 0.085979 0.478263 -0.618737
O11   O     O_3   0.338388 0.933594 0.437412 -0.662465
O12   O     O_3   0.465868 0.864688 0.141240 -0.683621
O13   O     O_3   0.314424 0.054719 0.305945 -0.626385
O14   O     O_3   0.160092 0.432986 0.561995 -0.662088
O15   O     O_3   0.186651 0.553301 0.695411 -0.626487
O16   O     O_3   0.988296 0.452417 0.501532 -0.649222
O17   O     O_3   0.082188 0.586173 0.523283 -0.618448
O18   O     O_3   0.478540 0.138175 0.144990 -0.671574
O19   O     O_3   0.545722 0.874698 0.854582 -0.684936
O20   O     O_3   0.021468 0.638048 0.854959 -0.672042
O21   O     O_3   0.951160 0.378376 0.146023 -0.659153
O22   O     O_3   0.982568 0.636346 0.147491 -0.676827
O23   O     O_3   0.037162 0.365162 0.859488 -0.705696
O24   O     O_3   0.489494 0.209076 0.912400 -0.640872

loop_
_geom_bond_atom_site_label_1
_geom_bond_atom_site_label_2
_ccdc_geom_bond_type
C125  C134  A    
C81   H43   S    
C200  H101  S    
C35   C154  A    
C25   C204  A    
C114  C115  S    
C164  C195  A    
C172  H192  S    
C179  H68   S    
C176  C182  A    
C46   C155  A    
C199  N10   A    
C124  C133  A    
C51   H189  S    
C111  H126  S    
C202  H124  S    
C93   H82   S    
C106  C107  S    
C56   H202  S    
C29   C33   S    
C104  H107  S    
C108  C109  S    
C95   H86   S    
C66   H11   S    
C186  O12   S    
C118  H140  S    
C131  C140  A    
N18   N21   A    
C134  C143  A    
N24   Ni7   S    
C199  H90   S    
C82   O6    S    
C84   H52   S    
C166  C193  A    
C47   H179  S    
C110  H122  S    
C99   H97   S    
C34   C194  S    
N2    N23   A    
C25   C182  S    
C155  C158  S    
C71   H21   S    
C55   H200  S    
C20   C132  S    
C128  H148  S    
C165  C195  A    
C147  H154  S    
C122  O4    S    
C45   C47   S    
C169  O16   S    
C168  C197  A    
C27   C31   S    
C21   C201  A    
C119  O24   S    
C28   C32   S    
C127  C136  A    
C161  H181  S    
C20   C189  A    
C196  C197  S    
C137  H71   S    
C203  N15   A    
C175  H24   S    
N6    Ni5   S    
C76   H33   S    
C142  C151  A    
C100  H100  S    
C54   H196  S    
C43   C44   S    
C65   H9    S    
C102  H103  S    
N16   Ni5   S    
C91   H69   S    
C68   H3    S    
C70   H19   S    
C9    N24   A    
C164  C173  A    
C61   H213  S    
C60   H210  S    
C157  C160  S    
N6    N30   A    
C8    C28   A    
C139  N27   A    
N31   Ni8   S    
C120  O2    S    
C130  C138  A    
N29   Ni6   S    
N4    Ni3   S    
C14   C130  S    
C22   C200  A    
C10   H150  S    
C67   H14   S    
C62   H216  S    
C78   H39   S    
C45   H177  S    
C72   C73   S    
C105  H110  S    
C94   H83   S    
C115  H131  S    
C177  C184  A    
C33   C38   T    
C54   H198  S    
C57   H224  S    
C89   H64   S    
C123  O5    S    
C118  H138  S    
C14   C187  A    
C48   H182  S    
C177  H46   S    
C150  N28   A    
C69   H17   S    
C45   H176  S    
C69   C70   S    
C49   H184  S    
C114  H128  S    
C106  H114  S    
C176  H35   S    
C129  C137  A    
C88   C89   S    
C13   C24   T    
C98   C99   S    
C138  H72   S    
C144  H77   S    
C150  H170  S    
C59   H207  S    
C31   C36   T    
C52   O20   S    
N1    Ni1   S    
N32   Ni2   S    
C86   H58   S    
C88   O8    S    
C53   H195  S    
C40   C41   S    
C123  C132  A    
C48   H180  S    
C97   H92   S    
C114  H129  S    
C121  C130  A    
C6    H145  S    
C79   C158  A    
C85   C86   S    
C14   C112  A    
C133  C142  A    
C7    C26   A    
C77   H37   S    
C125  O7    S    
C82   H48   S    
C47   H178  S    
C145  H152  S    
C78   C80   S    
C59   O22   S    
C111  H127  S    
C90   C159  A    
C7    H146  S    
C96   H89   S    
C92   H78   S    
C70   H18   S    
C5    C27   A    
C99   C100  S    
C101  C160  A    
C72   H23   S    
C17   C135  S    
C77   H36   S    
C9    H149  S    
C173  H2    S    
N25   Ni6   S    
C108  O15   S    
C95   H87   S    
C89   C91   S    
C149  C158  A    
C41   H166  S    
C187  N3    A    
C183  N31   A    
C66   C67   S    
C85   O7    S    
C64   H220  S    
C148  H155  S    
N14   Ni7   S    
C67   H12   S    
C1    C12   A    
C110  H125  S    
C98   H95   S    
C106  H111  S    
N13   Ni2   S    
C57   C156  A    
C30   C34   T    
C83   H50   S    
C120  C129  A    
C151  H157  S    
C164  O10   S    
C84   H53   S    
C107  H117  S    
C19   C172  A    
C6    N20   A    
C39   C40   S    
N9    N13   A    
C113  C126  A    
C165  C174  A    
C103  H105  S    
C149  H156  S    
C151  C159  A    
N8    Ni7   S    
C183  H203  S    
C116  O17   S    
C94   H85   S    
C83   C84   S    
C204  H141  S    
C46   C120  A    
C75   H32   S    
C32   C37   T    
C85   H55   S    
C86   H56   S    
C116  H133  S    
C145  C154  A    
C69   O2    S    
N18   Ni4   S    
C26   C30   S    
C3    N17   A    
C80   H42   S    
C74   H30   S    
C87   H59   S    
C44   H173  S    
C73   H27   S    
C52   C53   S    
C169  C197  A    
C75   O4    S    
N1    N4    A    
C161  N29   A    
C132  C141  A    
C92   O9    S    
C71   H20   S    
C44   H175  S    
C187  O18   S    
C39   H162  S    
N24   N25   A    
C202  N14   A    
C90   H5    S    
C189  N5    A    
C175  C180  A    
C7    N21   A    
C43   H172  S    
C137  C146  A    
C67   H15   S    
C154  C159  S    
C92   H80   S    
C117  C118  S    
C93   H81   S    
C55   O21   S    
C143  H76   S    
C104  H108  S    
C56   C58   S    
C18   C134  S    
C40   H163  S    
C148  C157  A    
C163  O9    S    
C102  C103  S    
C192  N8    A    
C16   C127  S    
C124  O6    S    
C95   O10   S    
C152  H158  S    
N22   Ni8   S    
C63   C64   S    
C59   C60   S    
C49   C50   S    
C50   H186  S    
C110  H123  S    
C102  O13   S    
C96   H88   S    
C119  C127  A    
C107  H116  S    
C49   O19   S    
C55   C56   S    
C58   H205  S    
C73   C74   S    
C122  C131  A    
C55   H199  S    
C17   C150  A    
C204  N16   A    
N30   Ni7   S    
C91   H66   S    
C98   O11   S    
C105  O14   S    
C46   H223  S    
C166  C175  A    
C186  N2    A    
C42   H168  S    
N9    Ni3   S    
C141  H74   S    
C16   C185  A    
C107  H115  S    
C168  C177  A    
C69   H16   S    
C165  O11   S    
C76   H34   S    
C51   H188  S    
N26   Ni5   S    
N10   N11   A    
C65   H8    S    
C3    C23   A    
C146  C155  A    
C95   C96   S    
C185  O1    S    
C42   H169  S    
C70   C71   S    
C163  C171  A    
C198  N9    A    
C109  H121  S    
C179  C182  A    
C173  C181  A    
C108  H119  S    
C81   H44   S    
C102  H102  S    
C17   C192  A    
C188  N4    A    
C15   C186  A    
C18   C191  A    
C5    H144  S    
N21   Ni1   S    
C23   C202  A    
N19   N20   A    
C51   H190  S    
C97   H93   S    
C113  H7    S    
C109  H120  S    
C74   H28   S    
C105  H109  S    
C35   H222  S    
C86   C87   S    
C94   H84   S    
C25   C203  A    
C56   H201  S    
C53   C54   S    
N7    Ni8   S    
C178  H57   S    
C78   H40   S    
C60   C61   S    
C2    C194  T    
N5    Ni6   S    
C66   H10   S    
C172  N30   A    
C62   C63   S    
C22   C199  A    
C15   C129  S    
C63   H217  S    
C84   H51   S    
C50   C51   S    
C112  N12   A    
C191  O22   S    
C147  C156  A    
C1    N1    A    
C87   H61   S    
C20   C183  A    
C22   C180  S    
C143  C152  A    
C126  C135  A    
C15   C128  A    
C78   O5    S    
N27   N32   A    
C71   H22   S    
C42   C43   S    
C68   C122  A    
C68   C157  A    
C170  O17   S    
C52   H191  S    
C11   H151  S    
C53   H194  S    
C64   H221  S    
C97   H91   S    
C90   C124  A    
C140  H73   S    
C63   H218  S    
C136  H70   S    
C4    C26   A    
C88   H63   S    
C19   C133  S    
C188  O19   S    
C105  C106  S    
C170  C179  A    
N28   Ni5   S    
C153  C162  A    
C100  H99   S    
C109  C110  S    
C117  H137  S    
C10   C29   A    
N22   N26   A    
C8    H147  S    
C11   C28   A    
C42   O12   S    
C92   C93   S    
C18   C161  A    
C111  C114  S    
N10   Ni4   S    
C58   H204  S    
C139  H159  S    
C201  H113  S    
C23   C184  S    
C189  O20   S    
C60   H209  S    
C82   C83   S    
C61   H212  S    
C103  C104  S    
C201  N13   A    
C117  H136  S    
C112  H112  S    
C170  C196  A    
C152  C160  A    
C190  N6    A    
C93   C94   S    
C12   C131  S    
C167  C196  A    
C35   C119  A    
C62   H215  S    
C21   C198  A    
C75   C76   S    
C140  C148  A    
C141  C149  A    
C190  O21   S    
C115  H132  S    
C21   C181  S    
C203  H135  S    
C118  H139  S    
C83   H49   S    
C54   H197  S    
C89   H65   S    
C91   H67   S    
N17   Ni6   S    
C45   O18   S    
C163  C193  A    
C79   H4    S    
C12   C188  A    
C10   N25   A    
N12   Ni2   S    
C116  C117  S    
C192  O23   S    
C144  C153  A    
C49   H185  S    
C99   H96   S    
C113  C162  A    
N7    N29   A    
C153  H160  S    
C126  O8    S    
C193  C195  S    
C24   C38   S    
C59   H208  S    
N5    N31   A    
C75   H31   S    
C85   H54   S    
C1    H1    S    
C13   C37   S    
C52   H193  S    
C9    C29   A    
C11   N26   A    
C156  C162  S    
N3    Ni4   S    
C168  O15   S    
C166  O13   S    
C174  C181  A    
C44   H174  S    
C73   H26   S    
C72   H25   S    
C108  H118  S    
C77   H38   S    
C47   C48   S    
C82   H47   S    
C39   H161  S    
C72   O3    S    
C76   C77   S    
C41   H165  S    
C79   C123  A    
C200  N11   A    
C43   H171  S    
C74   H29   S    
N8    N28   A    
N2    Ni1   S    
C65   O24   S    
C104  H106  S    
C6    C27   A    
C128  N23   A    
C138  C147  A    
C96   C97   S    
C191  N7    A    
C40   H164  S    
C174  H13   S    
N19   Ni3   S    
C111  O16   S    
C121  O3    S    
C185  N32   A    
C135  C144  A    
C103  H104  S    
C64   H219  S    
C50   H187  S    
C3    H142  S    
N11   Ni1   S    
C171  C180  A    
C16   C139  A    
C98   H94   S    
C171  H214  S    
C169  C178  A    
C115  H130  S    
C2    C36   S    
C58   H206  S    
N20   Ni2   S    
C136  C145  A    
C81   H45   S    
C80   C81   S    
C146  H153  S    
C142  H75   S    
C48   H183  S    
C8    N22   A    
C101  H6    S    
C4    H143  S    
N14   N17   A    
C61   H211  S    
N15   N16   A    
C88   H62   S    
C62   O23   S    
C41   H167  S    
C87   H60   S    
N27   Ni4   S    
C100  H98   S    
C39   O1    S    
C19   C190  A    
C57   C121  A    
C198  H79   S    
C4    N18   A    
N23   Ni3   S    
N15   Ni8   S    
C5    N19   A    
C65   C66   S    
C80   H41   S    
N3    N12   A    
C167  O14   S    
C116  H134  S    
C101  C125  A    
C178  C184  A    
C167  C176  A    
