data_mof_unit_31063.cif
_audit_creation_date              2013-03-05T15:41:38-0500
_audit_creation_method            fapswitch 2.2
_symmetry_space_group_name_H-M    P1
_symmetry_Int_Tables_number       1
_space_group_crystal_system       triclinic
_cell_length_a                    7.862276
_cell_length_b                    8.746725
_cell_length_c                    15.726415
_cell_angle_alpha                 92.370271
_cell_angle_beta                  84.934689
_cell_angle_gamma                 92.844902
_cell_volume                      1075.19785508

loop_
_atom_site_label
_atom_site_type_symbol
_atom_site_description
_atom_site_fract_x
_atom_site_fract_y
_atom_site_fract_z
_atom_type_partial_charge
O1    O     O_R   0.389240 0.738570 0.505550 -0.586601
O2    O     O_R   0.678400 0.711630 0.491050 -0.586204
C1    C     C_R   0.544266 0.793487 0.497215 0.888282
O3    O     O_R   0.355360 0.513470 0.630110 -0.591964
O4    O     O_R   0.644510 0.486530 0.615610 -0.603467
C2    C     C_R   0.500986 0.503825 0.661292 0.880238
Zn1   Zn    Zn3+2 0.306930 0.517990 0.509680 1.100262
Zn2   Zn    Zn3+2 0.693070 0.482010 0.490320 1.106036
O5    O     O_R   0.321600 0.288370 0.508950 -0.587686
O6    O     O_R   0.610760 0.261430 0.494450 -0.586882
O7    O     O_R   0.355490 0.513470 0.384390 -0.610656
O8    O     O_R   0.644640 0.486530 0.369890 -0.582404
C3    C     C_R   0.455740 0.206496 0.502681 0.882589
C4    C     C_R   0.499345 0.497120 0.338678 0.879540
C5    C     C_3   0.439451 0.680357 0.960794 0.474807
C6    C     C_3   0.706481 0.512332 0.938833 0.518431
C7    C     C_3   0.717957 0.527798 0.041440 0.297279
C8    C     C_1   0.501380 0.497047 0.249938 0.025598
C9    C     C_3   0.513847 0.528861 0.916455 -0.348720
C10   C     C_3   0.418353 0.659239 0.061670 0.334083
C11   C     C_3   0.523703 0.513739 0.082748 -0.384124
C12   C     C_3   0.431116 0.364249 0.044738 0.137167
C13   C     C_3   0.391045 0.394065 0.952688 0.012964
C14   C     C_1   0.511115 0.501329 0.174504 0.262353
C15   C     C_1   0.507270 0.527393 0.824929 0.252955
C16   C     C_1   0.503917 0.517532 0.749830 -0.004826
H1    H     H_    0.262003 0.439965 0.960544 0.216132
H2    H     H_    0.307377 0.338982 0.082716 0.217076
C17   C     C_2   0.567942 0.955192 0.501185 0.004685
C18   C     C_2   0.432128 0.044774 0.498467 0.002066
N1    N     N_2   0.950340 0.457950 0.477370 -0.132264
H3    H     H_    0.013094 0.380612 0.436262 0.230686
N2    N     N_2   0.049660 0.542050 0.522630 -0.131794
H4    H     H_    0.986902 0.619379 0.563744 0.233154
N3    N     N_R   0.459889 0.805515 0.107386 0.291548
O9    O     O_R   0.362175 0.918414 0.098322 -0.170096
O10   O     O_R   0.545739 0.812424 0.174440 -0.302217
Cl1   Cl    Cl    0.240856 0.723507 0.920066 -0.309572
Cl2   Cl    Cl    0.198175 0.619955 0.101447 -0.410955
Cl3   Cl    Cl    0.541322 0.192430 0.052972 -0.272130
N4    N     N_R   0.737420 0.014861 0.514574 0.231663
O11   O     O_R   0.855503 0.015551 0.451224 -0.267255
O12   O     O_R   0.776264 0.056487 0.591130 -0.287399
N5    N     N_R   0.262727 0.985094 0.484912 0.231625
O13   O     O_R   0.144300 0.984753 0.548101 -0.267771
O14   O     O_R   0.224418 0.942682 0.408377 -0.288491
Cl4   Cl    Cl    0.566587 0.848313 0.929805 -0.260739
Cl5   Cl    Cl    0.780694 0.332654 0.893015 -0.289670
Cl6   Cl    Cl    0.855038 0.635183 0.876465 -0.330482
N6    N     N_R   0.798047 0.673619 0.073940 0.251571
O15   O     O_R   0.837658 0.682610 0.152769 -0.228935
O16   O     O_R   0.839318 0.791467 0.027684 -0.164611
N7    N     N_R   0.824550 0.405835 0.069134 0.304058
O17   O     O_R   0.973099 0.384769 0.028406 -0.265574
O18   O     O_R   0.803204 0.357346 0.146685 -0.284030
N8    N     N_R   0.365094 0.256139 0.896671 0.278920
O19   O     O_R   0.213546 0.222747 0.871866 -0.223471
O20   O     O_R   0.486774 0.166199 0.870444 -0.184776

loop_
_geom_bond_atom_site_label_1
_geom_bond_atom_site_label_2
_geom_bond_distance
_ccdc_geom_bond_type
C7    N6    1.485843 S    
O4    Zn2   1.972782 S    
C9    C13   1.578732 S    
N1    N2    1.286595 D    
C5    Cl1   1.801609 S    
C17   C18   1.360095 D    
C13   H1    1.104530 S    
Zn1   N2    2.035475 S    
N4    O11   1.300427 A    
C4    C8    1.394227 S    
N6    O16   1.297735 A    
N1    H3    1.029368 S    
C5    Cl4   1.795062 S    
Zn2   O8    1.966865 S    
C12   Cl3   1.786420 S    
C6    Cl5   1.803515 S    
N2    H4    1.029382 S    
O8    C4    1.291411 A    
C13   N8    1.480707 S    
C12   H2    1.113111 S    
N7    O17   1.299138 A    
N8    O19   1.302033 A    
C5    C9    1.585155 S    
N4    O12   1.301141 A    
C18   N5    1.436574 S    
C2    C16   1.394723 S    
O1    Zn1   2.006095 S    
O3    Zn1   1.966867 S    
C8    C14   1.184033 T    
Zn2   O6    2.006095 S    
N3    O10   1.299093 A    
N8    O20   1.297079 A    
N6    O15   1.302956 A    
O2    C1    1.298216 A    
N7    O18   1.301938 A    
C6    C9    1.599577 S    
O4    C2    1.295050 A    
C9    C15   1.444370 S    
O7    C4    1.296321 A    
O2    Zn2   2.016942 S    
C6    Cl6   1.800325 S    
C7    N7    1.490532 S    
C3    C18   1.417081 S    
C1    C17   1.416923 S    
C10   C11   1.613568 S    
O3    C2    1.292536 A    
C11   C14   1.445851 S    
Zn1   O5    2.016941 S    
C10   Cl2   1.809310 S    
O5    C3    1.298311 A    
C12   C13   1.543616 S    
C6    C7    1.623799 S    
Zn1   O7    1.972782 S    
C17   N4    1.436543 S    
C15   C16   1.183140 T    
C11   C12   1.585748 S    
Zn2   N1    2.035475 S    
C10   N3    1.477967 S    
C7    C11   1.607011 S    
N5    O13   1.300409 A    
N3    O9    1.300757 A    
N5    O14   1.301164 A    
C5    C10   1.597831 S    
O1    C1    1.285457 A    
O6    C3    1.285414 A    
