data_mof_unit_12096.cif
_audit_creation_date              2013-03-05T16:19:34-0500
_audit_creation_method            fapswitch 2.2
_symmetry_space_group_name_H-M    P1
_symmetry_Int_Tables_number       1
_space_group_crystal_system       triclinic
_cell_length_a                    8.267606
_cell_length_b                    19.087049
_cell_length_c                    26.884788
_cell_angle_alpha                 99.269094
_cell_angle_beta                  92.689603
_cell_angle_gamma                 88.019901
_cell_volume                      4180.95593526

loop_
_atom_site_label
_atom_site_type_symbol
_atom_site_description
_atom_site_fract_x
_atom_site_fract_y
_atom_site_fract_z
_atom_type_partial_charge
P1    P     P_3+3 0.926760 0.336170 0.451740 0.467952
O1    O     O_2   0.103290 0.325410 0.465600 -0.360356
O2    O     O_3   0.857760 0.414170 0.470020 -0.396336
O3    O     O_3   0.374170 0.371120 0.556000 -0.360499
O4    O     O_2   0.293869 0.247359 0.512786 -0.416722
O5    O     O_3   0.914678 0.315152 0.385979 -0.563836
O6    O     O_3   0.337564 0.257880 0.611274 -0.517706
H1    H     H_    0.416349 0.346977 0.659725 0.111877
C1    C     C_3   0.405663 0.256820 0.698589 -0.905569
H2    H     H_    0.284792 0.274859 0.712660 0.285229
H3    H     H_    0.411072 0.197919 0.689791 0.245174
P2    P     P_3+3 0.399470 0.558680 0.614150 0.473352
P3    P     P_3+3 0.958305 0.411123 0.647552 0.459580
O7    O     O_2   0.227790 0.537410 0.620340 -0.361947
O8    O     O_3   0.969630 0.407570 0.582610 -0.376100
O9    O     O_2   0.068974 0.470445 0.674603 -0.384136
O10   O     O_3   0.396072 0.651151 0.631461 -0.551573
O11   O     O_3   0.045627 0.331676 0.662014 -0.505208
C2    C     C_3   0.965107 0.275329 0.631463 0.531551
H4    H     H_    0.009822 0.267924 0.592542 0.123257
H5    H     H_    0.832147 0.284950 0.629749 -0.017449
C3    C     C_3   0.995192 0.206801 0.653023 -0.989670
H6    H     H_    0.124201 0.189569 0.650695 0.287428
H7    H     H_    0.960528 0.214588 0.692990 0.269303
C4    C     C_3   0.840714 0.619464 0.632268 0.423920
H8    H     H_    0.716244 0.606801 0.617740 0.093368
H9    H     H_    0.923319 0.573215 0.620819 0.141885
C5    C     C_3   0.842528 0.634788 0.689573 -0.906579
H10   H     H_    0.755351 0.678945 0.702169 0.269274
H11   H     H_    0.808010 0.586987 0.704694 0.227273
H12   H     H_    0.965986 0.649699 0.704803 0.266873
Ba1   Ba    Ba6+2 0.160260 0.465850 0.521400 1.552778
C6    C     C_3   0.977815 0.369508 0.364462 0.401686
H13   H     H_    0.094422 0.387059 0.383412 0.109351
H14   H     H_    0.889472 0.414873 0.367110 0.101375
C7    C     C_3   0.006162 0.340828 0.309242 -0.903053
H15   H     H_    0.087175 0.292818 0.306379 0.279977
H16   H     H_    0.064179 0.380739 0.290869 0.228593
H17   H     H_    0.888957 0.326575 0.288865 0.257380
C8    C     C_3   0.333670 0.682579 0.590856 0.454221
H18   H     H_    0.207564 0.666331 0.581918 0.081655
H19   H     H_    0.407467 0.667461 0.557145 0.137787
C9    C     C_3   0.335791 0.762878 0.605664 -0.977274
H20   H     H_    0.259525 0.779913 0.638610 0.269896
H21   H     H_    0.287696 0.788811 0.573788 0.217974
H22   H     H_    0.461875 0.780078 0.615482 0.269838
P4    P     P_3+3 0.883550 0.663840 0.548300 0.465576
O12   O     O_2   0.707020 0.674640 0.534420 -0.358847
O13   O     O_3   0.952550 0.585840 0.530020 -0.405372
O14   O     O_3   0.436140 0.628890 0.444040 -0.361863
O15   O     O_3   0.891204 0.679716 0.614351 -0.560707
P5    P     P_3+3 0.833173 0.583033 0.351352 0.469749
O16   O     O_3   0.350480 0.462320 0.439870 -0.395594
O17   O     O_3   0.840680 0.592440 0.417430 -0.389780
O18   O     O_2   0.662095 0.557474 0.332852 -0.378563
O19   O     O_3   0.835661 0.666054 0.331626 -0.523535
Ba2   Ba    Ba6+2 0.649930 0.534160 0.478640 1.550687
P6    P     P_3+3 0.407670 0.281407 0.556160 0.422579
C10   C     C_3   0.439044 0.288535 0.651828 0.447004
H23   H     H_    0.568583 0.277040 0.644068 0.009000
H24   H     H_    0.498672 0.273786 0.728696 0.269019
O20   O     O_3   0.459840 0.537690 0.560170 -0.413033
C11   C     C_3   0.469416 0.317008 0.399366 0.441283
H25   H     H_    0.594642 0.334996 0.409153 0.093579
H26   H     H_    0.394383 0.330260 0.432968 0.132130
C12   C     C_3   0.474829 0.236708 0.384484 -0.974534
H27   H     H_    0.551595 0.221243 0.351469 0.273332
H28   H     H_    0.526646 0.211692 0.416437 0.216323
H29   H     H_    0.350480 0.217185 0.374755 0.266732
P7    P     P_3+3 0.400315 0.440589 0.376653 0.448217
O21   O     O_2   0.582520 0.462630 0.379680 -0.359422
O22   O     O_3   0.402757 0.348171 0.358835 -0.558879
H30   H     H_    0.921514 0.163986 0.631080 0.221465
C13   C     C_3   0.867481 0.718300 0.373445 0.502942
H31   H     H_    0.777693 0.718116 0.402916 0.157946
H32   H     H_    0.990804 0.709013 0.389015 0.010879
C14   C     C_3   0.857813 0.790820 0.356688 -0.976249
H33   H     H_    0.871573 0.833317 0.389859 0.224170
H34   H     H_    0.955235 0.794869 0.330305 0.258299
H35   H     H_    0.738446 0.798882 0.337478 0.284785
P8    P     P_3+3 0.405881 0.719032 0.443898 0.414016
C15   C     C_3   0.366158 0.709874 0.348348 0.410884
H36   H     H_    0.241350 0.732581 0.353515 0.039642
O23   O     O_2   0.526057 0.753215 0.485419 -0.416298
O24   O     O_3   0.471554 0.740697 0.387664 -0.519924
H37   H     H_    0.365317 0.651155 0.346219 0.111038
H38   H     H_    0.336284 0.705647 0.267634 0.264097
C16   C     C_3   0.423243 0.726258 0.298669 -0.901477
H39   H     H_    0.543913 0.700731 0.290706 0.287307
H40   H     H_    0.431188 0.784560 0.300318 0.246677
C17   C     C_R   0.959859 0.802240 0.526292 -0.309855
H41   H     H_    0.881283 0.823488 0.556424 0.156998
C18   C     C_R   0.992475 0.728044 0.517972 0.306745
C19   C     C_R   0.132541 0.813523 0.458305 -0.336946
H42   H     H_    0.168071 0.837769 0.427060 0.143863
C20   C     C_R   0.200061 0.746413 0.462542 0.220200
C21   C     C_R   0.688221 0.190569 0.546635 -0.354318
H43   H     H_    0.655147 0.168206 0.578973 0.139336
C22   C     C_R   0.616601 0.256232 0.540076 0.220875
C23   C     C_R   0.858728 0.198954 0.477614 -0.312728
H44   H     H_    0.938992 0.176883 0.448145 0.157944
C24   C     C_R   0.821103 0.272762 0.483443 0.312598
C25   C     C_R   0.020338 0.846969 0.493543 0.097753
C26   C     C_R   0.118772 0.701648 0.487771 -0.454836
H45   H     H_    0.160412 0.647022 0.486311 0.159442
C27   C     C_R   0.800097 0.155842 0.511796 0.100887
C28   C     C_R   0.692598 0.299326 0.512371 -0.433565
H46   H     H_    0.645711 0.352690 0.511167 0.158234
C29   C     C_R   0.228606 0.966419 0.470213 -0.174439
C30   C     C_R   0.321285 0.018667 0.456154 -0.123896
C31   C     C_R   0.278007 0.088921 0.471099 -0.098380
C32   C     C_R   0.135726 0.105757 0.496370 -0.144392
C33   C     C_R   0.018178 0.054624 0.497552 0.051294
C34   C     C_R   0.069699 0.981090 0.487678 0.102667
C35   C     C_R   0.856891 0.076958 0.510885 -0.069309
C36   C     C_R   0.752424 0.022077 0.519945 0.101198
C37   C     C_R   0.803438 0.948492 0.509443 0.056930
C38   C     C_R   0.964543 0.926169 0.495983 -0.072931
C39   C     C_R   0.594885 0.036577 0.538711 -0.177053
C40   C     C_R   0.502955 0.983784 0.552531 -0.116519
C41   C     C_R   0.545063 0.913621 0.536349 -0.103101
C42   C     C_R   0.685617 0.897359 0.510272 -0.152476
H47   H     H_    0.292646 0.917091 0.470019 0.144603
H48   H     H_    0.437998 0.004970 0.439994 0.139761
H49   H     H_    0.360926 0.129498 0.466097 0.158193
H50   H     H_    0.115651 0.159072 0.514958 0.186266
H51   H     H_    0.530853 0.086084 0.540241 0.144970
H52   H     H_    0.387251 0.997178 0.569439 0.137913
H53   H     H_    0.462763 0.872529 0.540822 0.153936
H54   H     H_    0.703959 0.844322 0.490982 0.186007
C43   C     C_R   0.254817 0.445450 0.170401 0.543615
O25   O     O_2   0.256040 0.390886 0.188828 -0.576158
N1    N     N_R   0.212321 0.509531 0.199219 -0.167471
C44   C     C_R   0.204009 0.571196 0.178223 0.529211
C45   C     C_2   0.028395 0.527755 0.268884 -0.154845
C46   C     C_3   0.993168 0.520258 0.322623 0.154015
C47   C     C_1   0.278185 0.490976 0.335605 0.273316
C48   C     C_2   0.311134 0.492265 0.288046 -0.205167
C49   C     C_2   0.179319 0.511601 0.251915 0.128471
C50   C     C_R   0.296912 0.505575 0.098766 -0.073123
C51   C     C_R   0.295927 0.442531 0.119797 -0.072305
C52   C     C_R   0.332538 0.377730 0.089459 -0.059889
C53   C     C_R   0.248256 0.570198 0.127990 -0.049074
C54   C     C_2   0.147750 0.523980 0.355239 -0.473909
H55   H     H_    0.432094 0.478617 0.274928 0.163804
H56   H     H_    0.324039 0.327966 0.103562 0.177752
C55   C     C_2   0.645573 0.470511 0.636658 -0.457061
C56   C     C_R   0.463377 0.437704 0.971647 -0.116310
C57   C     C_R   0.375498 0.563196 0.974683 0.071381
C58   C     C_R   0.438670 0.498621 0.947637 0.071373
C59   C     C_R   0.551841 0.378294 0.946005 0.297862
C60   C     C_R   0.579869 0.374286 0.894783 -0.171851
C61   C     C_R   0.542035 0.431601 0.869346 -0.101732
C62   C     C_R   0.478749 0.495023 0.896219 -0.068692
C63   C     C_R   0.455530 0.554703 0.871663 -0.048402
C64   C     C_R   0.497399 0.550186 0.820749 0.534340
N2    N     N_R   0.554500 0.486606 0.794033 -0.162422
C65   C     C_R   0.573654 0.427340 0.817912 0.559180
C66   C     C_2   0.729211 0.446192 0.723326 -0.172255
C67   C     C_3   0.744538 0.423865 0.667353 0.106636
C68   C     C_1   0.519778 0.508310 0.656246 0.285985
C69   C     C_2   0.479617 0.511197 0.703880 -0.183932
C70   C     C_2   0.593171 0.481376 0.741004 0.096180
O26   O     O_2   0.616977 0.370268 0.794225 -0.620189
C71   C     C_R   0.399547 0.438634 0.020090 0.058238
C72   C     C_R   0.345348 0.503762 0.048292 0.094253
C73   C     C_R   0.337497 0.566733 0.026336 0.048401
C74   C     C_R   0.379119 0.375736 0.040224 -0.095430
H57   H     H_    0.817957 0.425726 0.748770 0.177076
H58   H     H_    0.642410 0.327544 0.875585 0.209799
H59   H     H_    0.394890 0.323853 0.017920 0.162997
O27   O     O_2   0.159105 0.626953 0.203374 -0.601896
C75   C     C_R   0.246175 0.632444 0.106542 -0.077842
H60   H     H_    0.929902 0.539299 0.243021 0.154750
H61   H     H_    0.210946 0.683089 0.128232 0.167021
C76   C     C_R   0.351959 0.621955 0.948788 -0.206619
C77   C     C_R   0.391878 0.617790 0.898585 -0.078666
O28   O     O_2   0.484785 0.603130 0.800495 -0.587958
C78   C     C_R   0.289566 0.630875 0.056888 -0.203689
H62   H     H_    0.299688 0.671961 0.965981 0.131494
H63   H     H_    0.371212 0.664488 0.880718 0.170831
H64   H     H_    0.362704 0.533614 0.715907 0.184765
H65   H     H_    0.287018 0.681396 0.043862 0.131135
H66   H     H_    0.152934 0.554307 0.393086 0.165735
H67   H     H_    0.661097 0.461425 0.596262 0.175871
N3    N     N_R   0.634402 0.326832 0.972406 0.227867
O29   O     O_R   0.649472 0.260921 0.950902 -0.380664
O30   O     O_R   0.716210 0.347744 0.014425 -0.380746

loop_
_geom_bond_atom_site_label_1
_geom_bond_atom_site_label_2
_geom_bond_distance
_ccdc_geom_bond_type
C59   N3    1.437821 S    
C73   C78   1.415496 A    
H38   C16   1.106936 S    
C54   H66   1.086332 S    
C8    H18   1.102603 S    
C71   C72   1.418001 A    
C52   H56   1.083517 S    
C12   H28   1.110384 S    
C2    H4    1.112011 S    
C57   C73   1.428652 A    
C56   C59   1.426268 A    
C37   C42   1.405927 A    
C11   H26   1.110430 S    
C21   H43   1.078286 S    
C57   C58   1.422348 A    
O12   Ba2   2.896031 S    
P4    O13   1.585990 S    
C14   H33   1.109052 S    
C55   H67   1.084867 S    
C4    C5    1.520628 S    
C45   C49   1.357086 D    
N2    C65   1.388857 Am   
C13   H32   1.103434 S    
O4    P6    1.537045 D    
C41   C42   1.385510 A    
C1    H24   1.107101 S    
C5    H10   1.110628 S    
C2    H5    1.108262 S    
C56   C58   1.422423 A    
O11   C2    1.410000 S    
H1    C10   1.112468 S    
C77   H63   1.083571 S    
C12   H29   1.110864 S    
P4    Ba2   3.444155 S    
P2    O20   1.543563 S    
C75   C78   1.393904 A    
C48   H55   1.085282 S    
C35   C36   1.437731 A    
C6    C7    1.523344 S    
O13   Ba2   2.923714 S    
C36   C37   1.439716 A    
O1    Ba1   2.895409 S    
P1    O1    1.504664 D    
C61   C65   1.408299 A    
P3    C67   1.866259 S    
C30   C31   1.376374 A    
C26   H45   1.081865 S    
C30   H48   1.083296 S    
P2    C68   1.836657 S    
C64   O28   1.221990 D    
C8    C9    1.520706 S    
P4    O12   1.504892 D    
C13   C14   1.521577 S    
P2    O10   1.750939 S    
C31   H49   1.080174 S    
C59   C60   1.396688 A    
C50   C53   1.408457 A    
P7    O21   1.572934 D    
C1    H2    1.109064 S    
N2    C70   1.462674 S    
O6    P6    1.745294 S    
C32   H50   1.070108 S    
C43   C51   1.409691 A    
P5    O18   1.545763 D    
C65   O26   1.221250 D    
C14   H34   1.110582 S    
C12   H27   1.110538 S    
C44   C53   1.412670 A    
C11   C12   1.520080 S    
C10   H23   1.108438 S    
C61   C62   1.403958 A    
C44   O27   1.221501 D    
P2    Ba1   3.409489 S    
C56   C71   1.425282 A    
C19   H42   1.078824 S    
C51   C52   1.399637 A    
Ba1   Ba2   4.549228 S    
O16   P7    1.748482 S    
C18   C26   1.383759 A    
O6    C10   1.406256 S    
C32   C33   1.405877 A    
C21   C22   1.400939 A    
P5    O17   1.754895 S    
C68   C69   1.330101 D    
C78   H65   1.076889 S    
C75   H61   1.083610 S    
C50   C72   1.427537 A    
C11   O22   1.405233 S    
O19   C13   1.398891 S    
C13   H31   1.111365 S    
P1    O5    1.747659 S    
C45   H60   1.085783 S    
C45   C46   1.517103 S    
C2    C3    1.522154 S    
C50   C51   1.409979 A    
C55   C68   1.325386 D    
C17   C25   1.437712 A    
C17   H41   1.080788 S    
P8    C20   1.831432 S    
O16   Ba2   2.937330 S    
C29   H47   1.063504 S    
P4    O15   1.751179 S    
Ba2   O20   2.747241 S    
C4    H8    1.104084 S    
C15   H37   1.113235 S    
C7    H17   1.110627 S    
P1    Ba1   3.443600 S    
C1    C10   1.520633 S    
O10   C8    1.398029 S    
C9    H20   1.110546 S    
C4    O15   1.399753 S    
C17   C18   1.416177 A    
C60   H58   1.083761 S    
C66   C67   1.506575 S    
C28   H46   1.082102 S    
C23   C24   1.417440 A    
C6    H13   1.105632 S    
P4    C18   1.855981 S    
C24   C28   1.379852 A    
C34   C38   1.435675 A    
Ba2   O21   2.827767 S    
C19   C20   1.398942 A    
C9    H21   1.108420 S    
C62   C63   1.409099 A    
O3    Ba1   2.725566 S    
C29   C34   1.419516 A    
C21   C27   1.418152 A    
P3    O11   1.749243 S    
C76   C77   1.393663 A    
C47   C54   1.318237 D    
C16   H40   1.110655 S    
C19   C25   1.418552 A    
N1    C49   1.449339 S    
C71   C74   1.412361 A    
C1    H3    1.110739 S    
N1    C44   1.383306 Am   
P5    C46   1.862846 S    
C66   C70   1.355376 D    
C25   C38   1.557262 S    
C4    H9    1.109485 S    
C53   C75   1.400958 A    
N3    O30   1.301773 A    
C43   O25   1.222795 D    
O2    Ba2   2.801039 S    
Ba1   O16   2.747893 S    
P8    O23   1.537869 D    
C40   C41   1.377763 A    
C33   C34   1.439133 A    
C14   H35   1.109786 S    
C20   C26   1.382372 A    
C36   C39   1.421030 A    
C64   N2    1.386677 Am   
C66   H57   1.085368 S    
C31   C32   1.388215 A    
O14   Ba2   2.724961 S    
C5    H12   1.110764 S    
P6    C22   1.829613 S    
C41   H53   1.080539 S    
C43   N1    1.382127 Am   
O8    Ba1   2.717295 S    
P7    O22   1.751490 S    
C39   C40   1.389647 A    
C40   H52   1.083302 S    
C69   H64   1.085416 S    
C69   C70   1.503221 S    
C15   O24   1.404033 S    
C22   C28   1.379535 A    
C47   C48   1.323999 D    
C23   C27   1.438613 A    
O5    C6    1.393784 S    
C27   C35   1.558345 S    
C57   C76   1.415657 A    
P3    O8    1.743118 S    
P2    O7    1.513577 D    
Ba1   O20   2.938236 S    
C5    H11   1.107928 S    
C46   C54   1.512716 S    
C29   C30   1.387774 A    
C7    H16   1.105910 S    
C72   C73   1.420143 A    
C15   C16   1.519309 S    
C8    H19   1.110136 S    
C23   H44   1.080743 S    
C6    H14   1.108872 S    
C3    H7    1.110530 S    
O2    Ba1   2.922873 S    
C9    H22   1.110851 S    
Ba1   O13   2.800456 S    
C48   C49   1.501911 S    
C52   C74   1.390146 A    
C11   H25   1.108546 S    
P5    O19   1.751206 S    
C76   H62   1.076832 S    
O7    Ba1   2.827671 S    
C16   H39   1.109676 S    
P7    C47   1.825536 S    
C7    H15   1.110853 S    
C15   H36   1.111313 S    
C58   C62   1.426980 A    
P3    O9    1.546608 D    
O3    P6    1.725796 S    
C63   C64   1.416076 A    
C3    H6    1.106852 S    
C55   C67   1.505359 S    
C60   C61   1.399838 A    
C74   H59   1.079062 S    
C3    H30   1.110094 S    
P1    O2    1.585992 S    
N3    O29   1.301562 A    
C37   C38   1.429317 A    
P1    C24   1.851893 S    
C42   H54   1.069760 S    
P8    O24   1.745112 S    
C63   C77   1.400705 A    
O14   P8    1.730653 S    
C33   C35   1.429918 A    
O17   Ba2   2.717913 S    
C39   H51   1.062914 S    
