data_mof_unit_60134.cif
_audit_creation_date              2012-12-10T16:40:41-0500
_audit_creation_method            fapswitch 2.2
_symmetry_space_group_name_H-M    P1
_symmetry_Int_Tables_number       1
_space_group_crystal_system       triclinic
_cell_length_a                    10.81986
_cell_length_b                    10.820981
_cell_length_c                    19.518612
_cell_angle_alpha                 97.198127
_cell_angle_beta                  91.951775
_cell_angle_gamma                 98.439532
_cell_volume                      2239.50114861

loop_
_atom_site_label
_atom_site_type_symbol
_atom_type_description
_atom_site_fract_x
_atom_site_fract_y
_atom_site_fract_z
_atom_type_partial_charge
C1    C     C_R   0.475076 0.161898 0.484259 0.857419
C2    C     C_2   0.505662 0.455030 0.016057 -0.236679
C3    C     C_2   0.467142 0.544859 0.983053 -0.210333
C4    C     C_R   0.524497 0.839024 0.515547 0.887226
C5    C     C_R   0.480773 0.521793 0.763814 -0.099856
C6    C     C_2   0.533457 0.975246 0.521901 -0.344366
C7    C     C_2   0.465926 0.027293 0.478220 -0.294960
C8    C     C_2   0.972160 0.536459 0.521818 -0.343591
C9    C     C_2   0.030402 0.462481 0.478228 -0.296070
C10   C     C_R   0.164154 0.472701 0.484227 0.856869
C11   C     C_R   0.836869 0.526613 0.515529 0.887472
C12   C     C_R   0.505447 0.461287 0.091663 0.201418
C13   C     C_R   0.486813 0.513768 0.688500 0.824138
C14   C     C_R   0.512478 0.486224 0.311591 0.791383
C15   C     C_R   0.511296 0.476854 0.236055 -0.000561
C16   C     C_R   0.423020 0.532114 0.200902 -0.206741
C17   C     C_R   0.419351 0.523545 0.129387 -0.159693
C18   C     C_3   0.292345 0.351143 0.894069 -0.902322
C19   C     C_3   0.642091 0.727698 0.923506 -0.918651
C20   C     C_R   0.591763 0.403200 0.126413 -0.181590
C21   C     C_R   0.595006 0.411134 0.198364 -0.197131
C22   C     C_R   0.554991 0.625425 0.878610 0.183399
C23   C     C_R   0.559817 0.616434 0.806798 -0.207582
C24   C     C_R   0.395054 0.436011 0.792930 -0.213962
C25   C     C_R   0.388549 0.442760 0.864624 0.187164
C26   C     C_R   0.470209 0.537158 0.907688 0.146245
H1    H     H_    0.355629 0.581149 0.228565 0.164563
H2    H     H_    0.663198 0.366765 0.224407 0.160715
H3    H     H_    0.542674 0.377630 0.986754 0.156845
H4    H     H_    0.347985 0.564606 0.103909 0.129592
H5    H     H_    0.232694 0.403560 0.928566 0.246519
H6    H     H_    0.230298 0.290285 0.852792 0.235348
H7    H     H_    0.339312 0.288756 0.923818 0.244179
H8    H     H_    0.703875 0.787248 0.892259 0.238992
H9    H     H_    0.586871 0.789690 0.955383 0.238619
H10   H     H_    0.702352 0.684787 0.958065 0.252167
H11   H     H_    0.595356 0.033525 0.562287 0.148332
H12   H     H_    0.404118 0.971290 0.437143 0.161433
H13   H     H_    0.024711 0.604346 0.562095 0.148655
H14   H     H_    0.980236 0.394497 0.437294 0.160752
H15   H     H_    0.625548 0.683573 0.784386 0.174678
H16   H     H_    0.332943 0.363595 0.759725 0.175678
H17   H     H_    0.442032 0.629767 0.011243 0.153952
H18   H     H_    0.657756 0.353412 0.097945 0.130208
O1    O     O_3   0.500000 0.500000 0.500000 -0.490005
O2    O     O_R   0.410860 0.431690 0.648970 -0.646426
O3    O     O_R   0.578570 0.421470 0.344370 -0.648416
O4    O     O_R   0.567340 0.590030 0.662290 -0.649882
O5    O     O_R   0.443230 0.556810 0.344370 -0.649883
O6    O     O_R   0.229880 0.548640 0.449830 -0.636857
O7    O     O_R   0.775840 0.445670 0.468570 -0.640004
O8    O     O_R   0.404020 0.217050 0.524780 -0.634256
O9    O     O_R   0.590260 0.788640 0.556820 -0.645768
O10   O     O_R   0.555650 0.222860 0.449830 -0.635742
O11   O     O_R   0.450070 0.771450 0.468560 -0.639065
O12   O     O_R   0.213590 0.407490 0.524780 -0.633964
O13   O     O_R   0.780700 0.598200 0.556830 -0.645058
Zn1   Zn    Zn3+2 0.407400 0.592620 0.441700 0.963533
Zn2   Zn    Zn3+2 0.384130 0.390950 0.548790 0.968683
Zn3   Zn    Zn3+2 0.607710 0.617180 0.567810 0.968317
Zn4   Zn    Zn3+2 0.600760 0.399250 0.441700 0.964919

loop_
_geom_bond_atom_site_label_1
_geom_bond_atom_site_label_2
_ccdc_geom_bond_type
C12   C17   A    
O3    Zn4   S    
C13   O4    A    
C1    O10   A    
O1    Zn3   S    
C9    H14   S    
C6    C7    D    
O8    Zn2   S    
C4    O9    A    
C24   H16   S    
C9    C10   S    
C5    C13   S    
C5    C23   A    
C23   H15   S    
O12   Zn2   S    
C2    C12   S    
C12   C20   A    
C16   H1    S    
C14   C15   S    
C2    C3    D    
C6    H11   S    
C10   O6    A    
C1    C7    S    
C20   C21   A    
C17   H4    S    
C18   C25   S    
C3    H17   S    
C14   O3    A    
C5    C24   A    
C8    C11   S    
C11   O7    A    
O1    Zn4   S    
C8    H13   S    
C7    H12   S    
O4    Zn3   S    
C19   H10   S    
C2    H3    S    
C4    O11   A    
C13   O2    A    
O2    Zn2   S    
C18   H7    S    
O1    Zn1   S    
C14   O5    A    
C18   H6    S    
O10   Zn4   S    
C21   H2    S    
C15   C16   A    
O6    Zn1   S    
C15   C21   A    
C19   C22   S    
C10   O12   A    
C24   C25   A    
C4    C6    S    
C22   C26   A    
O11   Zn1   S    
C22   C23   A    
O1    Zn2   S    
O13   Zn3   S    
C19   H9    S    
C18   H5    S    
C20   H18   S    
C25   C26   A    
C11   O13   A    
C1    O8    A    
O9    Zn3   S    
C3    C26   S    
O5    Zn1   S    
C16   C17   A    
C8    C9    D    
C19   H8    S    
O7    Zn4   S    
