data_mof_unit_55437.cif
_audit_creation_date              2012-12-11T21:12:10-0500
_audit_creation_method            fapswitch 2.2
_symmetry_space_group_name_H-M    P1
_symmetry_Int_Tables_number       1
_space_group_crystal_system       triclinic
_cell_length_a                    8.285372
_cell_length_b                    18.833872
_cell_length_c                    26.883782
_cell_angle_alpha                 99.655096
_cell_angle_beta                  92.760766
_cell_angle_gamma                 88.286758
_cell_volume                      4129.85992337

loop_
_atom_site_label
_atom_site_type_symbol
_atom_type_description
_atom_site_fract_x
_atom_site_fract_y
_atom_site_fract_z
_atom_type_partial_charge
Ba1   Ba    Ba6+2 0.160810 0.465630 0.521640 1.648510
Ba2   Ba    Ba6+2 0.649380 0.534380 0.478400 1.648724
C1    C     C_3   0.535719 0.284715 0.695575 -0.369769
C2    C     C_3   0.500292 0.308566 0.644772 0.264890
C3    C     C_3   0.467503 0.313886 0.395595 0.306898
C4    C     C_3   0.466228 0.232702 0.378734 -0.391343
C5    C     C_3   0.934863 0.713863 0.356074 0.313766
C6    C     C_3   0.022521 0.747602 0.317503 -0.385420
C7    C     C_3   0.424765 0.695114 0.350200 0.308189
C8    C     C_3   0.459597 0.722866 0.301576 -0.042859
C9    C     C_R   0.993767 0.048652 0.475934 0.014357
C10   C     C_R   0.070720 0.096653 0.450022 -0.089671
C11   C     C_R   0.208225 0.953295 0.459025 -0.107088
C12   C     C_3   0.047512 0.289555 0.664238 0.538627
C13   C     C_R   0.056442 0.977544 0.477920 0.020231
C14   C     C_R   0.263094 0.882571 0.458192 -0.095863
C15   C     C_R   0.169833 0.832293 0.476254 -0.038174
C16   C     C_R   0.023868 0.856210 0.499438 0.018970
C17   C     C_R   0.966794 0.929153 0.500434 0.040050
C18   C     C_R   0.217862 0.758795 0.471915 -0.014668
C19   C     C_R   0.119217 0.709873 0.489007 -0.286572
C20   C     C_R   0.982921 0.732849 0.516183 0.046784
C21   C     C_R   0.934723 0.807187 0.521608 -0.030931
C22   C     C_R   0.845852 0.071963 0.498684 0.025886
C23   C     C_3   0.088293 0.277550 0.718431 -0.326776
C24   C     C_R   0.786119 0.144138 0.498448 0.005239
C25   C     C_R   0.875078 0.193046 0.476207 -0.037809
C26   C     C_R   0.011897 0.166575 0.449784 -0.026552
C27   C     C_R   0.799530 0.834238 0.548162 -0.029010
C28   C     C_R   0.742441 0.904517 0.549025 -0.080602
C29   C     C_R   0.819805 0.952739 0.523557 0.019494
C30   C     C_R   0.756787 0.023713 0.521519 0.014732
C31   C     C_R   0.604548 0.047650 0.540318 -0.109289
C32   C     C_R   0.636732 0.167263 0.520100 -0.032859
C33   C     C_R   0.546399 0.117503 0.539603 -0.095664
C34   C     C_3   0.771218 0.675527 0.640291 0.510721
C35   C     C_R   0.582678 0.239673 0.521847 -0.004998
C36   C     C_R   0.679073 0.288357 0.503875 -0.289522
C37   C     C_R   0.823092 0.266516 0.480683 0.056183
C38   C     C_R   0.304645 0.448391 0.172427 0.582263
C39   C     C_R   0.170595 0.563059 0.172746 0.595269
C40   C     C_2   0.037785 0.524838 0.268302 -0.078550
C41   C     C_3   0.007412 0.521048 0.322991 -0.053885
C42   C     C_1   0.288894 0.494364 0.335596 0.020687
C43   C     C_2   0.322463 0.495451 0.288057 -0.102813
C44   C     C_2   0.188702 0.510206 0.250956 0.218562
C45   C     C_3   0.695694 0.750484 0.657188 -0.352623
C46   C     C_R   0.300074 0.503796 0.096501 -0.081315
C47   C     C_R   0.347428 0.446569 0.122033 -0.032777
C48   C     C_R   0.437086 0.388578 0.096796 -0.062583
C49   C     C_R   0.208369 0.561745 0.121885 -0.042803
C50   C     C_2   0.161259 0.529239 0.355083 -0.280426
C51   C     C_2   0.658317 0.482722 0.638717 -0.259220
C52   C     C_R   0.486122 0.444467 0.970413 0.020418
C53   C     C_R   0.343378 0.561361 0.969997 0.019884
C54   C     C_R   0.438111 0.502884 0.945259 0.048545
C55   C     C_R   0.581472 0.388012 0.944088 -0.101355
C56   C     C_3   0.983553 0.370183 0.366132 0.297256
C57   C     C_R   0.626373 0.388502 0.895001 -0.065656
C58   C     C_R   0.579381 0.445384 0.869711 -0.029617
C59   C     C_R   0.485655 0.502858 0.894757 -0.079808
C60   C     C_R   0.439934 0.560388 0.869337 -0.031697
C61   C     C_R   0.487950 0.559708 0.819536 0.584592
C62   C     C_R   0.623767 0.445547 0.819667 0.583237
C63   C     C_2   0.770204 0.488921 0.727234 -0.097694
C64   C     C_3   0.809306 0.490270 0.672648 0.029454
C65   C     C_1   0.523115 0.512866 0.656569 0.027321
C66   C     C_2   0.485629 0.512141 0.703746 -0.122088
C67   C     C_3   0.017755 0.340538 0.311277 -0.363045
C68   C     C_2   0.615977 0.500259 0.742350 0.201195
C69   C     C_R   0.438691 0.444453 0.020793 0.019813
C70   C     C_R   0.345042 0.503197 0.045689 0.049237
C71   C     C_R   0.296478 0.561503 0.020478 0.020745
C72   C     C_R   0.481711 0.387405 0.047488 -0.101747
C73   C     C_R   0.159820 0.618318 0.096446 -0.074646
C74   C     C_R   0.299509 0.618106 0.943115 -0.101709
C75   C     C_R   0.346976 0.617560 0.894131 -0.066224
C76   C     C_R   0.202426 0.618293 0.047037 -0.101833
C77   C     C_3   0.320445 0.685141 0.592024 0.299777
C78   C     C_3   0.262082 0.761390 0.613317 -0.421917
H1    H     H_    0.439730 0.362530 0.651462 0.058676
H2    H     H_    0.615554 0.765728 0.626674 0.066787
H3    H     H_    0.619712 0.751004 0.690200 0.107641
H4    H     H_    0.790786 0.791382 0.667585 0.096400
H5    H     H_    0.097308 0.389566 0.386324 0.022213
H6    H     H_    0.893684 0.415266 0.367771 0.041339
H7    H     H_    0.097046 0.291614 0.309306 0.145948
H8    H     H_    0.079783 0.380488 0.293637 0.076712
H9    H     H_    0.902670 0.326181 0.289511 0.117982
H10   H     H_    0.216648 0.654591 0.572984 0.036220
H11   H     H_    0.413649 0.687993 0.564219 0.054038
H12   H     H_    0.431774 0.298396 0.720109 0.105771
H13   H     H_    0.151106 0.759621 0.634426 0.138882
H14   H     H_    0.236619 0.792879 0.582434 0.059579
H15   H     H_    0.353909 0.790188 0.639846 0.123615
H16   H     H_    0.617168 0.312923 0.626957 0.017995
H17   H     H_    0.643539 0.312732 0.714429 0.168691
H18   H     H_    0.594405 0.330331 0.404796 0.024412
H19   H     H_    0.395579 0.326981 0.429908 0.051775
H20   H     H_    0.538937 0.217425 0.344780 0.134924
H21   H     H_    0.518736 0.205202 0.409398 0.054875
H22   H     H_    0.340175 0.214752 0.369612 0.114194
H23   H     H_    0.560274 0.225759 0.690617 0.121301
H24   H     H_    0.978093 0.265689 0.737241 0.128652
H25   H     H_    0.026588 0.689885 0.380312 -0.066019
H26   H     H_    0.935200 0.775168 0.294029 0.122148
H27   H     H_    0.110558 0.787514 0.337009 0.067049
H28   H     H_    0.087677 0.705042 0.291923 0.169710
H29   H     H_    0.296881 0.678975 0.349244 -0.048326
H30   H     H_    0.503625 0.647756 0.353736 0.107300
H31   H     H_    0.585509 0.742895 0.304571 0.126484
H32   H     H_    0.156653 0.311453 0.650914 0.092644
H33   H     H_    0.375863 0.769267 0.297520 0.089912
H34   H     H_    0.156009 0.653646 0.484396 0.065860
H35   H     H_    0.379754 0.868154 0.442810 0.133974
H36   H     H_    0.076490 0.199330 0.428448 0.094032
H37   H     H_    0.732035 0.800841 0.567364 0.087757
H38   H     H_    0.429129 0.131786 0.554710 0.118443
H39   H     H_    0.638925 0.344051 0.506738 0.067441
H40   H     H_    0.289581 0.988061 0.444963 0.075438
H41   H     H_    0.176222 0.081486 0.428485 0.059022
H42   H     H_    0.636774 0.919333 0.570537 0.055809
H43   H     H_    0.524715 0.013203 0.555244 0.074202
H44   H     H_    0.444752 0.484711 0.275743 0.120256
H45   H     H_    0.474545 0.343479 0.115289 0.121802
H46   H     H_    0.868460 0.483310 0.754607 0.098685
H47   H     H_    0.699011 0.343600 0.876832 0.117636
H48   H     H_    0.624924 0.342097 0.960164 0.067135
H49   H     H_    0.550258 0.340316 0.031576 0.067805
H50   H     H_    0.936272 0.532480 0.242532 0.106087
H51   H     H_    0.088998 0.663671 0.114907 0.117513
H52   H     H_    0.228155 0.664463 0.958658 0.066538
H53   H     H_    0.177509 0.232353 0.718609 0.086170
H54   H     H_    0.309616 0.662591 0.875577 0.117705
H55   H     H_    0.361432 0.520734 0.714718 0.130280
H56   H     H_    0.159478 0.664387 0.031041 0.066548
H57   H     H_    0.166148 0.560514 0.392924 0.065150
H58   H     H_    0.661162 0.453649 0.600267 0.070786
H59   H     H_    0.141002 0.327190 0.740679 0.092079
H60   H     H_    0.681756 0.640279 0.617269 0.032325
N1    N     N_R   0.220532 0.507074 0.197767 -0.424716
N2    N     N_R   0.576810 0.502074 0.794833 -0.421092
O1    O     O_2   0.106080 0.324280 0.466820 -0.475168
O2    O     O_3   0.387133 0.652856 0.631737 -0.642652
O3    O     O_3   0.911379 0.336457 0.663966 -0.639630
O4    O     O_2   0.704230 0.675760 0.533200 -0.488623
O5    O     O_3   0.951180 0.586390 0.529420 -0.464386
O6    O     O_3   0.434080 0.629720 0.443130 -0.485502
O7    O     O_3   0.910259 0.681086 0.613381 -0.650626
O8    O     O_3   0.351080 0.462080 0.440130 -0.479678
O9    O     O_3   0.839200 0.593040 0.416790 -0.469598
O10   O     O_2   0.681291 0.546482 0.329569 -0.507203
O11   O     O_3   0.824538 0.664311 0.329683 -0.606363
O12   O     O_3   0.859130 0.413620 0.470620 -0.481234
O13   O     O_3   0.459240 0.537930 0.559910 -0.486054
O14   O     O_2   0.583120 0.462390 0.379940 -0.451470
O15   O     O_3   0.400661 0.347737 0.356384 -0.631506
O16   O     O_2   0.548094 0.757132 0.484643 -0.466589
O17   O     O_3   0.458467 0.750641 0.390756 -0.613856
O18   O     O_2   0.341273 0.397292 0.193663 -0.597613
O19   O     O_2   0.702948 0.394876 0.798059 -0.618955
O20   O     O_2   0.096785 0.614993 0.195081 -0.600990
O21   O     O_2   0.451893 0.610892 0.798320 -0.608893
O22   O     O_3   0.376230 0.370290 0.556910 -0.478619
O23   O     O_2   0.241108 0.242681 0.526785 -0.493978
O24   O     O_3   0.920212 0.314611 0.386957 -0.644174
O25   O     O_3   0.398764 0.258752 0.614407 -0.612216
O26   O     O_2   0.227190 0.537650 0.620070 -0.454271
O27   O     O_3   0.971110 0.406970 0.583250 -0.460918
O28   O     O_2   0.133274 0.438177 0.671963 -0.536744
P1    P     P_3+3 0.929380 0.335110 0.452880 0.980134
P2    P     P_3+3 0.398530 0.559060 0.613740 0.992977
P3    P     P_3+3 0.961281 0.420270 0.648781 0.953700
P4    P     P_3+3 0.880940 0.664900 0.547160 0.976943
P5    P     P_3+3 0.842094 0.581096 0.350542 0.958218
P6    P     P_3+3 0.397099 0.277048 0.552785 0.935283
P7    P     P_3+3 0.401037 0.441065 0.376603 0.960493
P8    P     P_3+3 0.413382 0.723243 0.447431 0.945289
C79   C     C_1   0.843939 0.770917 0.387660 0.285693
N3    N     N_1   0.771734 0.816401 0.411909 -0.271067
N4    N     N_2   0.440065 0.666912 0.257436 -0.423251
H61   H     H_    0.498854 0.618647 0.261225 0.213375
C80   C     C_3   0.473934 0.690436 0.210514 -0.181365
H62   H     H_    0.450795 0.645818 0.178122 0.106871
H63   H     H_    0.603863 0.705255 0.210959 0.108010
H64   H     H_    0.394290 0.737837 0.204841 0.118086
N5    N     N_2   0.016691 0.221681 0.630741 -0.422955
H65   H     H_    0.024809 0.225286 0.593077 0.211902
C81   C     C_3   0.879070 0.180585 0.639373 -0.220078
H66   H     H_    0.888996 0.125625 0.616923 0.108546
H67   H     H_    0.766230 0.206361 0.626892 0.119314
H68   H     H_    0.874219 0.174889 0.679612 0.106644
N6    N     N_2   0.815529 0.643262 0.684614 -0.455503
H69   H     H_    0.719233 0.636973 0.706315 0.172249
C82   C     C_3   0.960038 0.667863 0.714265 -0.169719
H70   H     H_    0.981261 0.635740 0.745119 0.094024
H71   H     H_    0.945863 0.725503 0.731177 0.094377
H72   H     H_    0.067704 0.659970 0.690670 0.160087

loop_
_geom_bond_atom_site_label_1
_geom_bond_atom_site_label_2
_ccdc_geom_bond_type
Ba2   O8    S    
C53   C54   A    
C14   H35   S    
C13   C17   A    
Ba2   O13   S    
C32   C35   A    
C60   C75   A    
C17   C29   A    
C55   H48   S    
O5    P4    S    
C5    C6    S    
N4    H61   S    
O23   P6    D    
C12   H32   S    
N6    H69   S    
C12   O3    S    
C24   C25   A    
C60   C61   A    
C10   C26   A    
C21   C27   A    
C19   C20   A    
C34   O7    S    
C23   H59   S    
C35   C36   A    
C49   C73   A    
Ba1   Ba2   S    
C80   H63   S    
C3    C4    S    
C67   H9    S    
C41   C50   S    
C45   H2    S    
C7    O17   S    
C57   H47   S    
C38   C47   A    
C6    H28   S    
C9    C22   A    
Ba2   O9    S    
C15   C18   A    
O28   P3    D    
C34   C45   S    
C81   H67   S    
C32   C33   A    
C40   C44   D    
C4    H21   S    
Ba1   O13   S    
C34   N6    S    
C77   H10   S    
C37   P1    S    
C26   H36   S    
C2    H16   S    
O10   P5    D    
C41   P5    S    
O13   P2    S    
C24   C32   A    
C46   C49   A    
C52   C69   A    
C3    H19   S    
Ba1   O22   S    
C25   C37   A    
C14   C15   A    
N6    C82   S    
Ba2   O14   S    
C71   C76   A    
C5    H25   S    
C64   P3    S    
C45   H3    S    
C23   H53   S    
C7    C8    S    
C77   H11   S    
C67   H7    S    
C82   H72   S    
C42   C50   D    
C57   C58   A    
Ba2   O12   S    
C38   N1    Am   
C81   H66   S    
Ba1   O12   S    
C9    C13   A    
C46   C70   A    
C51   C65   D    
C56   H6    S    
C20   P4    S    
C73   H51   S    
C50   H57   S    
C44   N1    S    
N4    C80   S    
C43   H44   S    
C7    H29   S    
C52   C54   A    
C19   H34   S    
C68   N2    S    
O9    P5    S    
C2    H1    S    
C65   C66   D    
C28   H42   S    
Ba1   O8    S    
C74   C75   A    
C80   H64   S    
C56   C67   S    
C11   C14   A    
C16   C17   A    
C18   P8    S    
Ba1   O26   S    
Ba2   O5    S    
C43   C44   S    
C27   H37   S    
Ba1   P1    S    
C16   C21   A    
C1    H12   S    
C4    H20   S    
C81   H68   S    
C61   O21   D    
C80   H62   S    
C22   C30   A    
C39   N1    Am   
C27   C28   A    
Ba1   O1    S    
O14   P7    D    
C1    H17   S    
C29   C30   A    
C5    O11   S    
O26   P2    D    
C28   C29   A    
C18   C19   A    
C15   C16   A    
C5    C79   S    
C8    H31   S    
C40   H50   S    
C48   H45   S    
O15   P7    S    
C45   H4    S    
O7    P4    S    
C78   H15   S    
C51   C64   S    
C34   H60   S    
C67   H8    S    
O8    P7    S    
C36   H39   S    
C46   C47   A    
O3    P3    S    
C47   C48   A    
C3    O15   S    
C51   H58   S    
C11   C13   A    
C65   P2    S    
C77   C78   S    
Ba1   O5    S    
C75   H54   S    
C53   C74   A    
O17   P8    S    
C78   H14   S    
C1    C2    S    
C56   H5    S    
C11   H40   S    
C42   C43   D    
C1    H23   S    
C7    H30   S    
O11   P5    S    
C10   H41   S    
O6    P8    S    
C54   C59   A    
C38   O18   D    
C66   H55   S    
C22   C24   A    
C70   C71   A    
C6    H26   S    
C42   P7    S    
C69   C72   A    
C9    C10   A    
C2    O25   S    
C23   H24   S    
C79   N3    T    
Ba2   O4    S    
O2    P2    S    
Ba1   P2    S    
C77   O2    S    
C58   C62   A    
C30   C31   A    
C48   C72   A    
O16   P8    D    
O1    P1    D    
C69   C70   A    
C63   H46   S    
C35   P6    S    
C12   N5    S    
C74   H52   S    
C62   O19   D    
C36   C37   A    
C62   N2    Am   
O4    P4    D    
Ba1   O27   S    
C31   C33   A    
C61   N2    Am   
O12   P1    S    
O22   P6    S    
C4    H22   S    
C12   C23   S    
C6    H27   S    
C59   C60   A    
C56   O24   S    
C73   C76   A    
N5    C81   S    
C55   C57   A    
C82   H70   S    
C53   C71   A    
O24   P1    S    
C3    H18   S    
C66   C68   S    
C63   C64   S    
C40   C41   S    
C72   H49   S    
C25   C26   A    
C31   H43   S    
C8    N4    S    
O27   P3    S    
C20   C21   A    
C58   C59   A    
C33   H38   S    
N5    H65   S    
C82   H71   S    
C78   H13   S    
C39   O20   D    
Ba2   O6    S    
C8    H33   S    
C39   C49   A    
Ba2   P4    S    
C63   C68   D    
O25   P6    S    
C76   H56   S    
C52   C55   A    
