data_mof_unit_66955.cif
_audit_creation_date              2012-12-11T17:40:55-0500
_audit_creation_method            fapswitch 2.2
_symmetry_space_group_name_H-M    P1
_symmetry_Int_Tables_number       1
_space_group_crystal_system       triclinic
_cell_length_a                    8.203759
_cell_length_b                    12.664042
_cell_length_c                    14.197933
_cell_angle_alpha                 92.984507
_cell_angle_beta                  90.737151
_cell_angle_gamma                 98.383831
_cell_volume                      1457.00730427

loop_
_atom_site_label
_atom_site_type_symbol
_atom_type_description
_atom_site_fract_x
_atom_site_fract_y
_atom_site_fract_z
_atom_type_partial_charge
Ba1   Ba    Ba6+2 0.855630 0.555280 0.454520 1.640902
Ba2   Ba    Ba6+2 0.334200 0.444810 0.545490 1.639250
C1    C     C_3   0.625807 0.956423 0.189548 -0.401376
C2    C     C_R   0.180653 0.503095 0.197325 0.052064
C3    C     C_R   0.335367 0.555589 0.227518 -0.294373
C4    C     C_3   0.147287 0.804726 0.195401 0.356432
C5    C     C_R   0.448573 0.601244 0.163516 0.015502
C6    C     C_R   0.403920 0.603435 0.068562 -0.148532
C7    C     C_R   0.247252 0.554795 0.035635 -0.005598
C8    C     C_R   0.135783 0.500451 0.099067 -0.022709
C9    C     C_R   0.052743 0.503270 0.902184 -0.023324
C10   C     C_R   0.941470 0.448593 0.965507 -0.004176
C11   C     C_R   0.007895 0.500375 0.804022 0.043338
C12   C     C_3   0.655910 0.857890 0.239857 0.353004
C13   C     C_R   0.854574 0.445945 0.773478 -0.294098
C14   C     C_R   0.741250 0.400237 0.837246 0.015919
C15   C     C_R   0.785247 0.399061 0.932418 -0.147371
C16   C     C_3   0.136568 0.843702 0.096300 -0.368055
C17   C     C_R   0.203917 0.557723 0.939396 -0.036854
C18   C     C_R   0.768283 0.176126 0.530496 -0.230816
C19   C     C_R   0.428520 0.812757 0.461942 -0.285676
C20   C     C_R   0.406405 0.994062 0.427230 -0.107074
C21   C     C_R   0.340638 0.886819 0.423503 -0.002685
C22   C     C_R   0.576320 0.846053 0.512093 0.065514
C23   C     C_3   0.478014 0.316844 0.258349 0.314496
C24   C     C_R   0.642210 0.956745 0.520147 -0.060456
C25   C     C_R   0.556322 0.031036 0.475232 -0.066184
C26   C     C_R   0.620664 0.140882 0.481332 0.116510
C27   C     C_R   0.856382 0.104357 0.572069 -0.016647
C28   C     C_3   0.227029 0.762810 0.656824 0.280667
C29   C     C_R   0.791388 0.995825 0.570064 -0.093525
C30   C     C_3   0.239978 0.882513 0.677838 -0.351192
C31   C     C_3   0.980632 0.224135 0.324365 0.621858
C32   C     C_3   0.067426 0.126302 0.312735 -0.298361
C33   C     C_3   0.714480 0.673409 0.738063 0.307351
C34   C     C_3   0.449876 0.296344 0.152417 -0.403672
C35   C     C_3   0.730924 0.697307 0.844231 -0.393332
C36   C     C_3   0.046899 0.196392 0.804056 0.359542
C37   C     C_3   0.061822 0.160514 0.904028 -0.366140
C38   C     C_3   0.543082 0.142445 0.763601 0.346850
C39   C     C_3   0.591598 0.052474 0.819820 -0.408649
C40   C     C_R   0.984822 0.445711 0.061691 -0.033150
H1    H     H_    0.746669 0.882113 0.298565 0.090008
H2    H     H_    0.612920 0.606155 0.723764 0.066006
H3    H     H_    0.574672 0.012775 0.239547 0.112904
H4    H     H_    0.837785 0.760432 0.860848 0.128285
H5    H     H_    0.749609 0.624528 0.880521 0.065113
H6    H     H_    0.617086 0.725175 0.871126 0.118200
H7    H     H_    0.537049 0.823356 0.270157 -0.059043
H8    H     H_    0.535899 0.933162 0.130305 0.113277
H9    H     H_    0.368359 0.346265 0.288965 -0.006350
H10   H     H_    0.587686 0.378678 0.270671 0.076423
H11   H     H_    0.335485 0.238833 0.137854 0.127345
H12   H     H_    0.321993 0.906458 0.740137 0.114359
H13   H     H_    0.437638 0.372021 0.118917 0.068118
H14   H     H_    0.555886 0.262814 0.120983 0.116651
H15   H     H_    0.743059 0.996373 0.161186 0.118620
H16   H     H_    0.175764 0.784229 0.044396 0.070700
H17   H     H_    0.130710 0.272926 0.798700 0.095137
H18   H     H_    0.917889 0.209472 0.791207 -0.066630
H19   H     H_    0.191482 0.151279 0.920481 0.153278
H20   H     H_    0.022930 0.220947 0.955105 0.067754
H21   H     H_    0.982329 0.082734 0.911609 0.109868
H22   H     H_    0.655096 0.179820 0.727830 -0.063799
H23   H     H_    0.291180 0.926365 0.616930 0.078393
H24   H     H_    0.450485 0.108389 0.708329 0.077708
H25   H     H_    0.688644 0.085248 0.872943 0.113076
H26   H     H_    0.639575 0.992615 0.771833 0.093436
H27   H     H_    0.064652 0.727306 0.198208 0.091456
H28   H     H_    0.483478 0.012927 0.857375 0.128227
H29   H     H_    0.371728 0.555666 0.301050 0.071673
H30   H     H_    0.492409 0.641555 0.020346 0.071316
H31   H     H_    0.696820 0.360804 0.980604 0.069689
H32   H     H_    0.819160 0.444390 0.699682 0.068211
H33   H     H_    0.898416 0.400642 0.106598 0.100380
H34   H     H_    0.116119 0.904021 0.692835 0.143084
H35   H     H_    0.336657 0.047640 0.394014 0.088960
H36   H     H_    0.860163 0.943698 0.606656 0.104931
H37   H     H_    0.818249 0.260200 0.533385 0.059880
H38   H     H_    0.276350 0.792592 0.209481 -0.063418
H39   H     H_    0.376644 0.729012 0.457495 0.069303
H40   H     H_    0.007887 0.854618 0.079026 0.150848
H41   H     H_    0.218314 0.921136 0.091172 0.108500
H42   H     H_    0.349713 0.742568 0.639334 0.007411
H43   H     H_    0.784654 0.171519 0.248632 0.310251
H44   H     H_    0.290436 0.602323 0.894191 0.097088
H45   H     H_    0.011742 0.262271 0.395823 0.045177
H46   H     H_    0.140455 0.740823 0.595905 0.076402
H47   H     H_    0.017185 0.075223 0.250060 0.120692
H48   H     H_    0.049791 0.079601 0.376604 0.106975
H49   H     H_    0.200022 0.150982 0.301665 0.102434
H50   H     H_    0.831405 0.650950 0.711560 0.011816
O1    O     O_2   0.887370 0.460630 0.272300 -0.463528
O2    O     O_2   0.197701 0.111582 0.568177 -0.488629
O3    O     O_3   0.090984 0.117563 0.739947 -0.603058
O4    O     O_3   0.129410 0.451380 0.388510 -0.498399
O5    O     O_3   0.575400 0.626570 0.547370 -0.493122
O6    O     O_2   0.344320 0.238700 0.455090 -0.483929
O7    O     O_3   0.503206 0.221068 0.297579 -0.622092
O8    O     O_2   0.402674 0.408210 0.835946 -0.494182
O9    O     O_3   0.472401 0.213422 0.824917 -0.593002
O10   O     O_3   0.670210 0.653170 0.329170 -0.480500
O11   O     O_2   0.786732 0.591535 0.164217 -0.494681
O12   O     O_3   0.680811 0.765426 0.695890 -0.642618
O13   O     O_3   0.028216 0.291203 0.251268 -0.670381
O14   O     O_3   0.719633 0.787008 0.175350 -0.594922
O15   O     O_2   0.845380 0.761330 0.544970 -0.470664
O16   O     O_3   0.088930 0.704860 0.376040 -0.488450
O17   O     O_2   0.002391 0.888858 0.435291 -0.488168
O18   O     O_3   0.811855 0.190063 0.316407 -0.778075
O19   O     O_3   0.098035 0.880927 0.260298 -0.606668
O20   O     O_2   0.302330 0.539400 0.727760 -0.469524
O21   O     O_3   0.060300 0.548700 0.611500 -0.495894
O22   O     O_3   0.519500 0.346920 0.670840 -0.476309
O23   O     O_3   0.171894 0.711168 0.737603 -0.639268
O24   O     O_3   0.614310 0.373510 0.452640 -0.473562
O25   O     O_3   0.100780 0.295230 0.623970 -0.487289
P1    P     P_3+3 0.054400 0.427280 0.286870 0.978688
P2    P     P_3+3 0.668300 0.742890 0.573060 0.968098
P3    P     P_3+3 0.132863 0.842577 0.374645 0.942743
P4    P     P_3+3 0.135310 0.572810 0.713130 0.969555
P5    P     P_3+3 0.060739 0.155886 0.624970 0.948206
P6    P     P_3+3 0.656735 0.655845 0.206757 0.954917
P7    P     P_3+3 0.525040 0.242007 0.420237 0.993308
P8    P     P_3+3 0.533733 0.344705 0.793381 0.956104

loop_
_geom_bond_atom_site_label_1
_geom_bond_atom_site_label_2
_ccdc_geom_bond_type
C4    H27   S    
O5    P2    S    
O23   P4    S    
C8    C40   A    
C9    C11   A    
C4    O19   S    
O16   P3    S    
C17   H44   S    
O11   P6    D    
Ba1   O16   S    
C23   H9    S    
C5    C6    A    
C39   H25   S    
O6    P7    D    
Ba2   O20   S    
C24   C25   A    
O4    P1    S    
C33   C35   S    
C22   C24   A    
C36   C37   S    
Ba2   O21   S    
C12   H7    S    
C13   C14   A    
Ba1   Ba2   S    
Ba1   P2    S    
O15   P2    D    
C32   H49   S    
C10   C40   A    
C34   H11   S    
C38   O9    S    
Ba2   O24   S    
C1    H8    S    
Ba2   O5    S    
C14   C15   A    
C39   H28   S    
O14   P6    S    
O9    P8    S    
Ba1   O24   S    
C35   H5    S    
C14   P8    S    
C7    C17   A    
C28   O23   S    
O12   P2    S    
C33   H50   S    
C24   C29   A    
C38   H24   S    
C15   H31   S    
C2    P1    S    
Ba1   O21   S    
C37   H19   S    
C30   H12   S    
Ba2   O25   S    
C16   H16   S    
C16   H41   S    
C39   H26   S    
C18   C27   A    
C4    C16   S    
C6    H30   S    
O8    P8    D    
C31   O13   S    
H43   O18   S    
Ba1   O5    S    
C21   P3    S    
C3    C5    A    
O22   P8    S    
C6    C7    A    
C18   C26   A    
C1    H3    S    
O19   P3    S    
C36   O3    S    
O25   P5    S    
C32   H48   S    
C34   H14   S    
C11   P4    S    
C4    H38   S    
C27   C29   A    
C9    C17   A    
C27   P5    S    
C31   C32   S    
C40   H33   S    
C35   H6    S    
C33   H2    S    
C1    C12   S    
Ba1   O15   S    
C36   H18   S    
C1    H15   S    
O3    P5    S    
C38   C39   S    
C19   H39   S    
C33   O12   S    
C20   C25   A    
C19   C21   A    
O13   P1    S    
O1    P1    D    
C28   H46   S    
O10   P6    S    
O2    P5    D    
C29   H36   S    
C7    C8    A    
Ba2   P4    S    
C37   H20   S    
C22   P2    S    
O24   P7    S    
C18   H37   S    
C20   H35   S    
C5    P6    S    
C2    C3    A    
C30   H34   S    
C9    C10   A    
C26   P7    S    
C37   H21   S    
C38   H22   S    
C11   C13   A    
C31   H45   S    
C32   H47   S    
O20   P4    D    
C3    H29   S    
C34   H13   S    
C10   C15   A    
C28   C30   S    
C23   O7    S    
Ba2   O22   S    
Ba1   O4    S    
Ba2   O4    S    
C16   H40   S    
Ba1   P1    S    
C28   H42   S    
C23   H10   S    
C23   C34   S    
C36   H17   S    
C12   O14   S    
C13   H32   S    
O21   P4    S    
Ba2   O6    S    
Ba1   O1    S    
C19   C22   A    
C25   C26   A    
C20   C21   A    
C30   H23   S    
C31   O18   S    
O7    P7    S    
C35   H4    S    
C2    C8    A    
Ba1   O10   S    
O17   P3    D    
C12   H1    S    
