data_mof_unit_41066.cif
_audit_creation_date              2012-12-10T17:34:25-0500
_audit_creation_method            fapswitch 2.2
_symmetry_space_group_name_H-M    P1
_symmetry_Int_Tables_number       1
_space_group_crystal_system       triclinic
_cell_length_a                    12.349566
_cell_length_b                    13.283632
_cell_length_c                    14.296119
_cell_angle_alpha                 78.678073
_cell_angle_beta                  99.874515
_cell_angle_gamma                 116.390092
_cell_volume                      2050.45991053

loop_
_atom_site_label
_atom_site_type_symbol
_atom_type_description
_atom_site_fract_x
_atom_site_fract_y
_atom_site_fract_z
_atom_type_partial_charge
C1    C     C_R   0.854711 0.287343 0.505162 0.770143
C2    C     C_1   0.001244 0.499813 0.229290 -0.205196
C3    C     C_R   0.264448 0.028966 0.421533 0.166311
C4    C     C_R   0.228435 0.833033 0.473804 -0.082688
C5    C     C_R   0.817751 0.085560 0.542019 -0.190756
C6    C     C_R   0.741087 0.970862 0.553984 -0.160358
C7    C     C_R   0.616678 0.933950 0.530848 -0.198032
C8    C     C_R   0.565548 0.011539 0.490221 0.095041
C9    C     C_R   0.645864 0.127808 0.469312 0.087876
C10   C     C_R   0.437485 0.977951 0.470701 0.037524
C11   C     C_R   0.391713 0.060390 0.431572 0.145024
C12   C     C_R   0.999323 0.499774 0.668481 0.813685
C13   C     C_R   0.473813 0.170829 0.400683 -0.242965
C14   C     C_R   0.597666 0.201942 0.414847 -0.210253
C15   C     C_R   0.353344 0.864862 0.490485 -0.265513
C16   C     C_R   0.184615 0.914980 0.441593 -0.234888
C17   C     C_R   0.771811 0.165800 0.502727 -0.105520
C18   C     C_R   0.351880 0.347351 0.664168 -0.312570
C19   C     C_R   0.771675 0.657894 0.388046 0.073216
C20   C     C_R   0.694232 0.711105 0.382041 0.108354
C21   C     C_R   0.593133 0.656483 0.434626 -0.298538
C22   C     C_R   0.564729 0.547728 0.486626 -0.024439
C23   C     C_R   0.145154 0.712633 0.487643 0.806204
C24   C     C_R   0.656144 0.508324 0.503218 0.273287
C25   C     C_R   0.454151 0.482766 0.530626 -0.036630
C26   C     C_R   0.452824 0.401761 0.611367 0.134724
C27   C     C_R   0.550189 0.372251 0.635528 -0.271411
C28   C     C_R   0.647151 0.420347 0.579255 -0.166371
C29   C     C_R   0.341898 0.487647 0.493772 0.289040
C30   C     C_R   0.251081 0.370449 0.634475 0.037220
C31   C     C_R   0.000588 0.500140 0.331522 0.804796
C32   C     C_1   0.998463 0.499899 0.770740 -0.201062
C33   C     C_1   0.998641 0.499856 0.856324 -0.011408
C34   C     C_1   0.999449 0.499748 0.957211 0.000434
C35   C     C_1   0.000266 0.499682 0.042893 -0.001419
C36   C     C_1   0.001041 0.499690 0.143743 -0.021119
Cu1   Cu    Cu3+1 0.098280 0.475420 0.520190 0.914430
Cu2   Cu    Cu3+1 0.901720 0.524580 0.479810 0.912040
H1    H     H_    0.087576 0.890060 0.432907 0.150667
H2    H     H_    0.549014 0.307989 0.695777 0.155378
H3    H     H_    0.350959 0.287475 0.727914 0.147448
H4    H     H_    0.851821 0.697334 0.349834 0.145553
H5    H     H_    0.715435 0.389795 0.600842 0.202722
H6    H     H_    0.443785 0.234252 0.363130 0.150456
H7    H     H_    0.382521 0.798841 0.518065 0.159590
H8    H     H_    0.913254 0.111469 0.565936 0.157346
H9    H     H_    0.564155 0.843881 0.545978 0.128500
H10   H     H_    0.777957 0.909970 0.584553 0.150733
H11   H     H_    0.174572 0.331380 0.677013 0.138720
N1    N     N_R   0.246290 0.438200 0.550780 -0.181331
N2    N     N_R   0.754310 0.561180 0.449760 -0.228366
O1    O     O_R   0.972510 0.318130 0.525390 -0.580609
O2    O     O_R   0.806530 0.359650 0.491290 -0.602541
O3    O     O_R   0.083010 0.479240 0.641000 -0.560660
O4    O     O_R   0.917030 0.520750 0.606900 -0.569853
O5    O     O_R   0.193470 0.640350 0.508710 -0.587996
O6    O     O_R   0.027490 0.681870 0.474610 -0.587069
O7    O     O_R   0.082970 0.479250 0.393100 -0.560371
O8    O     O_R   0.916990 0.520760 0.359000 -0.568384
C37   C     C_3   0.319735 0.523135 0.386476 -0.364699
C38   C     C_3   0.248365 0.419998 0.333007 -0.794503
H12   H     H_    0.306533 0.376105 0.332355 0.228699
H13   H     H_    0.164994 0.358169 0.366182 0.273489
H14   H     H_    0.222655 0.448271 0.257628 0.236758
H15   H     H_    0.281354 0.586099 0.373376 0.216842
H16   H     H_    0.401622 0.567614 0.348357 0.182015
H17   H     H_    0.535499 0.698906 0.433887 0.138775
C39   C     C_3   0.714877 0.825094 0.322860 -0.403966
C40   C     C_3   0.828940 0.881873 0.269326 -0.873604
H18   H     H_    0.911417 0.898328 0.320634 0.239804
H19   H     H_    0.824881 0.827982 0.217256 0.250612
H20   H     H_    0.835180 0.964465 0.229060 0.252121
H21   H     H_    0.634812 0.813801 0.269551 0.207990
H22   H     H_    0.720503 0.883904 0.370981 0.223431
C41   C     C_3   0.210068 0.114022 0.399271 -0.442368
C42   C     C_3   0.232825 0.172821 0.486900 -0.800611
H23   H     H_    0.210877 0.109897 0.552735 0.252150
H24   H     H_    0.329281 0.234444 0.495620 0.264392
H25   H     H_    0.174013 0.217644 0.478830 0.245541
H26   H     H_    0.245825 0.176082 0.335390 0.190786
H27   H     H_    0.110146 0.071129 0.381312 0.203573
H28   H     H_    0.653852 0.284672 0.380125 0.184631

loop_
_geom_bond_atom_site_label_1
_geom_bond_atom_site_label_2
_ccdc_geom_bond_type
C8    C9    A    
C38   H14   S    
C35   C36   S    
C18   C26   A    
C42   H25   S    
C9    C14   A    
C7    C8    A    
C26   C27   A    
C6    H10   S    
C31   O7    A    
C42   H24   S    
C4    C23   S    
C10   C15   A    
C5    C6    A    
C5    C17   A    
C39   H22   S    
C40   H19   S    
C34   C35   T    
C31   O8    A    
C38   H13   S    
C1    O2    A    
Cu1   O5    S    
Cu2   O4    S    
C19   C20   A    
C39   C40   S    
C22   C25   A    
C18   C30   A    
C3    C41   S    
C41   H26   S    
Cu1   O7    S    
C19   H4    S    
C24   N2    A    
C30   N1    A    
C37   H16   S    
C21   C22   A    
C12   C32   S    
C38   H12   S    
C29   N1    A    
C25   C29   A    
C23   O5    A    
C42   H23   S    
C18   H3    S    
Cu1   O1    S    
C41   H27   S    
Cu2   N2    S    
C25   C26   A    
C37   C38   S    
C7    H9    S    
C4    C16   A    
C40   H20   S    
C41   C42   S    
Cu1   Cu2   S    
Cu2   O6    S    
C29   C37   S    
C27   H2    S    
C33   C34   S    
Cu1   O3    S    
C9    C17   A    
C30   H11   S    
C37   H15   S    
C22   C24   A    
C14   H28   S    
C2    C36   T    
C23   O6    A    
C20   C39   S    
C24   C28   A    
C6    C7    A    
C21   H17   S    
C5    H8    S    
C28   H5    S    
C1    C17   S    
C32   C33   T    
C4    C15   A    
C39   H21   S    
Cu1   N1    S    
C11   C13   A    
Cu2   O2    S    
C40   H18   S    
C1    O1    A    
C12   O4    A    
C3    C11   A    
C10   C11   A    
C16   H1    S    
Cu2   O8    S    
C19   N2    A    
C20   C21   A    
C8    C10   A    
C27   C28   A    
C15   H7    S    
C2    C31   S    
C13   C14   A    
C13   H6    S    
C12   O3    A    
C3    C16   A    
