data_mof_unit_41584.cif
_audit_creation_date              2012-12-10T16:55:58-0500
_audit_creation_method            fapswitch 2.2
_symmetry_space_group_name_H-M    P1
_symmetry_Int_Tables_number       1
_space_group_crystal_system       triclinic
_cell_length_a                    18.826587
_cell_length_b                    19.340165
_cell_length_c                    18.775336
_cell_angle_alpha                 110.230325
_cell_angle_beta                  109.628758
_cell_angle_gamma                 109.999925
_cell_volume                      5166.45680156

loop_
_atom_site_label
_atom_site_type_symbol
_atom_type_description
_atom_site_fract_x
_atom_site_fract_y
_atom_site_fract_z
_atom_type_partial_charge
C1    C     C_R   0.372633 0.381430 0.491536 0.901900
C2    C     C_3   0.807870 0.499249 0.809064 -0.192662
C3    C     C_3   0.849213 0.549612 0.768504 0.157306
C4    C     C_3   0.764634 0.545175 0.850839 0.149037
C5    C     C_R   0.160129 0.280921 0.359263 0.335523
C6    C     C_R   0.072053 0.220508 0.291468 -0.257126
C7    C     C_R   0.030613 0.139303 0.277375 0.329654
C8    C     C_R   0.075643 0.120509 0.335569 -0.230020
C9    C     C_R   0.157084 0.185329 0.414510 0.003549
C10   C     C_R   0.208253 0.262477 0.420345 -0.012656
C11   C     C_R   0.300574 0.315250 0.489160 -0.060413
C12   C     C_R   0.618288 0.500260 0.620158 0.829152
C13   C     C_R   0.328719 0.300783 0.559104 -0.166378
C14   C     C_R   0.271143 0.233960 0.560595 -0.137715
C15   C     C_R   0.185093 0.175829 0.488811 -0.063380
C16   C     C_R   0.389289 0.670260 0.411247 -0.197015
C17   C     C_R   0.379512 0.741690 0.431069 -0.181867
C18   C     C_R   0.306365 0.736031 0.371222 0.439569
C19   C     C_R   0.243982 0.659020 0.290263 -0.158431
C20   C     C_R   0.252094 0.585570 0.268859 0.060483
C21   C     C_R   0.324493 0.590239 0.331648 0.092313
C22   C     C_R   0.331488 0.515674 0.311298 -0.067887
C23   C     C_R   0.622331 0.618812 0.503193 0.814148
C24   C     C_R   0.275660 0.444222 0.224420 -0.000463
C25   C     C_R   0.203778 0.438922 0.163834 -0.109202
C26   C     C_R   0.189705 0.507646 0.186174 -0.003337
C27   C     C_R   0.757311 0.597098 0.463588 -0.072407
C28   C     C_R   0.800537 0.575846 0.420026 -0.106493
C29   C     C_R   0.829624 0.622413 0.383193 -0.104683
C30   C     C_R   0.824155 0.695969 0.398013 -0.042457
C31   C     C_R   0.795621 0.726921 0.456342 -0.005078
C32   C     C_R   0.748443 0.669390 0.476187 0.106486
C33   C     C_R   0.693717 0.686069 0.507075 -0.121566
C34   C     C_R   0.390755 0.508441 0.380461 0.879583
C35   C     C_R   0.702486 0.767302 0.536261 -0.217310
C36   C     C_R   0.762944 0.831432 0.533890 0.414521
C37   C     C_R   0.809824 0.811456 0.493167 -0.208024
C38   C     C_R   0.995305 0.381312 0.876609 0.857544
C39   C     C_R   0.877273 0.499473 0.877845 0.874023
C40   C     C_R   0.998227 0.618155 0.117156 0.831729
C41   C     C_R   0.117804 0.501550 0.117100 0.757963
C42   C     C_R   0.998938 0.116884 0.620309 0.874079
C43   C     C_R   0.119310 0.114931 0.496517 0.755925
C44   C     C_R   0.003190 0.884842 0.380499 0.770359
C45   C     C_3   0.667826 0.407585 0.659162 -0.250752
C46   C     C_R   0.880028 0.880406 0.498093 0.871617
C47   C     C_R   0.153203 0.371405 0.919142 -0.337103
C48   C     C_R   0.226424 0.361932 0.945860 0.323051
C49   C     C_R   0.216097 0.280965 0.897624 0.308660
C50   C     C_R   0.132949 0.213759 0.821806 -0.187887
C51   C     C_R   0.068602 0.232352 0.782647 -0.011843
C52   C     C_R   0.073487 0.307296 0.837947 -0.012718
C53   C     C_R   0.997218 0.314076 0.812124 -0.182729
C54   C     C_R   0.920515 0.249852 0.727791 0.396307
C55   C     C_R   0.925144 0.188369 0.667499 -0.186641
C56   C     C_3   0.735704 0.406504 0.732118 -0.321312
C57   C     C_R   0.998013 0.179039 0.692214 -0.158136
C58   C     C_R   0.966371 0.741192 0.082069 -0.094304
C59   C     C_R   0.958236 0.804159 0.067000 -0.121327
C60   C     C_R   0.962404 0.870987 0.130735 -0.063633
C61   C     C_R   0.974278 0.874752 0.209481 -0.126929
C62   C     C_R   0.986280 0.813878 0.228684 0.092294
C63   C     C_R   0.983455 0.746255 0.163973 0.083829
C64   C     C_R   0.994691 0.683818 0.181106 -0.173457
C65   C     C_R   0.003173 0.685651 0.259635 0.412764
C66   C     C_R   0.008526 0.753899 0.323496 -0.189450
C67   C     C_3   0.779196 0.558365 0.705194 0.117911
C68   C     C_R   0.001046 0.818226 0.309995 -0.143575
C69   C     C_3   0.688039 0.538334 0.778079 -0.349817
C70   C     C_3   0.686821 0.502079 0.690065 -0.146638
Cu1   Cu    Cu3+1 0.500370 0.438230 0.438530 1.055665
Cu2   Cu    Cu3+1 0.499630 0.561770 0.561470 1.103538
Cu3   Cu    Cu3+1 0.935490 0.438240 0.997340 1.209297
Cu4   Cu    Cu3+1 0.059110 0.561770 0.997270 1.055220
Cu5   Cu    Cu3+1 0.062130 0.000010 0.562160 1.094550
Cu6   Cu    Cu3+1 0.937870 0.000010 0.437860 1.100731
H1    H     H_    0.674249 0.383726 0.599940 0.214061
H2    H     H_    0.816025 0.614569 0.896814 0.122159
H3    H     H_    0.904293 0.615044 0.824900 0.132623
H4    H     H_    0.395905 0.343340 0.614586 0.158484
H5    H     H_    0.036114 0.234473 0.245392 0.234363
H6    H     H_    0.044532 0.056626 0.322425 0.164992
H7    H     H_    0.293767 0.228315 0.618368 0.183469
H8    H     H_    0.284983 0.390040 0.203850 0.192611
H9    H     H_    0.449580 0.679756 0.457843 0.166266
H10   H     H_    0.429624 0.801629 0.493157 0.182893
H11   H     H_    0.189158 0.657429 0.244548 0.176438
H12   H     H_    0.159872 0.381453 0.098295 0.132734
H13   H     H_    0.662446 0.781187 0.562169 0.205453
H14   H     H_    0.732680 0.557569 0.488501 0.162996
H15   H     H_    0.805958 0.519650 0.409532 0.175858
H16   H     H_    0.852332 0.598670 0.339572 0.196975
H17   H     H_    0.704596 0.367606 0.756246 0.244158
H18   H     H_    0.160367 0.430566 0.961809 0.198262
H19   H     H_    0.869239 0.145020 0.600315 0.241406
H20   H     H_    0.957591 0.688356 0.027797 0.134700
H21   H     H_    0.947740 0.800598 0.005317 0.198274
H22   H     H_    0.765658 0.374371 0.703176 0.276423
H23   H     H_    0.955012 0.919330 0.118425 0.215529
H24   H     H_    0.972131 0.924895 0.253424 0.174853
H25   H     H_    0.015097 0.755311 0.383626 0.208108
H26   H     H_    0.773269 0.533213 0.639277 0.165194
H27   H     H_    0.694783 0.602609 0.800166 0.242066
H28   H     H_    0.623169 0.495250 0.766713 0.188204
O1    O     O_R   0.410120 0.357660 0.448080 -0.560063
O2    O     O_R   0.049970 0.461970 0.907590 -0.574833
O3    O     O_R   0.854450 0.447860 0.906670 -0.498568
O4    O     O_R   0.958850 0.552170 0.906610 -0.576021
O5    O     O_R   0.944630 0.538040 0.087020 -0.481697
O6    O     O_R   0.049030 0.642360 0.086960 -0.611328
O7    O     O_R   0.035750 0.447840 0.088000 -0.538449
O8    O     O_R   0.140150 0.552150 0.087940 -0.599470
O9    O     O_R   0.051920 0.090140 0.642160 -0.587299
O10   O     O_R   0.946980 0.090140 0.537200 -0.561524
O11   O     O_R   0.142650 0.090190 0.552500 -0.573671
O12   O     O_R   0.409500 0.461990 0.551900 -0.558015
O13   O     O_R   0.037720 0.090180 0.447540 -0.589561
O14   O     O_R   0.053020 0.909880 0.462820 -0.566265
O15   O     O_R   0.948080 0.909870 0.357860 -0.583565
O16   O     O_R   0.962280 0.909830 0.552480 -0.558113
O17   O     O_R   0.857350 0.909830 0.447520 -0.540247
O18   O     O_R   0.590960 0.447820 0.538760 -0.609356
O19   O     O_R   0.590340 0.552160 0.642570 -0.549590
O20   O     O_R   0.590500 0.538010 0.448100 -0.611138
O21   O     O_R   0.589880 0.642340 0.551920 -0.572307
O22   O     O_R   0.409660 0.447840 0.357430 -0.538764
O23   O     O_R   0.409040 0.552180 0.461240 -0.551458
O24   O     O_R   0.945580 0.357650 0.907650 -0.543409
S1    S     S_3+6 0.816400 0.671283 0.744625 -0.002719
O25   O     O_2   0.747626 0.681908 0.688573 -0.245278
O26   O     O_2   0.839171 0.719134 0.838810 -0.340031
O27   O     O_3   0.906653 0.715543 0.738702 -0.459163
H29   H     H_    0.956645 0.731498 0.793936 0.370349
S2    S     S_3+6 0.205507 0.369636 0.351754 -0.019904
O28   O     O_2   0.137774 0.381688 0.295529 -0.275279
O29   O     O_2   0.265467 0.449430 0.441989 -0.257218
O30   O     O_3   0.256356 0.340761 0.300090 -0.583433
H30   H     H_    0.208594 0.289244 0.241110 0.345392
S3    S     S_3+6 0.920151 0.064725 0.190541 0.032798
O31   O     O_2   0.917476 0.031768 0.103983 -0.232896
O32   O     O_2   0.878811 0.990368 0.201365 -0.295379
O33   O     O_3   0.862327 0.114486 0.189251 -0.451308
H31   H     H_    0.868207 0.136620 0.248295 0.354908
C71   C     C_1   0.577696 0.345079 0.631543 0.277158
N1    N     N_1   0.507493 0.295110 0.609691 -0.263801
S4    S     S_3+6 0.291870 0.824999 0.397048 0.044978
O34   O     O_2   0.253235 0.828834 0.315237 -0.250918
O35   O     O_2   0.229056 0.814432 0.430561 -0.261026
O36   O     O_3   0.388824 0.917389 0.474882 -0.477759
H32   H     H_    0.397566 0.923007 0.532102 0.362589
C72   C     C_1   0.819965 0.720332 0.333043 0.233307
N2    N     N_1   0.812859 0.737052 0.278504 -0.189947
S5    S     S_3+6 0.779671 0.936279 0.584565 0.034811
O37   O     O_2   0.767420 0.966620 0.520148 -0.254093
O38   O     O_2   0.715641 0.936738 0.615444 -0.256288
O39   O     O_3   0.883117 0.003191 0.672132 -0.554669
H33   H     H_    0.881037 0.049874 0.713580 0.380254
S6    S     S_3+6 0.816925 0.242270 0.687956 0.012537
O40   O     O_2   0.802928 0.286492 0.760501 -0.302286
O41   O     O_2   0.810233 0.280208 0.630135 -0.274670
O42   O     O_3   0.737181 0.137432 0.625499 -0.462972
H34   H     H_    0.681630 0.136700 0.598217 0.393594
S7    S     S_3+6 0.327168 0.451940 0.042226 0.063531
O43   O     O_2   0.364619 0.425816 0.105410 -0.211601
O44   O     O_2   0.392380 0.486275 0.016132 -0.205102
O45   O     O_3   0.312341 0.531226 0.094706 -0.542691
H35   H     H_    0.311756 0.561911 0.062004 0.363945
S8    S     S_3+6 0.302827 0.259908 0.932984 0.076224
O46   O     O_2   0.284029 0.179917 0.858866 -0.283249
O47   O     O_2   0.389324 0.333745 0.962381 -0.173443
O48   O     O_3   0.310229 0.245486 0.017948 -0.501917
H36   H     H_    0.360861 0.236969 0.036507 0.389695
C73   C     C_1   0.104701 0.126969 0.804496 0.454490
N3    N     N_1   0.082214 0.057827 0.791186 -0.169303
S9    S     S_3+6 0.001737 0.602002 0.279628 0.032104
O49   O     O_2   0.908739 0.526315 0.223434 -0.256868
O50   O     O_2   0.060155 0.574403 0.256377 -0.302656
O51   O     O_3   0.036132 0.635177 0.386860 -0.519761
H37   H     H_    0.025459 0.582934 0.390341 0.392944
S10   S     S_3+6 0.898297 0.504908 0.711075 0.022300
O52   O     O_2   0.829167 0.435079 0.616390 -0.280925
O53   O     O_2   0.964888 0.576219 0.712048 -0.248751
O54   O     O_3   0.949323 0.463393 0.758779 -0.494347
H38   H     H_    0.976234 0.445134 0.724450 0.385597
S11   S     S_3+6 0.726726 0.512451 0.917031 0.042835
O55   O     O_2   0.803855 0.547719 0.005203 -0.254603
O56   O     O_2   0.671570 0.549610 0.933460 -0.236026
O57   O     O_3   0.665982 0.404802 0.867509 -0.468714
H39   H     H_    0.607795 0.387593 0.820943 0.354352

loop_
_geom_bond_atom_site_label_1
_geom_bond_atom_site_label_2
_ccdc_geom_bond_type
C8    C9    A    
C66   C68   A    
O48   H36   S    
C16   C21   A    
C24   H8    S    
C11   C13   A    
Cu3   Cu4   S    
Cu1   O18   S    
C35   C36   A    
C1    C11   S    
C56   H22   S    
Cu5   Cu6   S    
C60   H23   S    
C3    H3    S    
S2    O30   S    
O42   H34   S    
C30   C72   S    
C7    C8    A    
S9    O50   D    
C48   S7    S    
C73   N3    T    
C52   C53   A    
C39   O3    A    
C38   C53   S    
C62   C63   A    
C50   C73   S    
C8    H6    S    
Cu6   O17   S    
C28   C29   A    
S7    O44   D    
C16   H9    S    
S1    O25   D    
C19   H11   S    
C69   C70   S    
Cu4   O8    S    
C5    C6    A    
S3    O33   S    
Cu3   O3    S    
C54   S6    S    
C27   H14   S    
C17   C18   A    
C18   C19   A    
C58   H20   S    
S6    O42   S    
C43   O11   A    
S8    O46   D    
C2    C39   S    
C42   O10   A    
S8    O48   S    
C47   C48   A    
C45   C56   S    
C16   C17   A    
C23   C33   S    
C41   O8    A    
C45   C71   S    
Cu6   O10   S    
C72   N2    T    
C46   O17   A    
C51   C57   A    
C1    O12   A    
S5    O38   D    
C9    C10   A    
S10   O54   S    
C23   O21   A    
S1    O27   S    
S8    O47   D    
C45   C70   S    
C13   H4    S    
C59   C60   A    
S5    O37   D    
C6    H5    S    
C21   C22   A    
C65   S9    S    
S6    O41   D    
C66   H25   S    
O45   H35   S    
C67   S1    S    
Cu5   O14   S    
C14   H7    S    
C42   C57   S    
C4    C69   S    
S10   O53   D    
C36   S5    S    
Cu3   O7    S    
S9    O51   S    
S4    O35   D    
C69   H27   S    
C39   O4    A    
C22   C34   S    
Cu6   O15   S    
Cu2   O23   S    
C51   C52   A    
O51   H37   S    
Cu1   O20   S    
S7    O45   S    
C24   C25   A    
C49   S8    S    
C55   H19   S    
C34   O23   A    
S11   O57   S    
C40   O6    A    
C44   O15   A    
C25   C26   A    
C53   C54   A    
C25   H12   S    
C17   H10   S    
O57   H39   S    
C4    S11   S    
C38   O2    A    
C47   C52   A    
C2    C4    S    
C3    S10   S    
O54   H38   S    
C4    H2    S    
C29   C30   A    
Cu4   O2    S    
S4    O36   S    
C42   O9    A    
C31   C32   A    
C44   O14   A    
C34   O22   A    
C50   C51   A    
C46   O16   A    
Cu1   O22   S    
S5    O39   S    
C40   O5    A    
C43   O13   A    
Cu5   O9    S    
C35   H13   S    
C56   H17   S    
C65   C66   A    
Cu1   O1    S    
Cu2   O19   S    
S6    O40   D    
C59   H21   S    
C22   C24   A    
C44   C68   S    
C61   H24   S    
Cu5   O11   S    
S10   O52   D    
S4    O34   D    
C69   H28   S    
C58   C63   A    
C12   C70   S    
C54   C55   A    
O39   H33   S    
C27   C32   A    
O33   H31   S    
C3    C67   S    
Cu5   O16   S    
C71   N1    T    
C18   S4    S    
Cu4   O6    S    
C38   O24   A    
S3    O31   D    
Cu3   O5    S    
C6    C7    A    
Cu3   O24   S    
O30   H30   S    
Cu2   O12   S    
S2    O28   D    
Cu6   O13   S    
C40   C64   S    
C62   C68   A    
Cu2   O21   S    
C67   C70   S    
C32   C33   A    
C19   C20   A    
C55   C57   A    
C2    C3    S    
C58   C59   A    
C15   C43   S    
Cu1   Cu2   S    
S9    O49   D    
C2    C56   S    
O36   H32   S    
C64   C65   A    
C7    S3    S    
C5    S2    S    
S3    O32   D    
S11   O55   D    
C30   C31   A    
C12   O19   A    
C20   C26   A    
C48   C49   A    
C33   C35   A    
C47   H18   S    
S2    O29   D    
O27   H29   S    
C28   H15   S    
C9    C15   A    
C61   C62   A    
S7    O43   D    
S11   O56   D    
C10   C11   A    
Cu4   O4    S    
C63   C64   A    
C31   C37   A    
C5    C10   A    
C12   O18   A    
C20   C21   A    
C67   H26   S    
C36   C37   A    
C49   C50   A    
C41   O7    A    
C27   C28   A    
C14   C15   A    
C60   C61   A    
C45   H1    S    
C37   C46   S    
C13   C14   A    
C23   O20   A    
C29   H16   S    
C26   C41   S    
C1    O1    A    
S1    O26   D    
