data_mof_unit_18471.cif
_audit_creation_date              2012-12-11T16:16:50-0500
_audit_creation_method            fapswitch 2.2
_symmetry_space_group_name_H-M    P1
_symmetry_Int_Tables_number       1
_space_group_crystal_system       triclinic
_cell_length_a                    13.293424
_cell_length_b                    13.283672
_cell_length_c                    28.609071
_cell_angle_alpha                 89.984644
_cell_angle_beta                  90.046305
_cell_angle_gamma                 120.029061
_cell_volume                      4373.83089649

loop_
_atom_site_label
_atom_site_type_symbol
_atom_type_description
_atom_site_fract_x
_atom_site_fract_y
_atom_site_fract_z
_atom_type_partial_charge
C1    C     C_R   0.438652 0.550141 0.316518 0.540569
C2    C     C_R   0.549723 0.439042 0.683728 0.551921
C3    C     C_R   0.561024 0.110882 0.816266 0.540718
C4    C     C_R   0.889066 0.450087 0.683680 0.550601
C5    C     C_1   0.060244 0.524746 0.361333 0.040718
C6    C     C_1   0.462362 0.933198 0.137355 0.040588
C7    C     C_1   0.472475 0.536645 0.362303 0.042770
C8    C     C_1   0.060073 0.526513 0.138566 0.030144
C9    C     C_1   0.463707 0.935935 0.362023 0.044724
C10   C     C_1   0.474275 0.535476 0.138244 0.034098
C11   C     C_1   0.523689 0.057868 0.860936 0.036893
C12   C     C_R   0.110265 0.560797 0.183854 0.554754
C13   C     C_1   0.934951 0.462814 0.637757 0.050536
C14   C     C_1   0.536674 0.476184 0.861567 0.028984
C15   C     C_1   0.526225 0.061415 0.638441 0.042950
C16   C     C_1   0.938022 0.464328 0.861778 0.035318
C17   C     C_1   0.533429 0.475329 0.638867 0.038491
C18   C     C_R   0.042271 0.431591 0.477463 -0.111131
C19   C     C_R   0.420583 0.019515 0.024746 -0.104124
C20   C     C_R   0.582511 0.606480 0.477524 -0.056071
C21   C     C_R   0.962292 0.397078 0.026760 -0.116788
C22   C     C_R   0.403769 0.995979 0.475942 -0.104356
C23   C     C_R   0.450088 0.888918 0.316316 0.543853
C24   C     C_R   0.601630 0.534485 0.027735 -0.120551
C25   C     C_R   0.426950 0.034460 0.976582 -0.086365
C26   C     C_R   0.027062 0.424976 0.525623 -0.105519
C27   C     C_R   0.611903 0.533237 0.979379 -0.105723
C28   C     C_R   0.410693 0.010104 0.524148 -0.106708
C29   C     C_R   0.949465 0.388818 0.978486 -0.091557
C30   C     C_R   0.585777 0.601575 0.525984 -0.088635
C31   C     C_R   0.930995 0.540567 0.520246 0.051992
C32   C     C_R   0.543400 0.939715 0.970350 0.054709
C33   C     C_R   0.414605 0.407273 0.525130 0.047247
C34   C     C_R   0.439241 0.549649 0.183750 0.552045
C35   C     C_R   0.045311 0.600246 0.972330 0.064423
C36   C     C_R   0.585221 0.992938 0.525731 0.048750
C37   C     C_R   0.418520 0.509075 0.969617 0.070827
C38   C     C_R   0.539351 0.926951 0.019691 0.060181
C39   C     C_R   0.944872 0.545504 0.470988 0.055736
C40   C     C_R   0.408067 0.509701 0.018929 0.070235
C41   C     C_R   0.577933 0.978033 0.476530 0.046591
C42   C     C_R   0.056209 0.608690 0.021711 0.084554
C43   C     C_R   0.411204 0.412356 0.475623 0.039128
C44   C     C_R   0.002084 0.491473 0.450170 -0.012725
C45   C     C_R   0.111135 0.561079 0.316322 0.540912
C46   C     C_R   0.477571 0.967995 0.046472 0.006339
C47   C     C_R   0.497067 0.512524 0.452234 0.003735
C48   C     C_R   0.014388 0.505668 0.048508 0.005893
C49   C     C_R   0.486739 0.980725 0.452074 -0.009949
C50   C     C_R   0.499923 0.521104 0.047650 0.004251
C51   C     C_R   0.488278 0.995851 0.949398 0.011895
C52   C     C_R   0.973058 0.479759 0.547151 -0.006902
C53   C     C_R   0.521054 0.519496 0.950327 0.028130
C54   C     C_R   0.500512 0.009022 0.549043 -0.014450
C55   C     C_R   0.990513 0.489116 0.951256 0.007307
C56   C     C_R   0.449987 0.888785 0.183572 0.552876
C57   C     C_R   0.503059 0.503014 0.549865 -0.009095
C58   C     C_1   0.958566 0.470957 0.596959 0.014015
C59   C     C_1   0.502361 0.024473 0.900598 0.011607
C60   C     C_1   0.519688 0.493867 0.598972 0.009814
C61   C     C_1   0.967098 0.475370 0.902015 0.003957
C62   C     C_1   0.508963 0.032208 0.598242 0.004842
C63   C     C_1   0.529136 0.500097 0.901407 0.014670
C64   C     C_1   0.470074 0.955283 0.096389 0.002852
C65   C     C_1   0.028914 0.504425 0.401236 0.006921
C66   C     C_1   0.492078 0.527257 0.097633 -0.002933
C67   C     C_R   0.550260 0.438851 0.816476 0.540694
C68   C     C_1   0.474021 0.961885 0.402577 0.008312
C69   C     C_1   0.032239 0.511254 0.098143 -0.015490
C70   C     C_1   0.489281 0.526191 0.402784 0.024049
C71   C     C_2   0.878344 0.603268 0.543821 0.597593
C72   C     C_2   0.602144 0.892381 0.940693 0.623469
C73   C     C_2   0.329642 0.301232 0.551076 0.607859
C74   C     C_2   0.094411 0.706537 0.942701 0.609211
C75   C     C_2   0.678717 0.988983 0.552920 0.608244
C76   C     C_2   0.322064 0.493452 0.938307 0.605284
C77   C     C_2   0.604740 0.877486 0.043493 0.600641
C78   C     C_R   0.561080 0.110975 0.683721 0.548939
C79   C     C_2   0.897251 0.603674 0.441169 0.610715
C80   C     C_2   0.302630 0.500107 0.040838 0.624238
C81   C     C_2   0.666454 0.962937 0.450482 0.600549
C82   C     C_2   0.107408 0.723892 0.045360 0.609819
C83   C     C_2   0.316568 0.316014 0.448308 0.599654
C84   C     C_R   0.888854 0.450030 0.816376 0.539624
Cr1   Cr    Cr6+3 0.505050 0.756260 0.250000 1.059382
Cr2   Cr    Cr6+3 0.251210 0.494950 0.250000 1.061145
Cr3   Cr    Cr6+3 0.243740 0.748790 0.250000 1.060872
Cr4   Cr    Cr6+3 0.756260 0.505050 0.750000 1.063388
Cr5   Cr    Cr6+3 0.494950 0.251210 0.750000 1.054806
Cr6   Cr    Cr6+3 0.748790 0.243740 0.750000 1.064687
H1    H     H_    0.086888 0.390966 0.461433 0.177788
H2    H     H_    0.346084 0.022631 0.542121 0.183357
H3    H     H_    0.906791 0.303614 0.962279 0.152549
H4    H     H_    0.654599 0.674068 0.544869 0.183007
H5    H     H_    0.772055 0.602672 0.594145 0.335754
H6    H     H_    0.712370 0.918392 0.887599 0.352866
H7    H     H_    0.222612 0.234002 0.606541 0.349537
H8    H     H_    0.070752 0.791800 0.889310 0.348225
H9    H     H_    0.804314 0.063582 0.601874 0.350413
H10   H     H_    0.274252 0.542195 0.879426 0.340733
H11   H     H_    0.608364 0.774411 0.094301 0.339595
H12   H     H_    0.372550 0.049985 0.045240 0.137168
H13   H     H_    0.924421 0.716731 0.389008 0.345747
H14   H     H_    0.172289 0.415893 0.087173 0.339647
H15   H     H_    0.699250 0.872353 0.402193 0.345042
H16   H     H_    0.215742 0.832164 0.094726 0.335016
H17   H     H_    0.271676 0.210078 0.392215 0.348747
H18   H     H_    0.646735 0.684228 0.459672 0.186823
H19   H     H_    0.931452 0.318417 0.047244 0.136527
H20   H     H_    0.333299 0.996795 0.457184 0.166508
H21   H     H_    0.672834 0.545080 0.049643 0.131497
H22   H     H_    0.385086 0.077858 0.960471 0.141630
H23   H     H_    0.058757 0.378083 0.546226 0.166416
H24   H     H_    0.690063 0.539957 0.964543 0.139457
O1    O     O_R   0.530190 0.870330 0.301660 -0.489779
O2    O     O_R   0.870330 0.530190 0.698340 -0.492690
O3    O     O_R   0.469810 0.340140 0.801660 -0.501226
O4    O     O_R   0.659860 0.129670 0.698340 -0.485364
O5    O     O_R   0.494300 0.651190 0.297490 -0.494002
O6    O     O_R   0.156890 0.505700 0.202510 -0.492878
O7    O     O_R   0.348810 0.843110 0.297490 -0.497283
O8    O     O_R   0.494300 0.651190 0.202510 -0.492026
O9    O     O_R   0.156890 0.505700 0.297490 -0.499259
O10   O     O_R   0.348810 0.843110 0.202510 -0.491721
O11   O     O_R   0.651190 0.494300 0.797490 -0.490772
O12   O     O_R   0.340140 0.469810 0.198340 -0.486929
O13   O     O_R   0.505700 0.156890 0.702510 -0.495470
O14   O     O_R   0.843110 0.348810 0.797490 -0.497235
O15   O     O_R   0.651190 0.494300 0.702510 -0.492204
O16   O     O_R   0.505700 0.156890 0.797490 -0.501407
O17   O     O_R   0.843110 0.348810 0.702510 -0.489823
O18   O     O_3   0.333333 0.666667 0.250000 -0.256160
O19   O     O_3   0.666667 0.333333 0.750000 -0.260427
O20   O     O_2   0.906979 0.702687 0.532211 -0.474550
O21   O     O_R   0.797243 0.549238 0.579624 -0.693469
O22   O     O_2   0.583515 0.793529 0.947251 -0.463799
O23   O     O_R   0.129670 0.659860 0.301660 -0.488504
O24   O     O_R   0.678453 0.960576 0.905326 -0.686372
O25   O     O_2   0.305496 0.204830 0.536942 -0.495991
O26   O     O_R   0.278164 0.312010 0.591946 -0.692608
O27   O     O_2   0.193635 0.785804 0.949462 -0.480146
O28   O     O_R   0.027483 0.715709 0.907032 -0.687019
O29   O     O_2   0.698862 0.909688 0.546671 -0.500505
O30   O     O_R   0.743529 0.075929 0.585631 -0.676260
O31   O     O_2   0.221404 0.421831 0.947817 -0.498956
O32   O     O_R   0.346805 0.560401 0.897710 -0.661505
O33   O     O_2   0.704347 0.908004 0.031633 -0.480048
O34   O     O_R   0.530190 0.870330 0.198340 -0.492604
O35   O     O_R   0.553207 0.797492 0.079851 -0.674186
O36   O     O_2   0.796841 0.581167 0.446420 -0.504815
O37   O     O_R   0.966919 0.683551 0.407031 -0.679784
O38   O     O_2   0.269131 0.567202 0.029584 -0.460879
O39   O     O_R   0.242802 0.414678 0.074658 -0.683119
O40   O     O_2   0.769942 0.028707 0.457762 -0.459370
O41   O     O_R   0.631248 0.873655 0.417589 -0.706034
O42   O     O_2   0.076756 0.793229 0.033960 -0.488991
O43   O     O_R   0.190020 0.752828 0.080726 -0.657425
O44   O     O_2   0.215536 0.273081 0.461040 -0.488611
O45   O     O_R   0.340140 0.469810 0.301660 -0.495648
O46   O     O_R   0.343210 0.275247 0.407791 -0.683183
O47   O     O_R   0.129670 0.659860 0.198340 -0.490078
O48   O     O_R   0.870330 0.530190 0.801660 -0.487559
O49   O     O_R   0.469810 0.340140 0.698340 -0.489073
O50   O     O_R   0.659860 0.129670 0.801660 -0.485476

loop_
_geom_bond_atom_site_label_1
_geom_bond_atom_site_label_2
_ccdc_geom_bond_type
C84   O14   A    
C29   H3    S    
C35   C74   S    
C56   O34   A    
C49   C68   S    
Cr2   O12   S    
C3    O16   A    
C43   C83   S    
C42   C82   S    
C24   C27   A    
C48   C69   S    
C7    C70   T    
H17   O46   S    
C44   C65   S    
C19   C46   A    
C80   O39   S    
C23   O7    A    
C20   C30   A    
C45   O9    A    
C8    C69   T    
C18   H1    S    
Cr6   O4    S    
C78   O4    A    
Cr3   O23   S    
Cr4   O19   S    
C37   C40   A    
C26   C52   A    
C67   O11   A    
Cr1   O18   S    
C71   O21   S    
Cr3   O10   S    
C19   H12   S    
Cr4   O48   S    
C72   O22   D    
C15   C78   S    
C30   C57   A    
C16   C84   S    
C2    O15   A    
C1    O5    A    
C6    C64   T    
C4    C13   S    
Cr1   O5    S    
C35   C42   A    
H11   O35   S    
C25   H22   S    
C12   O47   A    
C12   O6    A    
C83   O46   S    
H10   O32   S    
C22   H20   S    
C18   C26   A    
C14   C67   S    
C40   C80   S    
C32   C38   A    
H14   O39   S    
Cr2   O45   S    
C77   O33   D    
H7    O26   S    
H13   O37   S    
C21   C48   A    
C82   O42   D    
C34   O12   A    
C72   O24   S    
C74   O28   S    
C76   O32   S    
C34   O8    A    
C22   C28   A    
H8    O28   S    
C2    C17   S    
C36   C41   A    
C24   H21   S    
Cr4   O15   S    
C71   O20   D    
C11   C59   T    
C78   O13   A    
C41   C49   A    
C4    O17   A    
C10   C66   T    
C24   C50   A    
C52   C58   S    
Cr5   O19   S    
C35   C55   A    
C33   C43   A    
H9    O30   S    
Cr1   O1    S    
C36   C54   A    
C32   C72   S    
C77   O35   S    
Cr3   O7    S    
Cr6   O19   S    
C28   C54   A    
C9    C23   S    
C57   C60   S    
C13   C58   T    
C29   C55   A    
C21   C29   A    
Cr5   O16   S    
Cr6   O50   S    
C39   C79   S    
Cr3   O18   S    
Cr4   O2    S    
C25   C51   A    
C47   C70   S    
Cr4   O11   S    
C36   C75   S    
C18   C44   A    
C67   O3    A    
C1    O45   A    
C8    C12   S    
C41   C81   S    
H5    O21   S    
Cr1   O8    S    
C10   C34   S    
C42   C48   A    
C50   C66   S    
C75   O29   D    
C3    O50   A    
C79   O36   D    
Cr6   O17   S    
C5    C65   T    
Cr3   O47   S    
C74   O27   D    
Cr5   O3    S    
C76   O31   D    
C22   C49   A    
C51   C59   S    
C16   C61   T    
C56   O10   A    
Cr1   O34   S    
C84   O48   A    
C79   O37   S    
C45   O23   A    
Cr5   O13   S    
C32   C51   A    
C33   C73   S    
C80   O38   D    
C33   C57   A    
H15   O41   S    
C1    C7    S    
C4    O2    A    
C6    C56   S    
C2    O49   A    
C21   H19   S    
C27   C53   A    
C39   C44   A    
C38   C77   S    
H16   O43   S    
C73   O25   D    
C81   O41   S    
C31   C52   A    
C9    C68   T    
C37   C53   A    
C30   H4    S    
C38   C46   A    
H6    O24   S    
C53   C63   S    
C73   O26   S    
Cr2   O18   S    
C82   O43   S    
C83   O44   D    
C5    C45   S    
C40   C50   A    
C14   C63   T    
C55   C61   S    
C31   C71   S    
C15   C62   T    
C37   C76   S    
C19   C25   A    
C26   H23   S    
C20   C47   A    
C3    C11   S    
C75   O30   S    
C81   O40   D    
C17   C60   T    
C23   O1    A    
C28   H2    S    
C27   H24   S    
C46   C64   S    
Cr2   O9    S    
C31   C39   A    
Cr6   O14   S    
C54   C62   S    
Cr2   O6    S    
C43   C47   A    
Cr5   O49   S    
C20   H18   S    
