data_mof_unit_17841.cif
_audit_creation_date              2013-03-05T16:41:15-0500
_audit_creation_method            fapswitch 2.2
_symmetry_space_group_name_H-M    P1
_symmetry_Int_Tables_number       1
_space_group_crystal_system       triclinic
_cell_length_a                    10.731154
_cell_length_b                    10.69279
_cell_length_c                    9.882858
_cell_angle_alpha                 89.679323
_cell_angle_beta                  89.870799
_cell_angle_gamma                 90.033811
_cell_volume                      1133.99733801

loop_
_atom_site_label
_atom_site_type_symbol
_atom_site_description
_atom_site_fract_x
_atom_site_fract_y
_atom_site_fract_z
_atom_type_partial_charge
O1    O     O_R   0.500020 0.316790 0.614690 -0.619979
O2    O     O_R   0.500000 0.316760 0.385350 -0.618808
C1    C     C_R   0.501700 0.260130 0.500307 0.918257
O3    O     O_R   0.319080 0.500020 0.614640 -0.613326
O4    O     O_R   0.319070 0.499980 0.385300 -0.617885
C2    C     C_R   0.262757 0.505421 0.500245 0.974111
Zn1   Zn    Zn3+2 0.500010 0.500020 0.653130 0.960314
Zn2   Zn    Zn3+2 0.499990 0.499980 0.346870 0.954284
O5    O     O_R   0.500000 0.683240 0.614650 -0.617401
O6    O     O_R   0.499980 0.683210 0.385310 -0.624552
O7    O     O_R   0.680930 0.500020 0.614700 -0.629934
O8    O     O_R   0.680920 0.499980 0.385360 -0.627613
C3    C     C_R   0.502628 0.739748 0.499753 0.869262
C4    C     C_R   0.737370 0.499336 0.499735 0.921012
C5    C     C_2   0.932481 0.536641 0.391125 -0.154415
C6    C     C_2   0.869292 0.494715 0.498787 -0.303459
H1    H     H_    0.885116 0.571865 0.301596 0.159544
H2    H     H_    0.912781 0.453988 0.587479 0.158981
C7    C     C_2   0.066842 0.531391 0.387996 -0.144023
C8    C     C_2   0.131709 0.523905 0.502607 -0.287668
H3    H     H_    0.112087 0.532491 0.289766 0.160748
H4    H     H_    0.089618 0.534706 0.601672 0.145893
C9    C     C_R   0.482913 0.062502 0.618990 0.008505
C10   C     C_R   0.513911 0.128331 0.501897 -0.049966
C11   C     C_R   0.562074 0.065508 0.389064 -0.191617
H5    H     H_    0.593647 0.115772 0.299866 0.164593
C12   C     C_R   0.562614 0.935980 0.388661 -0.201287
H6    H     H_    0.594146 0.887138 0.299149 0.163617
C13   C     C_R   0.515583 0.871332 0.501384 -0.048430
C14   C     C_R   0.485021 0.934889 0.619084 0.075115
C15   C     C_3   0.370689 0.923192 0.704955 -0.516547
C16   C     C_3   0.366725 0.065118 0.703923 0.145664
H7    H     H_    0.292108 0.876949 0.651609 0.225687
H8    H     H_    0.392119 0.883200 0.806328 0.182990
H9    H     H_    0.381522 0.106363 0.805441 0.095446
C17   C     C_R   0.390824 0.491464 0.071513 0.209286
N1    N     N_R   0.499170 0.499140 0.142800 -0.107079
C18   C     C_R   0.606921 0.518964 0.071446 -0.133053
H10   H     H_    0.693664 0.532553 0.124738 0.147776
C19   C     C_R   0.606944 0.518854 0.927770 -0.124470
H11   H     H_    0.693737 0.532298 0.873941 0.155565
N2    N     N_R   0.499170 0.499180 0.857150 -0.108800
C20   C     C_R   0.390766 0.492293 0.929060 0.188054
C21   C     C_3   0.299346 0.387831 0.923630 -0.438933
C22   C     C_3   0.300209 0.385815 0.077074 -0.500344
H12   H     H_    0.208661 0.417929 0.880172 0.218999
H13   H     H_    0.339987 0.302722 0.878088 0.226045
H14   H     H_    0.209412 0.413585 0.121510 0.201807
H15   H     H_    0.341349 0.299115 0.120710 0.226480
N3    N     N_R   0.258315 0.115595 0.631963 0.228950
O9    O     O_R   0.187618 0.198031 0.690470 -0.416937
O10   O     O_R   0.230174 0.077643 0.510816 -0.390459

loop_
_geom_bond_atom_site_label_1
_geom_bond_atom_site_label_2
_geom_bond_distance
_ccdc_geom_bond_type
O4    Zn2   1.977439 S    
C5    C7    1.443239 S    
C9    C10   1.390728 A    
C15   H7    1.112638 S    
C13   C14   1.389198 A    
C11   C12   1.385063 A    
C2    C8    1.420386 S    
C9    C14   1.364740 A    
N3    O10   1.302412 A    
C15   C16   1.518182 S    
C21   H13   1.106859 S    
C22   H15   1.112290 S    
C14   C15   1.495016 S    
Zn2   O8    1.979341 S    
C9    C16   1.501846 S    
C19   N2    1.368919 A    
N3    O9    1.300546 A    
O8    C4    1.283633 A    
C15   H8    1.111675 S    
C17   C22   1.490822 S    
C6    H2    1.083310 S    
C10   C11   1.402872 A    
Zn1   O7    1.977440 S    
C16   N3    1.466515 S    
C1    C10   1.415465 S    
N1    C18   1.368788 A    
O3    Zn1   1.979341 S    
O3    C2    1.284207 A    
C17   N1    1.363496 A    
C18   C19   1.419938 A    
C21   H12   1.111648 S    
O2    C1    1.284573 A    
C20   C21   1.487490 S    
O4    C2    1.287133 A    
O7    C4    1.286387 A    
C4    C6    1.416579 S    
Zn1   N2    2.016270 S    
C12   C13   1.400734 A    
Zn2   N1    2.016904 S    
C5    C6    1.335644 D    
C16   H9    1.109906 S    
Zn1   O5    1.993610 S    
C18   H10   1.080692 S    
C21   C22   1.516554 S    
Zn2   O6    1.997817 S    
N2    C20   1.363571 A    
C22   H14   1.109172 S    
C3    C13   1.413962 S    
C12   H6    1.083447 S    
C5    H1    1.087021 S    
O5    C3    1.283523 A    
C19   H11   1.080705 S    
C17   C20   1.407825 A    
C7    H3    1.084470 S    
C11   H5    1.083458 S    
O1    Zn1   1.997817 S    
O2    Zn2   1.993612 S    
C7    C8    1.332867 D    
C8    H4    1.084085 S    
O1    C1    1.285631 A    
O6    C3    1.285796 A    
