data_mof_unit_40564.cif
_audit_creation_date              2012-12-10T19:43:26-0500
_audit_creation_method            fapswitch 2.2
_symmetry_space_group_name_H-M    P1
_symmetry_Int_Tables_number       1
_space_group_crystal_system       triclinic
_cell_length_a                    10.945705
_cell_length_b                    10.883327
_cell_length_c                    9.653667
_cell_angle_alpha                 89.581561
_cell_angle_beta                  89.774178
_cell_angle_gamma                 95.53429
_cell_volume                      1144.59617712

loop_
_atom_site_label
_atom_site_type_symbol
_atom_type_description
_atom_site_fract_x
_atom_site_fract_y
_atom_site_fract_z
_atom_type_partial_charge
C1    C     C_R   0.506420 0.262810 0.500897 0.789081
C2    C     C_R   0.220275 0.810303 0.085307 -0.210077
C3    C     C_R   0.938523 0.532914 0.384344 -0.179363
C4    C     C_R   0.870949 0.491324 0.501963 -0.154490
C5    C     C_R   0.934130 0.463365 0.623762 -0.072932
C6    C     C_R   0.061955 0.484161 0.627413 0.343754
C7    C     C_R   0.129394 0.514214 0.504690 -0.154975
C8    C     C_R   0.066290 0.549203 0.386026 -0.030231
C9    C     C_R   0.852380 0.484887 0.862002 -0.039526
C10   C     C_R   0.831334 0.435021 0.994458 -0.147784
C11   C     C_R   0.835853 0.308868 0.017130 -0.010341
C12   C     C_R   0.263187 0.506935 0.500874 0.818766
C13   C     C_R   0.856403 0.231531 0.906107 -0.077664
C14   C     C_R   0.873923 0.280732 0.772604 -0.181936
C15   C     C_R   0.873492 0.408234 0.749895 0.172908
C16   C     C_R   0.572092 0.114570 0.751950 -0.261797
C17   C     C_R   0.550377 0.053460 0.878887 0.399004
C18   C     C_R   0.483985 0.938498 0.883188 -0.175026
C19   C     C_R   0.449898 0.878960 0.760559 -0.217038
C20   C     C_R   0.482879 0.934479 0.631007 0.104061
C21   C     C_R   0.523782 0.061027 0.628377 0.043788
C22   C     C_R   0.511263 0.128049 0.503269 -0.117090
C23   C     C_R   0.489355 0.736063 0.500547 0.846024
C24   C     C_R   0.485688 0.063031 0.380169 -0.096477
C25   C     C_R   0.476804 0.935145 0.379258 -0.121794
C26   C     C_R   0.477563 0.869252 0.504140 -0.122058
C27   C     C_R   0.651920 0.698880 0.129637 0.364503
C28   C     C_R   0.706141 0.793506 0.044362 -0.157214
C29   C     C_R   0.708882 0.780757 0.904366 -0.298945
C30   C     C_R   0.648841 0.678203 0.845636 -0.142179
C31   C     C_R   0.572715 0.590308 0.922072 0.120192
C32   C     C_R   0.573475 0.594157 0.072090 0.081564
C33   C     C_R   0.432439 0.413399 0.077253 -0.003373
C34   C     C_R   0.736913 0.493944 0.500385 0.863513
C35   C     C_R   0.428557 0.413257 0.929844 0.258904
C36   C     C_R   0.172757 0.850257 0.209751 0.431069
C37   C     C_R   0.126592 0.763841 0.308941 -0.176728
C38   C     C_R   0.126083 0.636900 0.283479 0.041786
C39   C     C_R   0.174735 0.597177 0.158825 -0.051794
C40   C     C_R   0.224365 0.684213 0.061412 -0.171299
Cu1   Cu    Cu3+1 0.499990 0.499990 0.640660 0.947545
Cu2   Cu    Cu3+1 0.500010 0.500010 0.359340 0.995578
H1    H     H_    0.252806 0.876992 0.006902 0.166216
H2    H     H_    0.823736 0.271080 0.120836 0.172880
H3    H     H_    0.860518 0.133698 0.923843 0.160745
H4    H     H_    0.895808 0.220878 0.688754 0.140739
H5    H     H_    0.472684 0.111125 0.283965 0.226960
H6    H     H_    0.622071 0.204976 0.752744 0.197970
H7    H     H_    0.462915 0.893186 0.981668 0.163030
H8    H     H_    0.395461 0.791007 0.769294 0.185149
H9    H     H_    0.467075 0.887993 0.280871 0.179620
H10   H     H_    0.380279 0.342809 0.137755 0.169147
H11   H     H_    0.758833 0.874407 0.086224 0.222964
H12   H     H_    0.761561 0.849309 0.840695 0.184363
H13   H     H_    0.668173 0.671115 0.738794 0.227200
H14   H     H_    0.088439 0.795322 0.404656 0.177321
H15   H     H_    0.174479 0.499682 0.137766 0.155236
H16   H     H_    0.264947 0.654397 0.966681 0.198098
H17   H     H_    0.892257 0.561709 0.292957 0.202508
H18   H     H_    0.862916 0.584004 0.848516 0.145356
H19   H     H_    0.816604 0.494958 0.080255 0.142269
N1    N     N_R   0.501190 0.501210 0.147910 -0.213034
N2    N     N_R   0.501230 0.501290 0.852040 -0.218313
O1    O     O_R   0.499990 0.319640 0.618810 -0.619486
O2    O     O_R   0.500000 0.319660 0.381240 -0.569099
O3    O     O_R   0.319640 0.500000 0.618780 -0.550983
O4    O     O_R   0.319650 0.500020 0.381210 -0.591393
O5    O     O_R   0.500000 0.680340 0.618760 -0.615828
O6    O     O_R   0.500010 0.680360 0.381190 -0.536643
O7    O     O_R   0.680350 0.499980 0.618790 -0.617701
O8    O     O_R   0.680360 0.500000 0.381220 -0.530734
Cl1   Cl    Cl    0.591701 0.126262 0.034674 -0.746625
Cl2   Cl    Cl    0.169239 0.008424 0.240923 -0.681653
Cl3   Cl    Cl    0.723723 0.726841 0.290512 -0.658201
C41   C     C_3   0.350190 0.307320 0.861778 -0.326860
C42   C     C_3   0.240180 0.248662 0.946198 -0.799908
H20   H     H_    0.189035 0.319726 0.995863 0.280850
H21   H     H_    0.176417 0.192447 0.877069 0.262277
H22   H     H_    0.271424 0.185715 0.026824 0.280068
H23   H     H_    0.314666 0.334318 0.761700 0.278971
H24   H     H_    0.408229 0.233564 0.841383 0.221448
Cl4   Cl    Cl    0.131079 0.489272 0.793322 -0.714835

loop_
_geom_bond_atom_site_label_1
_geom_bond_atom_site_label_2
_ccdc_geom_bond_type
C16   C21   A    
C6    Cl4   S    
Cu1   Cu2   S    
C23   O6    A    
C19   C20   A    
C42   H22   S    
C16   H6    S    
C7    C8    A    
C14   H4    S    
C33   H10   S    
C35   C41   S    
C37   C38   A    
C28   C29   A    
C42   H21   S    
C33   N1    A    
C5    C6    A    
C29   H12   S    
C39   H15   S    
C18   C19   A    
C23   C26   S    
C37   H14   S    
C16   C17   A    
Cu2   O2    S    
C1    O2    A    
C27   Cl3   S    
C41   H23   S    
Cu2   N1    S    
C1    C22   S    
C21   C22   A    
C8    C38   S    
Cu1   O5    S    
C7    C12   S    
C12   O4    A    
C4    C34   S    
C40   H16   S    
C31   N2    A    
C38   C39   A    
C42   H20   S    
C3    C8    A    
C36   Cl2   S    
C39   C40   A    
C41   H24   S    
C25   C26   A    
C12   O3    A    
Cu2   O6    S    
C23   O5    A    
C41   C42   S    
C25   H9    S    
C29   C30   A    
C31   C32   A    
C2    H1    S    
C17   C18   A    
C11   H2    S    
C24   C25   A    
C6    C7    A    
Cu2   O4    S    
C22   C24   A    
C10   H19   S    
Cu1   N2    S    
C3    C4    A    
C1    O1    A    
C9    C10   A    
C2    C36   A    
C34   O7    A    
C36   C37   A    
C27   C32   A    
C24   H5    S    
C4    C5    A    
C28   H11   S    
Cu1   O3    S    
C30   H13   S    
C9    H18   S    
C9    C15   A    
C32   N1    A    
C13   H3    S    
C11   C13   A    
C19   H8    S    
C30   C31   A    
C20   C26   A    
Cu2   O8    S    
C33   C35   A    
C5    C15   S    
C10   C11   A    
C2    C40   A    
C20   C21   A    
C17   Cl1   S    
C27   C28   A    
C14   C15   A    
C35   N2    A    
Cu1   O1    S    
C13   C14   A    
C34   O8    A    
C18   H7    S    
Cu1   O7    S    
C3    H17   S    
