data_mof_unit_47622.cif
_audit_creation_date              2012-10-26T20:20:46-0400
_audit_creation_method            fapswitch 2.2
_symmetry_space_group_name_H-M    P1
_symmetry_Int_Tables_number       1
_space_group_crystal_system       triclinic
_cell_length_a                    8.735354
_cell_length_b                    10.834517
_cell_length_c                    9.523981
_cell_angle_alpha                 90.010525
_cell_angle_beta                  97.936612
_cell_angle_gamma                 90.151449
_cell_volume                      892.744188502

loop_
_atom_site_label
_atom_site_type_symbol
_atom_type_description
_atom_site_fract_x
_atom_site_fract_y
_atom_site_fract_z
_atom_type_partial_charge
C1    C     C_R   0.499888 0.262083 0.499942 0.550918
C2    C     C_R   0.499216 0.063884 0.627480 -0.139529
C3    C     C_R   0.500134 0.871776 0.500043 0.020276
C4    C     C_R   0.499866 0.128223 0.499956 0.020276
C5    C     C_R   0.400364 0.426162 0.061728 0.010893
C6    C     C_R   0.599636 0.573837 0.938272 0.010893
C7    C     C_R   0.400392 0.426201 0.912942 0.009558
C8    C     C_R   0.599608 0.573799 0.087058 0.009558
C9    C     C_R   0.500112 0.737917 0.500058 0.550918
C10   C     C_R   0.203745 0.499969 0.463722 0.552021
C11   C     C_R   0.796255 0.500031 0.536278 0.552020
C12   C     C_2   0.037916 0.500045 0.443746 -0.154642
C13   C     C_2   0.962084 0.499955 0.556254 -0.154643
C14   C     C_R   0.500608 0.063815 0.372471 -0.139476
C15   C     C_R   0.499392 0.936185 0.627529 -0.139476
C16   C     C_R   0.500784 0.936116 0.372520 -0.139529
Cu1   Cu    Cu3+1 0.500000 0.500020 0.640660 0.937443
Cu2   Cu    Cu3+1 0.500000 0.499980 0.359340 0.937443
H1    H     H_    0.977982 0.500217 0.335808 0.125576
H2    H     H_    0.498904 0.888193 0.727239 0.128107
H3    H     H_    0.022018 0.499783 0.664192 0.125576
H4    H     H_    0.501434 0.888070 0.272846 0.128011
H5    H     H_    0.498566 0.111930 0.727154 0.128011
H6    H     H_    0.320699 0.366852 0.107638 0.108605
H7    H     H_    0.679301 0.633148 0.892362 0.108605
H8    H     H_    0.320711 0.366935 0.846777 0.107256
H9    H     H_    0.679289 0.633065 0.153223 0.107256
H10   H     H_    0.501096 0.111807 0.272761 0.128107
N1    N     N_R   0.500040 0.500030 0.852080 -0.225610
N2    N     N_R   0.499960 0.499970 0.147920 -0.225610
O1    O     O_R   0.499990 0.319660 0.618740 -0.508445
O2    O     O_R   0.500010 0.680340 0.381260 -0.508445
O3    O     O_R   0.499990 0.319630 0.381170 -0.508474
O4    O     O_R   0.500010 0.680370 0.618830 -0.508474
O5    O     O_R   0.274840 0.500010 0.591370 -0.501744
O6    O     O_R   0.725160 0.499990 0.408630 -0.501744
O7    O     O_R   0.274830 0.499980 0.353800 -0.500742
O8    O     O_R   0.725170 0.500020 0.646200 -0.500741

loop_
_geom_bond_atom_site_label_1
_geom_bond_atom_site_label_2
_ccdc_geom_bond_type
C11   O8    A    
C2    C4    A    
C10   O5    A    
Cu2   N2    S    
Cu1   N1    S    
C1    C4    S    
C8    N2    A    
C5    H6    S    
Cu1   Cu2   S    
C13   H3    S    
C2    C15   A    
C11   C13   S    
C9    O4    A    
C7    H8    S    
C10   C12   S    
C10   O7    A    
C3    C9    S    
C12   H1    S    
C11   O6    A    
Cu2   O7    S    
Cu1   O8    S    
C4    C14   A    
C15   H2    S    
Cu1   O1    S    
Cu2   O3    S    
C14   C16   A    
C6    H7    S    
Cu2   O2    S    
Cu1   O4    S    
C1    O3    A    
C7    N1    A    
C1    O1    A    
C6    N1    A    
C3    C15   A    
C12   C13   D    
C5    N2    A    
C2    H5    S    
C5    C7    A    
C8    H9    S    
C6    C8    A    
Cu1   O5    S    
C9    O2    A    
C14   H10   S    
Cu2   O6    S    
C3    C16   A    
C16   H4    S    
