data_mof_unit_37185.cif
_audit_creation_date              2012-12-10T19:16:28-0500
_audit_creation_method            fapswitch 2.2
_symmetry_space_group_name_H-M    P1
_symmetry_Int_Tables_number       1
_space_group_crystal_system       triclinic
_cell_length_a                    10.639288
_cell_length_b                    9.786156
_cell_length_c                    27.715792
_cell_angle_alpha                 89.84961
_cell_angle_beta                  88.494391
_cell_angle_gamma                 89.363863
_cell_volume                      2884.52348467

loop_
_atom_site_label
_atom_site_type_symbol
_atom_type_description
_atom_site_fract_x
_atom_site_fract_y
_atom_site_fract_z
_atom_type_partial_charge
C1    C     C_R   0.257813 0.500328 0.498782 0.834388
C2    C     C_R   0.387689 0.471016 0.975914 -0.047707
C3    C     C_R   0.615472 0.417989 0.974546 0.065521
C4    C     C_R   0.500278 0.500084 0.406057 0.856290
C5    C     C_R   0.502439 0.445620 0.949967 0.046854
C6    C     C_R   0.272980 0.471328 0.950193 0.199342
C7    C     C_R   0.277649 0.471673 0.899725 -0.143509
C8    C     C_R   0.392299 0.465892 0.874056 -0.081377
C9    C     C_R   0.504642 0.449232 0.899020 -0.056101
C10   C     C_R   0.619558 0.437264 0.872960 -0.006219
C11   C     C_R   0.620664 0.450166 0.822732 0.504756
C12   C     C_R   0.510909 0.620943 0.277146 -0.097245
C13   C     C_R   0.396898 0.471105 0.823533 0.518749
C14   C     C_R   0.462226 0.590324 0.724774 -0.085147
C15   C     C_R   0.463808 0.598775 0.674784 -0.278035
C16   C     C_R   0.742216 0.499354 0.498418 0.867420
C17   C     C_R   0.580534 0.383567 0.669716 -0.022328
C18   C     C_R   0.571069 0.372299 0.719830 -0.194172
C19   C     C_R   0.513341 0.475673 0.747444 0.303934
C20   C     C_R   0.393674 0.496802 0.026131 0.041407
C21   C     C_R   0.503571 0.459218 0.051002 0.085029
C22   C     C_R   0.612397 0.411587 0.025505 0.045586
C23   C     C_R   0.505047 0.496358 0.252746 0.319530
C24   C     C_R   0.297347 0.567857 0.051813 -0.241128
C25   C     C_R   0.714355 0.370165 0.102026 -0.135294
C26   C     C_R   0.728629 0.401688 0.947288 -0.226025
C27   C     C_R   0.730788 0.413681 0.897441 -0.138567
C28   C     C_R   0.506395 0.499222 0.593836 0.919084
C29   C     C_R   0.715653 0.363381 0.051992 -0.230115
C30   C     C_3   0.067027 0.550295 0.546860 -0.426142
C31   C     C_3   0.073163 0.353317 0.487950 -0.395357
C32   C     C_3   0.923292 0.547169 0.547099 -0.378911
C33   C     C_3   0.930384 0.352506 0.487331 -0.398480
C34   C     C_R   0.505548 0.472360 0.101747 -0.056495
C35   C     C_3   0.073986 0.595387 0.456987 -0.395915
C36   C     C_3   0.121037 0.500090 0.497593 0.184100
C37   C     C_3   0.878466 0.498522 0.497443 0.175643
C38   C     C_3   0.929399 0.595775 0.457250 -0.408716
C39   C     C_3   0.371886 0.083565 0.510942 0.173857
C40   C     C_3   0.369437 0.923572 0.505278 0.195990
C41   C     C_3   0.537957 0.080900 0.450647 -0.343555
C42   C     C_3   0.547954 0.918327 0.451791 -0.323558
C43   C     C_3   0.593108 0.079769 0.532332 -0.218661
C44   C     C_3   0.586578 0.919220 0.534931 -0.266414
C45   C     C_R   0.402632 0.532395 0.127014 -0.016344
C46   C     C_R   0.405418 0.541943 0.177305 0.503359
C47   C     C_R   0.609607 0.438037 0.177466 0.502986
C48   C     C_R   0.496672 0.373619 0.278449 -0.105789
C49   C     C_R   0.494833 0.374977 0.328509 -0.226290
C50   C     C_R   0.508842 0.622692 0.327333 -0.229359
C51   C     C_2   0.661086 0.281123 0.644204 0.362687
C52   C     C_3   0.357867 0.122992 0.604051 -0.721441
C53   C     C_3   0.296693 0.816994 0.587468 -0.687337
C54   C     C_3   0.054820 0.548352 0.964572 -0.813500
C55   C     C_R   0.300594 0.583248 0.101534 -0.140159
C56   C     C_R   0.610885 0.426714 0.127182 -0.021369
C57   C     C_R   0.501060 0.499532 0.353331 -0.038427
C58   C     C_R   0.519647 0.494903 0.646526 -0.074706
H1    H     H_    0.513959 0.719979 0.345654 0.149725
H2    H     H_    0.102830 0.485326 0.576665 0.172187
H3    H     H_    0.103467 0.283244 0.516904 0.174155
H4    H     H_    0.889174 0.477348 0.576142 0.223172
H5    H     H_    0.894818 0.279336 0.515238 0.199198
H6    H     H_    0.517548 0.715970 0.257179 0.141414
H7    H     H_    0.884929 0.651062 0.555450 0.165965
H8    H     H_    0.899271 0.316110 0.451569 0.163975
H9    H     H_    0.107345 0.701550 0.462316 0.171471
H10   H     H_    0.111704 0.559752 0.421291 0.165638
H11   H     H_    0.894083 0.701969 0.463456 0.173837
H12   H     H_    0.491556 0.277263 0.259503 0.139238
H13   H     H_    0.896351 0.562611 0.421391 0.164904
H14   H     H_    0.310212 0.123518 0.482003 0.055952
H15   H     H_    0.324031 0.908590 0.469731 0.041034
H16   H     H_    0.469228 0.112808 0.423116 0.150076
H17   H     H_    0.494554 0.876118 0.421402 0.160039
H18   H     H_    0.689602 0.108850 0.519925 0.154377
H19   H     H_    0.682891 0.876869 0.528086 0.152292
H20   H     H_    0.584521 0.126907 0.568164 0.192720
H21   H     H_    0.564693 0.885172 0.571880 0.143504
H22   H     H_    0.629682 0.124205 0.438395 0.173201
H23   H     H_    0.795564 0.332085 0.120875 0.190720
H24   H     H_    0.647272 0.885297 0.444855 0.164542
H25   H     H_    0.223030 0.635853 0.119852 0.192206
H26   H     H_    0.418788 0.685531 0.658613 0.152830
H27   H     H_    0.419384 0.672111 0.745943 0.152352
H28   H     H_    0.190455 0.472189 0.880448 0.201665
H29   H     H_    0.220424 0.616658 0.033775 0.179110
H30   H     H_    0.488524 0.278595 0.347655 0.151420
H31   H     H_    0.672005 0.179335 0.659305 0.053470
H32   H     H_    0.215024 0.129724 0.555172 0.191162
H33   H     H_    0.393399 0.220847 0.617147 0.251634
H34   H     H_    0.818203 0.385109 0.963634 0.151238
H35   H     H_    0.430443 0.043621 0.607464 0.208085
H36   H     H_    0.279214 0.097020 0.629454 0.211777
H37   H     H_    0.187088 0.870076 0.529333 0.177009
H38   H     H_    0.230267 0.876443 0.610894 0.206104
H39   H     H_    0.392191 0.831450 0.599122 0.231796
H40   H     H_    0.273988 0.707748 0.592744 0.227749
H41   H     H_    0.152538 0.404230 0.007329 0.236906
H42   H     H_    0.978217 0.537902 0.992280 0.237753
H43   H     H_    0.014842 0.530402 0.928595 0.253130
H44   H     H_    0.091251 0.654179 0.966155 0.247978
H45   H     H_    0.820306 0.403618 0.878147 0.190579
H46   H     H_    0.612919 0.285150 0.737837 0.148151
H47   H     H_    0.797824 0.316922 0.035024 0.146919
H48   H     H_    0.096010 0.656773 0.553433 0.183178
H49   H     H_    0.112428 0.313941 0.452960 0.166093
N1    N     N_R   0.507329 0.493628 0.201317 -0.356951
N2    N     N_R   0.510192 0.465814 0.799011 -0.349077
N3    N     N_3   0.499750 0.138610 0.498940 -0.057260
N4    N     N_3   0.499750 0.861390 0.498940 -0.045493
N5    N     N_2   0.311488 0.137584 0.555424 -0.256726
N6    N     N_2   0.280110 0.853412 0.537551 -0.270838
N7    N     N_2   0.153791 0.449384 0.973687 -0.315401
O1    O     O_R   0.314910 0.616040 0.499990 -0.599438
O2    O     O_2   0.289092 0.480755 0.799064 -0.563121
O3    O     O_2   0.709653 0.394263 0.202440 -0.559760
O4    O     O_2   0.731413 0.448732 0.797794 -0.559272
O5    O     O_2   0.721861 0.311095 0.607851 -0.609159
O6    O     O_R   0.314910 0.383960 0.499990 -0.622308
O7    O     O_R   0.500140 0.616020 0.428740 -0.632169
O8    O     O_R   0.500140 0.383980 0.428740 -0.635372
O9    O     O_R   0.685320 0.616040 0.499970 -0.641868
O10   O     O_R   0.685320 0.383960 0.499970 -0.606708
O11   O     O_R   0.500090 0.616050 0.571230 -0.624200
O12   O     O_R   0.500090 0.383950 0.571230 -0.582447
O13   O     O_2   0.306507 0.596929 0.202144 -0.560681
Zn1   Zn    Zn3+2 0.500150 0.654960 0.499980 0.929159
Zn2   Zn    Zn3+2 0.500150 0.345040 0.499980 0.948847

loop_
_geom_bond_atom_site_label_1
_geom_bond_atom_site_label_2
_ccdc_geom_bond_type
C10   C27   A    
C34   C56   A    
C8    C13   A    
C22   C29   A    
C11   N2    A    
C41   C42   S    
C31   H3    S    
C54   H43   S    
C35   C36   S    
C42   H24   S    
C25   C56   A    
H32   N5    S    
C43   C44   S    
C29   H47   S    
C17   C51   S    
C41   H22   S    
C7    C8    A    
C45   C46   A    
C24   C55   A    
C12   C23   A    
C26   C27   A    
C50   H1    S    
C44   H19   S    
C16   O9    A    
C12   H6    S    
C7    H28   S    
C52   N5    S    
C26   H34   S    
C49   C57   A    
C40   H15   S    
N3    Zn2   S    
C18   C19   A    
C6    N7    S    
C13   N2    A    
C41   H16   S    
C39   N3    S    
C20   C24   A    
C28   O12   A    
C8    C9    A    
C46   N1    A    
C4    C57   S    
O10   Zn2   S    
O11   Zn1   S    
C51   O5    D    
C39   H14   S    
C31   C33   S    
C52   H36   S    
C43   N3    S    
C9    C10   A    
O8    Zn2   S    
C16   C37   S    
C38   H11   S    
C44   H21   S    
C21   C22   A    
C30   H48   S    
C53   H38   S    
C25   H23   S    
C49   H30   S    
C54   H42   S    
C2    C6    A    
H41   N7    S    
C53   N6    S    
C33   H8    S    
C40   N4    S    
C19   N2    S    
C25   C29   A    
C2    C20   A    
O6    Zn2   S    
C46   O13   S    
C35   C38   S    
O7    Zn1   S    
C39   C40   S    
C21   C34   A    
O12   Zn2   S    
C53   H39   S    
C33   C37   S    
O1    Zn1   S    
C30   H2    S    
C43   H20   S    
C1    O6    A    
C42   N4    S    
C5    C9    A    
C37   C38   S    
C40   N6    S    
C35   H9    S    
C33   H5    S    
C17   C18   A    
C42   H17   S    
C4    O8    A    
C52   H35   S    
C34   C45   A    
C18   H46   S    
C32   C37   S    
C6    C7    A    
C48   C49   A    
C41   N3    S    
C15   C58   A    
C2    C5    A    
C55   H25   S    
C28   O11   A    
C43   H18   S    
C38   H13   S    
C39   N5    S    
C23   C48   A    
C31   C36   S    
C50   C57   A    
C31   H49   S    
C14   C19   A    
C54   H44   S    
C3    C26   A    
C14   H27   S    
C48   H12   S    
C3    C5    A    
C12   C50   A    
C15   H26   S    
C28   C58   S    
C53   H40   S    
C17   C58   A    
C30   C36   S    
C16   O10   A    
C32   H4    S    
C51   H31   S    
C30   C32   S    
O9    Zn1   S    
C35   H10   S    
H37   N6    S    
C23   N1    S    
C54   N7    S    
C27   H45   S    
C4    O7    A    
C24   H29   S    
C13   O2    S    
C10   C11   A    
C44   N4    S    
C47   O3    S    
C20   C21   A    
C45   C55   A    
C47   N1    A    
N4    Zn1   S    
C14   C15   A    
C32   H7    S    
C3    C22   A    
C1    O1    A    
C52   H33   S    
C11   O4    S    
C1    C36   S    
C47   C56   A    
