data_mof_unit_10680.cif
_audit_creation_date              2012-12-10T18:25:06-0500
_audit_creation_method            fapswitch 2.2
_symmetry_space_group_name_H-M    P1
_symmetry_Int_Tables_number       1
_space_group_crystal_system       triclinic
_cell_length_a                    19.355054
_cell_length_b                    15.864164
_cell_length_c                    14.588023
_cell_angle_alpha                 89.159862
_cell_angle_beta                  90.602584
_cell_angle_gamma                 89.476642
_cell_volume                      4478.35551687

loop_
_atom_site_label
_atom_site_type_symbol
_atom_type_description
_atom_site_fract_x
_atom_site_fract_y
_atom_site_fract_z
_atom_type_partial_charge
C1    C     C_R   0.500535 0.339458 0.500555 0.812178
C2    C     C_3   0.485201 0.975568 0.412580 -0.019587
C3    C     C_3   0.501258 0.083080 0.500795 -0.048649
C4    C     C_3   0.502846 0.917180 0.496045 -0.053967
C5    C     C_1   0.501359 0.174623 0.501689 -0.010356
C6    C     C_1   0.502220 0.825539 0.496462 -0.005974
C7    C     C_3   0.492355 0.578350 0.966515 0.122041
C8    C     C_3   0.508477 0.421300 0.033097 0.125465
C9    C     C_3   0.439562 0.532338 0.028629 -0.236964
C10   C     C_3   0.561208 0.467285 0.970946 -0.234703
C11   C     C_3   0.552569 0.547520 0.029500 0.124576
C12   C     C_R   0.500394 0.660585 0.499381 0.809675
C13   C     C_3   0.448302 0.452108 0.970034 0.119261
C14   C     C_3   0.500333 0.501255 0.091415 -0.031335
C15   C     C_3   0.500537 0.498453 0.908337 -0.031580
C16   C     C_R   0.367108 0.500620 0.499560 0.849914
C17   C     C_R   0.633161 0.500074 0.500655 0.838109
C18   C     C_1   0.500051 0.500891 0.194107 0.101303
C19   C     C_1   0.500400 0.498979 0.805819 0.094094
C20   C     C_R   0.258237 0.443070 0.562425 0.381253
C21   C     C_R   0.743610 0.457558 0.427714 0.384298
C22   C     C_R   0.185596 0.440988 0.566963 -0.049081
C23   C     C_3   0.566162 0.971559 0.521914 -0.035563
C24   C     C_R   0.816116 0.458413 0.421616 -0.050064
C25   C     C_R   0.146169 0.487819 0.501545 -0.153414
C26   C     C_R   0.855145 0.490140 0.495538 -0.151691
C27   C     C_R   0.178760 0.538756 0.435376 0.407202
C28   C     C_R   0.822202 0.523662 0.572646 0.403456
C29   C     C_R   0.251026 0.547866 0.436846 -0.069825
C30   C     C_R   0.749590 0.531384 0.574870 -0.067257
C31   C     C_R   0.291033 0.497374 0.498921 -0.244536
C32   C     C_R   0.709787 0.496919 0.501778 -0.257344
C33   C     C_R   0.930932 0.489270 0.494515 0.458469
C34   C     C_3   0.437929 0.028771 0.474875 -0.035473
C35   C     C_R   0.070402 0.487489 0.502260 0.461011
C36   C     C_3   0.315401 0.318979 0.589565 0.074722
C37   C     C_3   0.354818 0.267459 0.662081 -0.792549
C38   C     C_3   0.690494 0.337812 0.381815 0.074454
C39   C     C_3   0.646310 0.299430 0.306652 -0.766412
C40   C     C_3   0.388391 0.402005 0.929561 -0.391636
C41   C     C_3   0.341272 0.366025 0.003825 -0.355901
C42   C     C_3   0.279953 0.320610 0.961113 -0.846864
C43   C     C_3   0.613548 0.597304 0.067500 -0.398935
C44   C     C_3   0.659163 0.632423 0.990905 -0.358216
C45   C     C_3   0.548128 0.029692 0.438900 0.458487
C46   C     C_3   0.722638 0.675862 0.030296 -0.846628
C47   C     C_3   0.151196 0.392345 0.644590 -0.351876
C48   C     C_3   0.124839 0.452253 0.718367 -0.319175
C49   C     C_3   0.089364 0.403888 0.795539 -0.881243
C50   C     C_3   0.850737 0.428843 0.334251 -0.350627
C51   C     C_3   0.875934 0.504045 0.276697 -0.323377
C52   C     C_3   0.911656 0.474838 0.189840 -0.878253
C53   C     C_3   0.126828 0.535779 0.295178 0.049668
C54   C     C_3   0.082265 0.585798 0.226936 -0.775712
C55   C     C_3   0.876409 0.487028 0.706646 0.048409
C56   C     C_3   0.455962 0.970684 0.557924 0.454411
C57   C     C_3   0.917910 0.520429 0.787147 -0.778246
C58   C     C_3   0.283440 0.616115 0.376958 -0.358299
C59   C     C_3   0.307616 0.690183 0.435331 -0.298559
C60   C     C_3   0.339870 0.759129 0.376364 -0.884274
C61   C     C_3   0.716738 0.575703 0.656212 -0.333437
C62   C     C_3   0.683231 0.660729 0.628809 -0.303542
C63   C     C_3   0.641859 0.696583 0.708129 -0.857583
C64   C     C_3   0.639035 0.012228 0.336636 0.066544
C65   C     C_3   0.657409 0.042955 0.240702 -0.830792
C66   C     C_3   0.365537 0.988262 0.660847 0.071241
C67   C     C_1   0.501078 0.250005 0.501643 -0.196009
C68   C     C_3   0.346764 0.956501 0.756224 -0.812347
C69   C     C_3   0.636738 0.931798 0.545691 -0.387129
C70   C     C_3   0.690533 0.997407 0.573717 -0.350521
C71   C     C_3   0.763335 0.959756 0.573142 -0.857682
C72   C     C_3   0.367459 0.068862 0.450945 -0.394150
C73   C     C_3   0.313486 0.003442 0.423071 -0.345004
C74   C     C_3   0.240993 0.041993 0.421009 -0.863864
C75   C     C_3   0.468702 0.941947 0.316830 -0.371485
C76   C     C_3   0.455884 0.013079 0.246119 -0.319540
C77   C     C_3   0.451528 0.978402 0.149325 -0.904069
C78   C     C_1   0.501442 0.750108 0.497768 -0.172936
C79   C     C_3   0.536018 0.059158 0.679414 -0.367586
C80   C     C_3   0.548486 0.988445 0.750775 -0.321450
C81   C     C_3   0.552798 0.023708 0.847316 -0.902207
C82   C     C_3   0.479474 0.664645 0.920888 -0.401981
C83   C     C_3   0.471237 0.735233 0.990388 -0.350079
C84   C     C_3   0.453616 0.818539 0.941533 -0.856214
C85   C     C_3   0.521546 0.335023 0.078569 -0.407496
C86   C     C_3   0.530682 0.264676 0.008980 -0.348413
C87   C     C_3   0.550270 0.181922 0.057682 -0.862173
C88   C     C_3   0.518915 0.024748 0.584199 -0.020780
Cu1   Cu    Cu3+1 0.500010 0.500000 0.590220 0.966378
Cu2   Cu    Cu3+1 0.499990 0.500000 0.409780 0.962710
H1    H     H_    0.389910 0.559190 0.052692 0.130144
H2    H     H_    0.675527 0.297551 0.241584 0.222740
H3    H     H_    0.597453 0.954633 0.736586 0.212651
H4    H     H_    0.582435 0.099470 0.674716 0.186312
H5    H     H_    0.492900 0.100490 0.701332 0.191095
H6    H     H_    0.494685 0.835195 0.892028 0.259355
H7    H     H_    0.403492 0.813793 0.904269 0.259839
H8    H     H_    0.449402 0.869552 0.992305 0.247058
H9    H     H_    0.429301 0.719592 0.039072 0.217823
H10   H     H_    0.520026 0.742917 0.029807 0.219622
H11   H     H_    0.522717 0.679107 0.873994 0.189280
H12   H     H_    0.431521 0.660635 0.878615 0.205228
H13   H     H_    0.631748 0.234305 0.326791 0.240320
H14   H     H_    0.600603 0.188105 0.094161 0.258318
H15   H     H_    0.510000 0.164275 0.107915 0.259515
H16   H     H_    0.554948 0.130934 0.006924 0.248462
H17   H     H_    0.481785 0.255645 0.970149 0.219481
H18   H     H_    0.571988 0.281448 0.959789 0.217476
H19   H     H_    0.569267 0.339463 0.121176 0.204010
H20   H     H_    0.478106 0.320054 0.124988 0.188431
H21   H     H_    0.598468 0.337548 0.295687 0.265656
H22   H     H_    0.248678 0.365029 0.917734 0.260319
H23   H     H_    0.298264 0.267604 0.918455 0.251204
H24   H     H_    0.246651 0.294913 0.016170 0.237495
H25   H     H_    0.370581 0.320580 0.048124 0.219288
H26   H     H_    0.321566 0.417780 0.047242 0.215109
H27   H     H_    0.357808 0.444953 0.883555 0.213431
H28   H     H_    0.409437 0.350305 0.887292 0.189983
H29   H     H_    0.610802 0.440352 0.946777 0.129034
H30   H     H_    0.706755 0.729036 0.074337 0.252734
H31   H     H_    0.754524 0.630316 0.071441 0.256678
H32   H     H_    0.754479 0.701040 0.973425 0.240534
H33   H     H_    0.676540 0.580538 0.945986 0.216772
H34   H     H_    0.629498 0.678969 0.948468 0.221234
H35   H     H_    0.593792 0.649402 0.110220 0.186844
H36   H     H_    0.644825 0.554230 0.112527 0.211772
H37   H     H_    0.043567 0.370246 0.768436 0.259084
H38   H     H_    0.125752 0.357579 0.828048 0.255063
H39   H     H_    0.071945 0.448675 0.848511 0.244571
H40   H     H_    0.349111 0.326964 0.528781 0.126836
H41   H     H_    0.169087 0.487539 0.747578 0.229870
H42   H     H_    0.087403 0.498579 0.688228 0.226594
H43   H     H_    0.108470 0.353472 0.617664 0.203571
H44   H     H_    0.187603 0.346672 0.677925 0.224082
H45   H     H_    0.957863 0.435688 0.207796 0.258892
H46   H     H_    0.875600 0.437572 0.147126 0.255655
H47   H     H_    0.928486 0.530570 0.149218 0.244453
H48   H     H_    0.831086 0.544995 0.257051 0.227299
H49   H     H_    0.912910 0.542249 0.316858 0.226423
H50   H     H_    0.894085 0.384929 0.350802 0.204275
H51   H     H_    0.268610 0.283090 0.569099 0.120851
H52   H     H_    0.814782 0.392018 0.291067 0.226009
H53   H     H_    0.098960 0.476819 0.313383 0.150550
H54   H     H_    0.176379 0.519124 0.261371 0.127526
H55   H     H_    0.109183 0.644364 0.205802 0.243547
H56   H     H_    0.072152 0.547363 0.165298 0.195192
H57   H     H_    0.032187 0.602751 0.258605 0.259695
H58   H     H_    0.907498 0.436574 0.673879 0.154165
H59   H     H_    0.827852 0.459258 0.733605 0.123499
H60   H     H_    0.887803 0.570042 0.822429 0.243181
H61   H     H_    0.929716 0.468330 0.836682 0.195592
H62   H     H_    0.321122 0.254883 0.721816 0.233505
H63   H     H_    0.967189 0.547540 0.762546 0.259889
H64   H     H_    0.385324 0.733948 0.339407 0.260597
H65   H     H_    0.301521 0.784967 0.325963 0.251964
H66   H     H_    0.357195 0.810864 0.421198 0.249385
H67   H     H_    0.262718 0.717324 0.472008 0.231288
H68   H     H_    0.346329 0.668617 0.487388 0.208400
H69   H     H_    0.326428 0.590151 0.336242 0.206566
H70   H     H_    0.246129 0.641438 0.325018 0.228310
H71   H     H_    0.617000 0.757054 0.686629 0.236150
H72   H     H_    0.676319 0.708079 0.767940 0.243351
H73   H     H_    0.371802 0.206529 0.633120 0.178312
H74   H     H_    0.600693 0.652057 0.728810 0.265687
H75   H     H_    0.724239 0.706072 0.609483 0.216032
H76   H     H_    0.648214 0.654413 0.568757 0.210629
H77   H     H_    0.679659 0.533249 0.690706 0.203053
H78   H     H_    0.755255 0.589073 0.710789 0.219852
H79   H     H_    0.617983 0.947525 0.331361 0.127749
H80   H     H_    0.687622 0.008739 0.377408 0.164779
H81   H     H_    0.679444 0.107253 0.243457 0.248477
H82   H     H_    0.696307 0.999751 0.210808 0.205008
H83   H     H_    0.610914 0.044161 0.195641 0.251794
H84   H     H_    0.401075 0.302346 0.685528 0.266809
H85   H     H_    0.317033 0.993154 0.620038 0.163230
H86   H     H_    0.387313 0.052436 0.667290 0.123246
H87   H     H_    0.393005 0.955360 0.801758 0.247031
H88   H     H_    0.307399 0.999048 0.786169 0.200462
H89   H     H_    0.325268 0.891952 0.752452 0.255705
H90   H     H_    0.766861 0.904412 0.620587 0.261221
H91   H     H_    0.777010 0.939860 0.502879 0.248749
H92   H     H_    0.801003 0.007724 0.595865 0.244212
H93   H     H_    0.688353 0.053178 0.526900 0.232106
H94   H     H_    0.680060 0.019631 0.643877 0.217956
H95   H     H_    0.661187 0.334049 0.447051 0.127241
H96   H     H_    0.630486 0.885392 0.602445 0.193374
H97   H     H_    0.654810 0.896209 0.485386 0.182443
H98   H     H_    0.226674 0.063896 0.490318 0.247187
H99   H     H_    0.238450 0.096107 0.371846 0.253399
H100  H     H_    0.203208 0.993875 0.399005 0.250669
H101  H     H_    0.324769 0.979444 0.353859 0.220323
H102  H     H_    0.314421 0.948859 0.471466 0.235928
H103  H     H_    0.349338 0.104243 0.511298 0.179628
H104  H     H_    0.373845 0.115536 0.394300 0.194235
H105  H     H_    0.501498 0.948610 0.130610 0.258104
H106  H     H_    0.738918 0.299736 0.389433 0.126119
H107  H     H_    0.409749 0.931045 0.144738 0.260370
H108  H     H_    0.439889 0.030435 0.099676 0.247205
H109  H     H_    0.406749 0.046365 0.260672 0.212710
H110  H     H_    0.497853 0.060022 0.249128 0.254617
H111  H     H_    0.512134 0.901239 0.294702 0.191154
H112  H     H_    0.422559 0.901369 0.320494 0.192199
H113  H     H_    0.594893 0.070651 0.851807 0.259003
H114  H     H_    0.502978 0.054150 0.865546 0.258034
H115  H     H_    0.563892 0.971840 0.897387 0.247330
H116  H     H_    0.506299 0.941770 0.748070 0.255073
N1    N     N_R   0.035208 0.414821 0.491074 -0.277448
N2    N     N_R   0.966151 0.561925 0.505691 -0.190471
N3    N     N_R   0.966520 0.415615 0.488071 -0.278305
N4    N     N_R   0.034791 0.561106 0.508931 -0.189552
N5    N     N_1   0.499980 0.500000 0.274190 -0.155297
N6    N     N_1   0.500020 0.500000 0.725810 -0.154742
O1    O     O_R   0.500010 0.379080 0.576170 -0.574821
O2    O     O_3   0.705324 0.422261 0.357525 -0.564972
O3    O     O_3   0.138803 0.585321 0.373334 -0.565364
O4    O     O_3   0.862009 0.554022 0.644214 -0.566015
O5    O     O_3   0.593139 0.070410 0.376900 -0.597086
O6    O     O_3   0.410880 0.929929 0.619800 -0.582943
O7    O     O_R   0.499990 0.620920 0.423830 -0.578863
O8    O     O_R   0.500000 0.379080 0.423800 -0.575465
O9    O     O_R   0.500000 0.620920 0.576200 -0.568455
O10   O     O_R   0.400150 0.499990 0.576210 -0.525011
O11   O     O_R   0.599850 0.500010 0.423790 -0.520821
O12   O     O_R   0.400140 0.499990 0.423840 -0.596021
O13   O     O_R   0.599860 0.500010 0.576160 -0.590987
O14   O     O_3   0.297433 0.397903 0.626522 -0.563646

loop_
_geom_bond_atom_site_label_1
_geom_bond_atom_site_label_2
_ccdc_geom_bond_type
C28   O4    S    
C63   H72   S    
C66   C68   S    
C33   N2    A    
C34   C56   S    
C8    C13   S    
C23   C45   S    
C27   C29   A    
C45   O5    S    
C41   C42   S    
C71   H91   S    
C16   O10   A    
C86   H17   S    
C5    C67   T    
C9    H1    S    
C56   O6    S    
C75   H111  S    
C81   H113  S    
C53   C54   S    
C16   C31   S    
C7    C11   S    
C64   O5    S    
C65   H81   S    
C84   H7    S    
Cu1   O1    S    
C43   H35   S    
C35   N4    A    
C41   H25   S    
C40   H28   S    
C85   H19   S    
C10   C15   S    
C72   H104  S    
Cu2   N5    S    
C59   H68   S    
C50   H50   S    
C56   C88   S    
C68   H87   S    
C20   O14   S    
C7    C9    S    
C8    C85   S    
C84   H6    S    
C68   H88   S    
C64   H79   S    
C9    C13   S    
C13   C40   S    
C42   H22   S    
C10   H29   S    
C42   H23   S    
C1    C67   S    
C37   H84   S    
C74   H100  S    
C33   N3    A    
C42   H24   S    
C83   C84   S    
C22   C25   A    
C12   C78   S    
C8    C14   S    
C46   H31   S    
C11   C43   S    
C70   C71   S    
C87   H14   S    
C81   H114  S    
C52   H47   S    
C77   H108  S    
C69   H97   S    
C12   O7    A    
Cu2   O8    S    
C37   H73   S    
C2    C34   S    
C39   H21   S    
C22   C47   S    
C59   C60   S    
C53   O3    S    
C83   H9    S    
C4    C56   S    
C27   O3    S    
C71   H92   S    
C66   H86   S    
C80   H116  S    
C61   C62   S    
C17   O13   A    
C38   O2    S    
C43   H36   S    
C79   C88   S    
C75   H112  S    
C44   C46   S    
C55   H59   S    
Cu1   N6    S    
C74   H98   S    
C2    C45   S    
C24   C50   S    
C63   H74   S    
C49   H37   S    
C21   C32   A    
C17   C32   S    
C65   H82   S    
C19   N6    T    
C76   C77   S    
C79   H4    S    
C4    C6    S    
C85   H20   S    
C76   H110  S    
Cu1   O13   S    
Cu1   O10   S    
C4    C23   S    
C86   C87   S    
C72   C73   S    
C3    C34   S    
C58   C59   S    
C85   C86   S    
C49   H39   S    
C23   C69   S    
C3    C45   S    
C48   H42   S    
C51   C52   S    
C53   H53   S    
C71   H90   S    
C15   C19   S    
C36   H51   S    
C60   H66   S    
C79   H5    S    
C62   C63   S    
C17   O11   A    
C36   H40   S    
C74   H99   S    
C26   C33   S    
C47   C48   S    
C87   H15   S    
C57   H60   S    
C7    C82   S    
C50   C51   S    
C82   H12   S    
C9    C14   S    
C46   H30   S    
C48   H41   S    
C55   O4    S    
Cu2   O7    S    
C73   H101  S    
C25   C35   S    
C54   H55   S    
C70   H94   S    
C40   C41   S    
C62   H76   S    
C20   C22   A    
Cu1   O9    S    
C23   C88   S    
C55   C57   S    
C47   H44   S    
C1    O1    A    
C52   H46   S    
C66   H85   S    
C16   O12   A    
C21   C24   A    
C41   H26   S    
Cu1   Cu2   S    
C73   C74   S    
C34   C72   S    
C39   H2    S    
C72   H103  S    
C81   H115  S    
C35   N1    A    
C63   H71   S    
C49   H38   S    
C36   C37   S    
C75   C76   S    
C36   O14   S    
C44   H33   S    
C65   H83   S    
C3    C88   S    
C14   C18   S    
C8    C10   S    
C86   H18   S    
C24   C26   A    
C80   C81   S    
C3    C5    S    
C76   H109  S    
Cu2   O12   S    
C39   H13   S    
C25   C27   A    
C38   H95   S    
C58   H69   S    
C68   H89   S    
C26   C28   A    
C54   H56   S    
C83   H10   S    
C61   H78   S    
C84   H8    S    
C64   C65   S    
C53   H54   S    
C13   C15   S    
C18   N5    T    
C77   H105  S    
C60   H65   S    
C28   C30   A    
C29   C31   A    
N2    N4    A    
C58   H70   S    
C30   C32   A    
C59   H67   S    
C55   H58   S    
C38   C39   S    
C87   H16   S    
C57   H63   S    
C43   C44   S    
C48   C49   S    
C2    C4    S    
C57   H61   S    
C7    C15   S    
C11   C14   S    
C82   H11   S    
C38   H106  S    
C40   H27   S    
C1    O8    A    
C64   H80   S    
C69   C70   S    
C60   H64   S    
C12   O9    A    
C73   H102  S    
C6    C78   T    
C10   C11   S    
C79   C80   S    
C51   H48   S    
C70   H93   S    
Cu2   O11   S    
C62   H75   S    
C29   C58   S    
C66   O6    S    
C82   C83   S    
C30   C61   S    
C44   H34   S    
N1    N3    A    
C52   H45   S    
C21   O2    S    
C46   H32   S    
C37   H62   S    
C61   H77   S    
C80   H3    S    
C77   H107  S    
C69   H96   S    
C47   H43   S    
C2    C75   S    
C50   H52   S    
C54   H57   S    
C20   C31   A    
C51   H49   S    
