data_mof_unit_68401.cif
_audit_creation_date              2012-12-10T16:53:59-0500
_audit_creation_method            fapswitch 2.2
_symmetry_space_group_name_H-M    P1
_symmetry_Int_Tables_number       1
_space_group_crystal_system       triclinic
_cell_length_a                    7.838124
_cell_length_b                    8.597689
_cell_length_c                    10.701083
_cell_angle_alpha                 90.103245
_cell_angle_beta                  86.337243
_cell_angle_gamma                 94.804869
_cell_volume                      717.13662218

loop_
_atom_site_label
_atom_site_type_symbol
_atom_type_description
_atom_site_fract_x
_atom_site_fract_y
_atom_site_fract_z
_atom_type_partial_charge
C1    C     C_R   0.545883 0.794976 0.493708 0.816552
C2    C     C_3   0.427341 0.643760 0.927818 -0.575757
C3    C     C_3   0.444420 0.657996 0.069013 0.261255
C4    C     C_3   0.401805 0.348425 0.933453 1.079379
C5    C     C_3   0.697802 0.504461 0.917973 0.822325
C6    C     C_3   0.508888 0.496454 0.877296 -0.345087
C7    C     C_3   0.835146 0.037611 0.391845 0.108389
C8    C     C_3   0.932230 0.122293 0.280415 -0.722857
C9    C     C_3   0.298336 0.825568 0.198182 0.104793
C10   C     C_3   0.147556 0.818097 0.292000 -0.679650
C11   C     C_3   0.959172 0.655059 0.865167 0.261551
C12   C     C_3   0.502952 0.502889 0.119781 -0.309415
C13   C     C_3   0.031790 0.823015 0.839775 -0.672120
C14   C     C_3   0.385488 0.361431 0.077028 -0.520730
C15   C     C_3   0.690571 0.488044 0.061978 0.941465
C16   C     C_2   0.563130 0.958768 0.470075 0.268632
C17   C     C_2   0.435019 0.040901 0.517829 -0.421164
C18   C     C_R   0.502677 0.496962 0.741429 1.015083
C19   C     C_R   0.453671 0.205244 0.503389 0.990936
C20   C     C_R   0.499431 0.502768 0.257681 0.964371
F1    F     F_    0.743365 0.343674 0.092487 -0.618593
F2    F     F_    0.481034 0.215012 0.899313 -0.626675
F3    F     F_    0.984491 0.672469 0.575450 -0.590827
F4    F     F_    0.238232 0.333892 0.889772 -0.636863
F5    F     F_    0.782094 0.381905 0.863556 -0.592796
F6    F     F_    0.802044 0.602569 0.112036 -0.684586
H1    H     H_    0.290991 0.633744 0.908009 0.247620
H2    H     H_    0.070376 0.145101 0.296875 0.171446
H3    H     H_    0.917633 0.052998 0.193556 0.282410
H4    H     H_    0.878723 0.235602 0.266501 0.315116
H5    H     H_    0.297216 0.930183 0.137327 0.170356
H6    H     H_    0.415788 0.834973 0.251774 0.154329
H7    H     H_    0.138362 0.707225 0.344064 0.301745
H8    H     H_    0.165764 0.914826 0.359572 0.186533
H9    H     H_    0.028561 0.821380 0.241813 0.267945
H10   H     H_    0.999154 0.580617 0.785805 0.239932
H11   H     H_    0.013021 0.612105 0.950618 0.213715
H12   H     H_    0.420037 0.251574 0.120295 0.207136
H13   H     H_    0.015643 0.893693 0.926083 0.263402
H14   H     H_    0.169975 0.827780 0.809124 0.201370
H15   H     H_    0.963279 0.874926 0.764458 0.288438
H16   H     H_    0.330288 0.991036 0.580875 0.165527
H17   H     H_    0.009728 0.368790 0.422726 0.135606
H18   H     H_    0.486169 0.751794 0.879571 0.225632
H19   H     H_    0.548388 0.753201 0.082014 0.150029
H20   H     H_    0.249899 0.375988 0.109390 0.253652
H21   H     H_    0.885380 0.924123 0.408051 0.186838
H22   H     H_    0.854854 0.108806 0.477422 0.164772
N1    N     N_2   0.950330 0.457950 0.465890 -0.081472
N2    N     N_2   0.049670 0.542050 0.534110 0.170553
O1    O     O_R   0.389250 0.738570 0.508370 -0.640165
O2    O     O_3   0.283521 0.689050 0.125855 -0.568115
O3    O     O_3   0.779003 0.652645 0.879137 -0.664790
O4    O     O_R   0.678390 0.711620 0.486510 -0.562622
O5    O     O_R   0.355430 0.513500 0.696140 -0.604406
O6    O     O_R   0.644580 0.486550 0.674270 -0.534172
O7    O     O_R   0.321610 0.288380 0.513490 -0.651238
O8    O     O_R   0.610750 0.261430 0.491630 -0.597043
O9    O     O_R   0.355420 0.513450 0.325730 -0.632798
O10   O     O_R   0.644570 0.486500 0.303860 -0.553777
O11   O     O_3   0.661759 0.015134 0.365159 -0.613621
Zn1   Zn    Zn3+2 0.306940 0.517990 0.514600 1.013303
Zn2   Zn    Zn3+2 0.693060 0.482010 0.485400 1.089202

loop_
_geom_bond_atom_site_label_1
_geom_bond_atom_site_label_2
_ccdc_geom_bond_type
C15   F1    S    
C1    O4    A    
C2    H1    S    
N1    Zn2   S    
C14   H12   S    
C4    F2    S    
C9    C10   S    
C11   O3    S    
C12   C15   S    
C18   O6    A    
C3    O2    S    
C8    H4    S    
C7    H22   S    
C12   C20   S    
C13   H15   S    
C2    C3    S    
O6    Zn2   S    
C7    C8    S    
C14   H20   S    
C1    C16   S    
C19   O7    A    
C20   O9    A    
C1    O1    A    
C2    C6    S    
C9    O2    S    
C18   O5    A    
O10   Zn2   S    
O1    Zn1   S    
C8    H3    S    
C5    O3    S    
C11   H10   S    
C17   C19   S    
C12   C14   S    
N1    N2    D    
C10   H7    S    
C19   O8    A    
C4    C14   S    
C5    C6    S    
C4    F4    S    
C10   H9    S    
C5    F5    S    
C6    C18   S    
C5    C15   S    
N2    Zn1   S    
C13   H13   S    
C16   O11   S    
C9    H5    S    
C13   H14   S    
O5    Zn1   S    
C11   C13   S    
C8    H2    S    
C10   H8    S    
C4    C6    S    
O4    Zn2   S    
O8    Zn2   S    
C11   H11   S    
C17   H16   S    
H17   N1    S    
F3    N2    S    
C3    C12   S    
O9    Zn1   S    
C9    H6    S    
O7    Zn1   S    
C20   O10   A    
C3    H19   S    
C7    O11   S    
C2    H18   S    
C16   C17   D    
C15   F6    S    
C7    H21   S    
