data_mof_unit_25826.cif
_audit_creation_date              2012-10-26T19:43:50-0400
_audit_creation_method            fapswitch 2.2
_symmetry_space_group_name_H-M    P1
_symmetry_Int_Tables_number       1
_space_group_crystal_system       triclinic
_cell_length_a                    12.37138
_cell_length_b                    13.183421
_cell_length_c                    13.861204
_cell_angle_alpha                 105.289147
_cell_angle_beta                  73.901724
_cell_angle_gamma                 116.607844
_cell_volume                      1916.25817833

loop_
_atom_site_label
_atom_site_type_symbol
_atom_type_description
_atom_site_fract_x
_atom_site_fract_y
_atom_site_fract_z
_atom_type_partial_charge
C1    C     C_R   0.144357 0.713662 0.509263 0.526226
C2    C     C_R   0.563397 0.022329 0.472939 0.019459
C3    C     C_R   0.608376 0.943834 0.402295 0.042919
C4    C     C_R   0.985216 0.505526 0.686441 0.545835
C5    C     C_R   0.526376 0.836812 0.363104 -0.141236
C6    C     C_R   0.400822 0.804250 0.396174 -0.121707
C7    C     C_R   0.649610 0.131208 0.506609 -0.136242
C8    C     C_R   0.818362 0.085196 0.399920 -0.140488
C9    C     C_R   0.226028 0.836931 0.517311 -0.001855
C10   C     C_R   0.646325 0.683185 0.650462 -0.145623
C11   C     C_R   0.244648 0.347878 0.366883 0.036485
C12   C     C_1   0.981236 0.514836 0.792101 -0.022506
C13   C     C_R   0.340179 0.312641 0.333753 -0.158756
C14   C     C_R   0.445404 0.369390 0.377885 -0.019115
C15   C     C_R   0.452491 0.461855 0.462004 -0.015457
C16   C     C_R   0.856258 0.286331 0.485840 0.549380
C17   C     C_R   0.349601 0.494073 0.492348 0.165196
C18   C     C_R   0.553271 0.524268 0.518012 -0.017114
C19   C     C_R   0.549936 0.618488 0.596145 0.036607
C20   C     C_R   0.449280 0.646879 0.622163 -0.168780
C21   C     C_R   0.350458 0.584363 0.573223 -0.091817
C22   C     C_R   0.656529 0.497762 0.503555 0.038860
C23   C     C_R   0.735265 0.974962 0.368320 -0.137403
C24   C     C_R   0.746059 0.654364 0.629270 0.044343
C25   C     C_R   0.016731 0.497074 0.313706 0.549306
C26   C     C_1   0.029293 0.498216 0.208506 -0.023743
C27   C     C_2   0.048167 0.496515 0.014086 -0.129902
C28   C     C_2   0.979093 0.533968 0.986513 -0.131510
C29   C     C_1   0.979789 0.523884 0.880892 -0.053199
C30   C     C_1   0.039819 0.498370 0.119747 -0.067821
C31   C     C_R   0.545631 0.332920 0.323559 0.003108
C32   C     C_R   0.637423 0.395021 0.250026 -0.094816
C33   C     C_R   0.724122 0.353176 0.189301 -0.102194
C34   C     C_R   0.775155 0.164497 0.466942 -0.000102
C35   C     C_R   0.721525 0.250710 0.202789 -0.098024
C36   C     C_R   0.629908 0.188190 0.275605 -0.106166
C37   C     C_R   0.541183 0.228343 0.335244 -0.109412
C38   C     C_R   0.178907 0.915965 0.579961 -0.132306
C39   C     C_R   0.256534 0.030322 0.603912 -0.141419
C40   C     C_R   0.382774 0.066819 0.569728 -0.129991
C41   C     C_R   0.434287 0.989750 0.506150 0.027198
C42   C     C_R   0.353130 0.875774 0.473196 0.024953
Cu1   Cu    Cu3+1 0.899780 0.525060 0.522890 0.934560
Cu2   Cu    Cu3+1 0.100220 0.474940 0.477110 0.913566
H1    H     H_    0.919238 0.569691 0.043106 0.125251
H2    H     H_    0.107425 0.460131 0.957470 0.136599
H3    H     H_    0.915460 0.109918 0.368429 0.120396
H4    H     H_    0.559383 0.778239 0.305620 0.107243
H5    H     H_    0.769910 0.915339 0.314374 0.107549
H6    H     H_    0.621822 0.193583 0.561979 0.120269
H7    H     H_    0.082024 0.888710 0.613252 0.125702
H8    H     H_    0.436688 0.156539 0.592850 0.102479
H9    H     H_    0.218996 0.090581 0.652208 0.119835
H10   H     H_    0.639520 0.473797 0.237860 0.107234
H11   H     H_    0.791734 0.399153 0.130471 0.119781
H12   H     H_    0.342016 0.723281 0.358204 0.151760
H13   H     H_    0.789208 0.218839 0.155666 0.107337
H14   H     H_    0.626314 0.107546 0.284196 0.126007
H15   H     H_    0.468505 0.177827 0.389548 0.119778
H16   H     H_    0.821497 0.704481 0.670053 0.118540
H17   H     H_    0.445455 0.717138 0.683027 0.112110
H18   H     H_    0.644283 0.755546 0.709278 0.092609
H19   H     H_    0.666648 0.425389 0.452013 0.154779
H20   H     H_    0.165260 0.304188 0.330274 0.131249
H21   H     H_    0.333682 0.242569 0.270353 0.108629
H22   H     H_    0.275276 0.609510 0.601889 0.185058
N1    N     N_R   0.748810 0.563010 0.557590 -0.238537
N2    N     N_R   0.250540 0.437620 0.443020 -0.238760
O1    O     O_R   0.025040 0.682470 0.528790 -0.503682
O2    O     O_R   0.194310 0.640150 0.490130 -0.527272
O3    O     O_R   0.903380 0.524130 0.659910 -0.492525
O4    O     O_R   0.072660 0.481800 0.621240 -0.509775
O5    O     O_R   0.805690 0.359850 0.509870 -0.508164
O6    O     O_R   0.974960 0.317530 0.471210 -0.505618
O7    O     O_R   0.927340 0.518200 0.378760 -0.487449
O8    O     O_R   0.096620 0.475870 0.340090 -0.507709

loop_
_geom_bond_atom_site_label_1
_geom_bond_atom_site_label_2
_ccdc_geom_bond_type
C33   H11   S    
C15   C18   A    
Cu1   O5    S    
C21   H22   S    
C41   C42   A    
C3    C23   A    
C35   C36   A    
C14   C31   S    
C13   H21   S    
C9    C42   A    
C16   O6    A    
C36   C37   A    
C36   H14   S    
C5    C6    A    
C12   C29   T    
C23   H5    S    
C2    C41   A    
C8    C23   A    
C18   C19   A    
C20   H17   S    
Cu2   O8    S    
C24   N1    A    
C16   C34   S    
C22   H19   S    
C19   C20   A    
Cu2   O2    S    
C4    C12   S    
Cu1   O1    S    
C13   C14   A    
C27   C30   S    
C10   H18   S    
C32   H10   S    
Cu1   O7    S    
C38   C39   A    
C5    H4    S    
C28   H1    S    
C16   O5    A    
C1    C9    S    
C11   H20   S    
C39   C40   A    
C38   H7    S    
C10   C24   A    
C25   C26   S    
C40   H8    S    
C1    O1    A    
C31   C37   A    
C25   O7    A    
Cu1   Cu2   S    
C31   C32   A    
C10   C19   A    
C24   H16   S    
C8    C34   A    
Cu2   O6    S    
C37   H15   S    
C27   H2    S    
C40   C41   A    
C26   C30   T    
C2    C7    A    
C7    C34   A    
Cu2   N2    S    
C4    O4    A    
C11   N2    A    
C15   C17   A    
C28   C29   S    
C17   N2    A    
Cu1   O3    S    
C18   C22   A    
C7    H6    S    
C6    H12   S    
C3    C5    A    
C1    O2    A    
C35   H13   S    
C25   O8    A    
C32   C33   A    
C2    C3    A    
C8    H3    S    
C11   C13   A    
C39   H9    S    
C9    C38   A    
C33   C35   A    
Cu2   O4    S    
C17   C21   A    
C22   N1    A    
C20   C21   A    
Cu1   N1    S    
C6    C42   A    
C27   C28   D    
C14   C15   A    
C4    O3    A    
