data_mof_unit_15699.cif
_audit_creation_date              2013-03-05T15:55:18-0500
_audit_creation_method            fapswitch 2.2
_symmetry_space_group_name_H-M    P1
_symmetry_Int_Tables_number       1
_space_group_crystal_system       triclinic
_cell_length_a                    14.697374
_cell_length_b                    14.724348
_cell_length_c                    33.258989
_cell_angle_alpha                 95.929497
_cell_angle_beta                  95.714147
_cell_angle_gamma                 61.260063
_cell_volume                      6266.84984255

loop_
_atom_site_label
_atom_site_type_symbol
_atom_site_description
_atom_site_fract_x
_atom_site_fract_y
_atom_site_fract_z
_atom_type_partial_charge
O1    O     O_R   0.679450 0.499830 0.463150 -0.507875
O2    O     O_R   0.480650 0.664000 0.464630 -0.548711
C1    C     C_R   0.390759 0.701264 0.446599 0.849144
O3    O     O_R   0.323930 0.675950 0.455370 -0.495109
O4    O     O_R   0.354700 0.475360 0.451930 -0.506603
C2    C     C_R   0.404672 0.385260 0.434453 0.838589
O5    O     O_R   0.494470 0.320860 0.448390 -0.536022
O6    O     O_R   0.662580 0.357570 0.460050 -0.514182
C3    C     C_R   0.703582 0.408610 0.447916 0.889907
O7    O     O_R   0.680900 0.502040 0.551870 -0.521527
O8    O     O_R   0.481990 0.666040 0.546870 -0.546395
C4    C     C_R   0.392994 0.701577 0.561256 0.822951
O9    O     O_R   0.325370 0.678160 0.544080 -0.525886
O10   O     O_R   0.356040 0.477400 0.534170 -0.509566
C5    C     C_R   0.406299 0.388779 0.548898 0.864355
O11   O     O_R   0.495910 0.323070 0.537100 -0.536923
O12   O     O_R   0.663920 0.359620 0.542290 -0.515461
C6    C     C_R   0.700588 0.413828 0.562930 0.947640
Cr1   Cr    Cr6+3 0.576280 0.580550 0.506370 1.028823
Cr2   Cr    Cr6+3 0.346780 0.572400 0.496520 1.082568
Cr3   Cr    Cr6+3 0.576960 0.347070 0.497150 1.042718
O13   O     O_3   0.500010 0.500010 0.500010 -0.377912
H1    H     H_    0.392683 0.128881 0.116575 0.195966
H2    H     H_    0.398863 0.163429 0.189056 0.190207
H3    H     H_    0.508861 0.219234 0.384059 0.237218
C7    C     C_R   0.366357 0.361727 0.393864 -0.238159
C8    C     C_R   0.268585 0.431273 0.375875 0.376489
C9    C     C_R   0.250333 0.421873 0.333869 -0.202939
C10   C     C_R   0.324293 0.341011 0.310204 -0.102617
C11   C     C_R   0.415338 0.263046 0.328641 0.400772
C12   C     C_R   0.435949 0.275507 0.370280 -0.242936
C13   C     C_R   0.353575 0.227961 0.170099 -0.163916
C14   C     C_R   0.350694 0.208649 0.128526 -0.211085
C15   C     C_R   0.233485 0.392001 0.119841 0.346246
C16   C     C_R   0.240296 0.412521 0.162405 0.293466
C17   C     C_R   0.297212 0.328346 0.187279 -0.078723
C18   C     C_1   0.301230 0.340456 0.230636 0.144617
C19   C     C_1   0.309089 0.342984 0.266969 0.128198
C20   C     C_R   0.288818 0.289076 0.102975 -0.157914
H4    H     H_    0.178348 0.478332 0.319466 0.210086
N1    N     N_R   0.750633 0.394026 0.221673 -0.198433
N2    N     N_R   0.744520 0.400041 0.261527 -0.271703
C21   C     C_R   0.763740 0.369230 0.410684 -0.321479
C22   C     C_R   0.781168 0.437722 0.389504 0.354242
C23   C     C_R   0.795552 0.417843 0.348093 -0.236866
C24   C     C_R   0.801562 0.327455 0.327754 -0.211367
C25   C     C_R   0.802613 0.250221 0.349835 0.301236
C26   C     C_R   0.784521 0.270688 0.391553 0.248560
N3    N     N_R   0.875571 0.227757 0.264241 -0.188203
N4    N     N_R   0.881796 0.221823 0.224305 -0.274808
C27   C     C_R   0.819448 0.304918 0.202333 0.658418
C28   C     C_R   0.806930 0.317222 0.283537 0.603936
C29   C     C_R   0.840322 0.384942 0.144245 0.374172
C30   C     C_R   0.864428 0.379605 0.104174 0.245797
C31   C     C_R   0.876086 0.208247 0.092819 0.417629
C32   C     C_R   0.847852 0.215018 0.132753 0.070592
C33   C     C_R   0.833975 0.301989 0.158974 -0.287478
C34   C     C_R   0.895554 0.286007 0.079904 -0.325276
H5    H     H_    0.803096 0.473297 0.331510 0.207414
N5    N     N_R   0.305906 0.784757 0.222293 -0.165544
N6    N     N_R   0.306907 0.780303 0.261977 -0.195276
C35   C     C_R   0.372269 0.759283 0.410432 -0.222272
C36   C     C_R   0.273323 0.808118 0.389761 0.287067
C37   C     C_R   0.266202 0.834443 0.349532 0.298720
C38   C     C_R   0.356984 0.815723 0.331332 -0.142217
C39   C     C_R   0.451335 0.780578 0.354025 -0.133528
C40   C     C_R   0.459094 0.752144 0.393119 -0.175443
N7    N     N_R   0.409792 0.862969 0.272463 -0.244266
N8    N     N_R   0.408042 0.868147 0.232659 -0.266867
C41   C     C_R   0.355275 0.829878 0.206898 0.618208
C42   C     C_R   0.356819 0.821389 0.287735 0.560968
C43   C     C_R   0.234515 0.889016 0.146662 0.334644
C44   C     C_R   0.212808 0.911586 0.106031 0.284092
C45   C     C_R   0.393192 0.871098 0.100335 0.253520
C46   C     C_R   0.415797 0.843714 0.140952 0.328088
C47   C     C_R   0.336234 0.852491 0.163980 -0.272434
C48   C     C_R   0.290128 0.909942 0.083230 -0.376588
H6    H     H_    0.535348 0.717368 0.408647 0.213245
H7    H     H_    0.521092 0.767258 0.340431 0.200027
N9    N     N_R   0.296557 0.432507 0.771667 -0.280467
N10   N     N_R   0.298649 0.435010 0.731949 -0.307742
C49   C     C_R   0.367229 0.369252 0.584584 -0.254282
C50   C     C_R   0.276201 0.447241 0.602364 0.315629
C51   C     C_R   0.259668 0.441600 0.642778 0.340903
C52   C     C_R   0.326300 0.351677 0.663343 -0.231331
C53   C     C_R   0.406964 0.266648 0.643039 0.395391
C54   C     C_R   0.428530 0.277497 0.604321 -0.253704
N11   N     N_R   0.333235 0.262076 0.722912 -0.229498
N12   N     N_R   0.331062 0.259533 0.762636 -0.227400
C55   C     C_R   0.313020 0.344617 0.787658 0.711705
C56   C     C_R   0.316946 0.349990 0.706844 0.633897
C57   C     C_R   0.227698 0.413956 0.853351 0.253416
C58   C     C_R   0.219579 0.397441 0.893524 0.244680
C59   C     C_R   0.389353 0.242853 0.891510 0.353029
C60   C     C_R   0.396704 0.257829 0.851283 0.280693
C61   C     C_R   0.313012 0.340069 0.831496 -0.355441
C62   C     C_R   0.295669 0.305499 0.911166 -0.382551
H8    H     H_    0.497045 0.215871 0.590724 0.187333
H9    H     H_    0.945890 0.182481 0.794454 0.170347
C63   C     C_R   0.745357 0.385549 0.604689 -0.384001
C64   C     C_R   0.809912 0.424837 0.624966 0.258579
C65   C     C_R   0.824580 0.424796 0.667728 0.316396
C66   C     C_R   0.778477 0.381761 0.689532 -0.211918
C67   C     C_R   0.719278 0.338172 0.669147 0.347465
C68   C     C_R   0.707875 0.334443 0.626816 0.287375
C69   C     C_R   0.911325 0.240546 0.819007 -0.238141
C70   C     C_R   0.942529 0.212743 0.858865 0.351520
C71   C     C_R   0.825155 0.390113 0.883039 0.348773
C72   C     C_R   0.788913 0.416140 0.842528 0.400114
C73   C     C_R   0.836913 0.341354 0.810538 -0.087160
C74   C     C_1   0.811993 0.363377 0.768547 0.066787
C75   C     C_1   0.796449 0.374829 0.732749 0.112489
C76   C     C_R   0.905291 0.289305 0.890927 -0.257563
H10   H     H_    0.438243 0.911252 0.815284 0.207892
H11   H     H_    0.530100 0.735384 0.612909 0.195106
C77   C     C_R   0.374736 0.754709 0.602092 -0.161128
C78   C     C_R   0.280324 0.785688 0.619575 -0.228777
C79   C     C_R   0.269874 0.814112 0.660987 0.396213
C80   C     C_R   0.356081 0.807434 0.685545 -0.117898
C81   C     C_R   0.449402 0.783693 0.667954 0.344323
C82   C     C_R   0.456934 0.758919 0.626111 -0.257035
C83   C     C_R   0.387774 0.892189 0.830175 -0.247530
C84   C     C_R   0.372204 0.920708 0.871258 0.388491
C85   C     C_R   0.254854 0.845950 0.868583 0.334592
C86   C     C_R   0.270118 0.819113 0.827023 0.410095
C87   C     C_R   0.333687 0.846461 0.807770 -0.136786
C88   C     C_1   0.340707 0.833022 0.764685 0.115037
C89   C     C_1   0.347549 0.822431 0.728638 0.122960
C90   C     C_R   0.298170 0.905890 0.890038 -0.305642
H12   H     H_    0.215995 0.782665 0.601668 0.178040
O14   O     O_R   0.170070 0.978950 0.027680 -0.515883
O15   O     O_R   0.001760 0.175230 0.026640 -0.440961
C91   C     C_R   0.960309 0.265402 0.044941 0.971782
O16   O     O_R   0.984760 0.333570 0.037150 -0.561756
O17   O     O_R   0.183410 0.309240 0.041890 -0.536933
C92   C     C_R   0.272451 0.259330 0.060165 0.830001
O18   O     O_R   0.340240 0.172500 0.045430 -0.524982
O19   O     O_R   0.309670 0.000990 0.032050 -0.514900
C93   C     C_R   0.258189 0.960637 0.044282 0.847401
O20   O     O_R   0.168330 0.982130 0.939200 -0.513843
O21   O     O_R   0.000140 0.178170 0.944610 -0.491942
C94   C     C_R   0.960986 0.268456 0.931220 0.935122
O22   O     O_R   0.983010 0.336750 0.948660 -0.535018
O23   O     O_R   0.181800 0.312190 0.959860 -0.509932
C95   C     C_R   0.272395 0.265131 0.945851 0.915664
O24   O     O_R   0.338500 0.175680 0.956950 -0.503547
O25   O     O_R   0.308050 0.003930 0.950020 -0.515416
C96   C     C_R   0.257731 0.963373 0.929214 0.858997
Cr4   Cr    Cr6+3 0.087320 0.083240 0.984860 1.166007
Cr5   Cr    Cr6+3 0.087720 0.316210 0.996740 1.018030
Cr6   Cr    Cr6+3 0.317350 0.090340 0.995890 1.047810
O26   O     O_3   0.164130 0.163270 0.992500 -0.392560
N13   N     N_R   0.784217 0.192583 0.414021 0.171397
O27   O     O_R   0.728268 0.147807 0.400821 -0.298054
O28   O     O_R   0.839433 0.166690 0.448049 -0.321068
O29   O     O_3   0.866381 0.464102 0.090498 -0.557982
C97   C     C_3   0.770941 0.523178 0.069119 -0.007066
H13   H     H_    0.704624 0.552464 0.089038 0.187182
H14   H     H_    0.759360 0.477898 0.042028 0.140622
H15   H     H_    0.771806 0.591548 0.058322 0.167277
N14   N     N_R   0.818689 0.152682 0.330019 0.197739
O30   O     O_R   0.758589 0.150047 0.298945 -0.280367
O31   O     O_R   0.891271 0.066027 0.343874 -0.227920
O32   O     O_3   0.822826 0.472657 0.169031 -0.510864
C98   C     C_3   0.919193 0.460238 0.186716 -0.063320
H16   H     H_    0.972285 0.452244 0.163414 0.112836
H17   H     H_    0.957382 0.392509 0.205906 0.087650
H18   H     H_    0.905167 0.530515 0.206573 0.200579
N15   N     N_R   0.879733 0.124268 0.065699 0.800917
O33   O     O_R   0.833921 0.141064 0.029641 -0.938416
O34   O     O_R   0.833921 0.141064 0.029641 -0.938416
N16   N     N_R   0.829426 0.135491 0.146033 0.158884
O35   O     O_R   0.890246 0.038039 0.136170 -0.337025
O36   O     O_R   0.748761 0.160503 0.166503 -0.295939
N17   N     N_R   0.180992 0.835100 0.410125 0.169012
O37   O     O_R   0.167605 0.882799 0.445962 -0.332574
O38   O     O_R   0.110875 0.811047 0.393507 -0.232352
O39   O     O_3   0.111402 0.947455 0.090441 -0.541940
C99   C     C_3   0.096789 0.861086 0.076968 0.078528
H19   H     H_    0.104254 0.814549 0.102596 0.173682
H20   H     H_    0.151930 0.811120 0.053513 0.094944
H21   H     H_    0.016907 0.889644 0.062910 0.203619
N18   N     N_R   0.167202 0.883051 0.327583 0.174164
O40   O     O_R   0.120658 0.828825 0.314348 -0.249092
O41   O     O_R   0.134117 0.974237 0.314119 -0.331058
O42   O     O_3   0.154252 0.903314 0.169470 -0.504695
C100  C     C_3   0.108042 0.005949 0.186893 0.047884
H22   H     H_    0.073505 0.063605 0.163283 0.088436
H23   H     H_    0.164572 0.021061 0.207403 0.084426
H24   H     H_    0.044343 0.017004 0.205405 0.232043
N19   N     N_R   0.476244 0.853823 0.076213 0.113721
O43   O     O_R   0.495603 0.929408 0.071557 -0.367708
O44   O     O_R   0.542982 0.759411 0.064878 -0.373737
O45   O     O_3   0.516779 0.802230 0.157645 -0.519144
C101  C     C_3   0.541824 0.883036 0.169214 0.013519
H25   H     H_    0.604146 0.856628 0.193752 0.192096
H26   H     H_    0.475256 0.955795 0.181181 0.092622
H27   H     H_    0.573044 0.899739 0.143585 0.185025
O46   O     O_3   0.207437 0.533482 0.581790 -0.554982
C102  C     C_3   0.131921 0.511680 0.560217 -0.018963
H28   H     H_    0.086867 0.496160 0.581045 0.188066
H29   H     H_    0.167747 0.445281 0.537403 0.129695
H30   H     H_    0.076397 0.580646 0.543638 0.186476
N20   N     N_R   0.132322 0.472241 0.915622 0.152287
O47   O     O_R   0.038087 0.503955 0.899994 -0.353930
O48   O     O_R   0.147208 0.511264 0.951015 -0.362867
O49   O     O_3   0.174870 0.521093 0.661737 -0.526060
C103  C     C_3   0.190984 0.608490 0.670355 -0.012671
H31   H     H_    0.170281 0.654381 0.643323 0.175670
H32   H     H_    0.272037 0.587545 0.682022 0.084295
H33   H     H_    0.138675 0.659392 0.694282 0.181705
O50   O     O_3   0.475038 0.179815 0.663563 -0.527620
C104  C     C_3   0.463317 0.094050 0.646451 -0.074309
H34   H     H_    0.492690 0.070366 0.615517 0.112556
H35   H     H_    0.380997 0.110100 0.645901 0.123457
H36   H     H_    0.510253 0.027455 0.665516 0.211068
N21   N     N_R   0.488674 0.173101 0.305649 0.134443
O51   O     O_R   0.584206 0.120133 0.319843 -0.275301
O52   O     O_R   0.457795 0.135742 0.273200 -0.370422
N22   N     N_R   0.147012 0.503551 0.834417 0.147149
O53   O     O_R   0.123000 0.596173 0.850444 -0.329308
O54   O     O_R   0.092687 0.492643 0.802753 -0.352437
O55   O     O_3   0.472354 0.161779 0.910468 -0.514089
C105  C     C_3   0.532107 0.201585 0.933920 0.018028
H37   H     H_    0.486454 0.259378 0.958131 0.116965
H38   H     H_    0.563415 0.236475 0.914654 0.135610
H39   H     H_    0.599308 0.136649 0.948908 0.214827
N23   N     N_R   0.489695 0.189052 0.830699 0.137153
O56   O     O_R   0.532131 0.226145 0.809232 -0.365775
O57   O     O_R   0.534779 0.089496 0.834672 -0.319049
O58   O     O_3   0.015519 0.111843 0.866230 -0.552826
C106  C     C_3   0.964602 0.050660 0.861270 -0.044827
H40   H     H_    0.940671 0.041922 0.828923 0.132195
H41   H     H_    0.896319 0.082734 0.880363 0.152150
H42   H     H_    0.019042 0.972254 0.871177 0.218805
O59   O     O_3   0.676885 0.293130 0.690522 -0.524833
C107  C     C_3   0.573763 0.367728 0.698368 -0.078761
H43   H     H_    0.524695 0.393071 0.669815 0.123145
H44   H     H_    0.570989 0.436101 0.717111 0.104617
H45   H     H_    0.539833 0.332071 0.715751 0.194940
O60   O     O_3   0.652307 0.287269 0.607552 -0.534090
C108  C     C_3   0.722232 0.181013 0.599993 -0.057421
H46   H     H_    0.753675 0.141271 0.628745 0.150286
H47   H     H_    0.786986 0.169464 0.581740 0.126779
H48   H     H_    0.680039 0.143536 0.582178 0.146239
N24   N     N_R   0.864211 0.459734 0.602029 0.144351
O61   O     O_R   0.901936 0.410969 0.567783 -0.356568
O62   O     O_R   0.881391 0.536288 0.615966 -0.344876
O63   O     O_3   0.700194 0.509459 0.835586 -0.546454
C109  C     C_3   0.722669 0.575003 0.815006 -0.214941
H49   H     H_    0.806788 0.553432 0.816172 0.145403
H50   H     H_    0.680662 0.655115 0.828937 0.165758
H51   H     H_    0.691977 0.576979 0.783118 0.178628
O64   O     O_3   0.777306 0.458010 0.915763 -0.538614
C110  C     C_3   0.781699 0.551629 0.915170 -0.059266
H52   H     H_    0.845247 0.544935 0.897415 0.161537
H53   H     H_    0.795266 0.576950 0.946748 0.156291
H54   H     H_    0.705759 0.613077 0.903457 0.141751
O65   O     O_3   0.891906 0.457769 0.687557 -0.520584
C111  C     C_3   0.833296 0.560250 0.703998 0.045144
H55   H     H_    0.887502 0.590570 0.715728 0.184465
H56   H     H_    0.789749 0.562517 0.729737 0.088524
H57   H     H_    0.778639 0.612895 0.680884 0.181126
O66   O     O_3   0.419837 0.975006 0.891352 -0.509019
C112  C     C_3   0.523428 0.903500 0.902400 -0.008739
H58   H     H_    0.569499 0.865705 0.875265 0.115296
H59   H     H_    0.527111 0.843814 0.921499 0.080213
H60   H     H_    0.559967 0.946084 0.920647 0.195180
N25   N     N_R   0.537890 0.781206 0.691820 0.073777
O67   O     O_R   0.602548 0.801623 0.675625 -0.387812
O68   O     O_R   0.559752 0.750043 0.728441 -0.409881
O69   O     O_3   0.211474 0.779126 0.804642 -0.527918
C113  C     C_3   0.273814 0.671301 0.797291 -0.054305
H61   H     H_    0.298721 0.630922 0.825953 0.142810
H62   H     H_    0.342722 0.652376 0.780195 0.091364
H63   H     H_    0.226531 0.641023 0.778434 0.209558
O70   O     O_3   0.190522 0.819984 0.886741 -0.525199
C114  C     C_3   0.251846 0.739077 0.912534 -0.074885
H64   H     H_    0.285010 0.766776 0.939468 0.093233
H65   H     H_    0.315305 0.671850 0.896424 0.101307
H66   H     H_    0.201540 0.711044 0.923572 0.207418
O71   O     O_3   0.178969 0.836997 0.678389 -0.559954
C115  C     C_3   0.102897 0.938088 0.669098 -0.194208
H67   H     H_    0.080762 0.942562 0.636104 0.140770
H68   H     H_    0.129366 0.996259 0.679771 0.143118
H69   H     H_    0.032115 0.958604 0.685076 0.179027
N26   N     N_R   0.187470 0.510856 0.399531 0.139942
O72   O     O_R   0.166780 0.489204 0.433343 -0.345623
O73   O     O_R   0.122720 0.598557 0.384135 -0.283756
N27   N     N_R   0.190883 0.517587 0.179745 0.108753
O74   O     O_R   0.193289 0.591141 0.162038 -0.309021
O75   O     O_R   0.141508 0.540878 0.212782 -0.364337
O76   O     O_3   0.175825 0.471843 0.094449 -0.528134
C116  C     C_3   0.069161 0.503958 0.097000 -0.040975
H70   H     H_    0.053233 0.437105 0.095983 0.128434
H71   H     H_    0.025632 0.549877 0.070632 0.174174
H72   H     H_    0.038697 0.554782 0.124781 0.169242
N28   N     N_R   0.784390 0.527643 0.409377 0.140904
O77   O     O_R   0.747579 0.612642 0.390563 -0.353303
O78   O     O_R   0.840724 0.518828 0.442985 -0.303712

loop_
_geom_bond_atom_site_label_1
_geom_bond_atom_site_label_2
_geom_bond_distance
_ccdc_geom_bond_type
H3    C12   1.082452 S    
C31   C32   1.410229 A    
C110  H53   1.109375 S    
C98   H16   1.112043 S    
H11   C82   1.083281 S    
C91   O16   1.273926 A    
C70   O58   1.381398 S    
C115  H68   1.114046 S    
O71   C115  1.409605 S    
N1    N2    1.328420 A    
C67   O59   1.384349 S    
C67   C68   1.399696 A    
C60   C61   1.408367 A    
C51   O49   1.386388 S    
C43   C47   1.405467 A    
C105  H37   1.113396 S    
O20   C96   1.277517 A    
N22   O54   1.301255 A    
N14   O30   1.301045 A    
C52   C56   1.470743 S    
O21   Cr4   1.926216 S    
O17   C92   1.277165 A    
N17   O38   1.300011 A    
O4    Cr2   1.921233 S    
C52   C53   1.409392 A    
C65   O65   1.384074 S    
C39   H7    1.083795 S    
O8    Cr1   1.913951 S    
C63   C68   1.416032 A    
O76   C116  1.411991 S    
C6    C63   1.486372 S    
C35   C40   1.405656 A    
O4    C2    1.275149 A    
C13   C17   1.392741 A    
C57   C58   1.409014 A    
O29   C97   1.409135 S    
C18   C19   1.200840 T    
C53   O50   1.384147 S    
O60   C108  1.411073 S    
N11   N12   1.329544 A    
N18   O41   1.301028 A    
C30   O29   1.381853 S    
C116  H70   1.112678 S    
C109  H49   1.116354 S    
C114  H65   1.113049 S    
C1    C35   1.474631 S    
C16   N27   1.439419 S    
C69   C70   1.394885 A    
C9    H4    1.084184 S    
C109  H50   1.109489 S    
C49   C54   1.401004 A    
O16   Cr5   2.030663 S    
C24   C28   1.468860 S    
C57   C61   1.410835 A    
C113  H63   1.108333 S    
C97   H15   1.109271 S    
C77   C78   1.403145 A    
C1    O3    1.272928 A    
O12   C6    1.274969 A    
C15   C16   1.420501 A    
N15   O33   1.301167 A    
C68   O60   1.381801 S    
H2    C13   1.084159 S    
C57   N22   1.435853 S    
C58   N20   1.435274 S    
C79   C80   1.404567 A    
C70   C76   1.407862 A    
C90   C96   1.486590 S    
O23   Cr5   1.914155 S    
C66   C67   1.399381 A    
O25   C96   1.272720 A    
N16   O35   1.301265 A    
Cr3   O13   1.971622 S    
C73   C74   1.437800 S    
C37   N18   1.434325 S    
O21   C94   1.277634 A    
C97   H13   1.113653 S    
C23   H5    1.084212 S    
N27   O74   1.301465 A    
C16   C17   1.413271 A    
C38   C42   1.460654 S    
O15   C91   1.278075 A    
H1    C14   1.083386 S    
C45   C48   1.416957 A    
C10   C19   1.434189 S    
C102  H28   1.113599 S    
C17   C18   1.433436 S    
C108  H47   1.114145 S    
Cr6   O26   1.971286 S    
N26   O73   1.301214 A    
C27   C33   1.471951 S    
C71   C72   1.418980 A    
N13   O28   1.301329 A    
C10   C11   1.410398 A    
C21   C26   1.423099 A    
C84   O66   1.382252 S    
C103  H33   1.109295 S    
O9    Cr2   2.035942 S    
O65   C111  1.411151 S    
C43   C44   1.394026 A    
C101  H27   1.107860 S    
C71   O64   1.389276 S    
C80   C89   1.436103 S    
N6    C42   1.353736 A    
C109  H51   1.107991 S    
C39   C40   1.384170 A    
C110  H54   1.109591 S    
C7    C12   1.406554 A    
C97   H14   1.113463 S    
C29   O32   1.384414 S    
N25   O67   1.301422 A    
C32   N16   1.440571 S    
C115  H69   1.109319 S    
O15   Cr4   1.915191 S    
N15   O34   1.301167 A    
O32   C98   1.411620 S    
N5    C41   1.355715 A    
C59   C60   1.401074 A    
C40   H6    1.082811 S    
N28   O78   1.301599 A    
C111  H57   1.112877 S    
O63   C109  1.413179 S    
C64   N24   1.442039 S    
N23   O57   1.301484 A    
N23   O56   1.301493 A    
N14   O31   1.301158 A    
C64   C65   1.417101 A    
N16   O36   1.301443 A    
O39   C99   1.410662 S    
C5    C49   1.478567 S    
C106  H40   1.112302 S    
C20   C92   1.476887 S    
C104  H35   1.114242 S    
C34   C91   1.489916 S    
N24   O62   1.300646 A    
O1    Cr1   2.031275 S    
C108  H48   1.108379 S    
C3    C21   1.492646 S    
C77   C82   1.403958 A    
C86   O69   1.383236 S    
O49   C103  1.413368 S    
C100  H24   1.108876 S    
C25   C26   1.413063 A    
O10   Cr2   1.920439 S    
Cr1   O13   1.971556 S    
O1    C3    1.274221 A    
C51   C52   1.409521 A    
C4    C77   1.476426 S    
O55   C105  1.409716 S    
C111  H56   1.107351 S    
O59   C107  1.410769 S    
C45   C46   1.411464 A    
Cr4   O26   1.971778 S    
C103  H31   1.109404 S    
O14   C93   1.267852 A    
C29   C33   1.408138 A    
C53   C54   1.398796 A    
O6    C3    1.279623 A    
C101  H25   1.109243 S    
C59   C62   1.416808 A    
N4    C27   1.357899 A    
N21   O51   1.301351 A    
C29   C30   1.397660 A    
C55   C61   1.466453 S    
C114  H66   1.109347 S    
C106  H42   1.104261 S    
O12   Cr3   1.925952 S    
C81   N25   1.441341 S    
C15   C20   1.415189 A    
C65   C66   1.411469 A    
N5    N6    1.326486 A    
C112  H58   1.112768 S    
C71   C76   1.413135 A    
C83   C87   1.390547 A    
O25   Cr6   1.920834 S    
C46   C47   1.408288 A    
N19   O44   1.300301 A    
N18   O40   1.300741 A    
C45   N19   1.432679 S    
O64   C110  1.412877 S    
O22   Cr5   2.044318 S    
C15   O76   1.384904 S    
O24   Cr6   2.035911 S    
C50   C51   1.407185 A    
N11   C56   1.355719 A    
C104  H34   1.111768 S    
O7    Cr1   2.044358 S    
C80   C81   1.414974 A    
N3    C28   1.356897 A    
C72   O63   1.387149 S    
C35   C36   1.414909 A    
C106  H41   1.114726 S    
O6    Cr3   1.914600 S    
C7    C8    1.418382 A    
C114  H64   1.111352 S    
N7    C42   1.356606 A    
C14   C20   1.403556 A    
C4    O9    1.268405 A    
N10   C56   1.357085 A    
C36   N17   1.437700 S    
C78   H12   1.083276 S    
C112  H59   1.114233 S    
C43   O42   1.384820 S    
C46   O45   1.385005 S    
C101  H26   1.115709 S    
C116  H72   1.109734 S    
C11   N21   1.443139 S    
C44   O39   1.383757 S    
O19   Cr6   1.920080 S    
C103  H32   1.115416 S    
C26   N13   1.436731 S    
Cr2   O13   1.971420 S    
N3    N4    1.331444 A    
C98   H18   1.109147 S    
C107  H44   1.113441 S    
C21   C22   1.417739 A    
C41   C47   1.468242 S    
C86   C87   1.406870 A    
C30   C34   1.413361 A    
Cr5   O26   1.971342 S    
O14   Cr4   2.043612 S    
C107  H45   1.109283 S    
N28   O77   1.301492 A    
O69   C113  1.409043 S    
C50   O46   1.381945 S    
C110  H52   1.113561 S    
C9    C10   1.396719 A    
C105  H39   1.109263 S    
C58   C62   1.416042 A    
C95   O24   1.270202 A    
O58   C106  1.411333 S    
C81   C82   1.403208 A    
C69   C73   1.393771 A    
C104  H36   1.109193 S    
N19   O43   1.300965 A    
C32   C33   1.412636 A    
H9    C69   1.084706 S    
N12   C55   1.357004 A    
C24   C25   1.409332 A    
C60   N23   1.440202 S    
C25   N14   1.435948 S    
C74   C75   1.203508 T    
C108  H46   1.112662 S    
O2    Cr1   1.927572 S    
C94   O22   1.267892 A    
C62   C95   1.488906 S    
N7    N8    1.330867 A    
C54   H8    1.081247 S    
O18   Cr6   2.039761 S    
C22   C23   1.393736 A    
C48   C93   1.482295 S    
N20   O48   1.301344 A    
N9    N10   1.329100 A    
C105  H38   1.113684 S    
C85   O70   1.383438 S    
O11   Cr3   2.031337 S    
C79   O71   1.383586 S    
C2    O5    1.273329 A    
O3    Cr2   2.039069 S    
C99   H19   1.112586 S    
N21   O52   1.301211 A    
O17   Cr5   1.927667 S    
C78   C79   1.398919 A    
C102  H30   1.109213 S    
O23   C95   1.280518 A    
C13   C14   1.383160 A    
C99   H21   1.109217 S    
N24   O61   1.301614 A    
N25   O68   1.301155 A    
O2    C1    1.272504 A    
O66   C112  1.410171 S    
C100  H22   1.113056 S    
N17   O37   1.301346 A    
O5    Cr3   2.043989 S    
C72   C73   1.415124 A    
C111  H55   1.109229 S    
C116  H71   1.109216 S    
C11   C12   1.400245 A    
C59   O55   1.382991 S    
C2    C7    1.482961 S    
O7    C6    1.273641 A    
C87   C88   1.433327 S    
C5    O11   1.274247 A    
C37   C38   1.412558 A    
C63   C64   1.417554 A    
C113  H62   1.112272 S    
N1    C27   1.355435 A    
N22   O53   1.301169 A    
O45   C101  1.413360 S    
N27   O75   1.301215 A    
N9    C55   1.353376 A    
N8    C41   1.356910 A    
C112  H60   1.109127 S    
C107  H43   1.113191 S    
O42   C100  1.411133 S    
C100  H23   1.112963 S    
C85   C90   1.418854 A    
O19   C93   1.278534 A    
C8    N26   1.437448 S    
C36   C37   1.411256 A    
H10   C83   1.084618 S    
N26   O72   1.301592 A    
C23   C24   1.396260 A    
O46   C102  1.409307 S    
C22   N28   1.437138 S    
N20   O47   1.300492 A    
C98   H17   1.113005 S    
C38   C39   1.393766 A    
C31   C34   1.420738 A    
N2    C28   1.356216 A    
C115  H67   1.112454 S    
C83   C84   1.395340 A    
C44   C48   1.417201 A    
O10   C5    1.273329 A    
C66   C75   1.440461 S    
C99   H20   1.113802 S    
C76   C94   1.478199 S    
C49   C50   1.413520 A    
N13   O27   1.301256 A    
O70   C114  1.411410 S    
O20   Cr4   2.031873 S    
C31   N15   1.435597 S    
C102  H29   1.113601 S    
C84   C90   1.418998 A    
C92   O18   1.268943 A    
C88   C89   1.200865 T    
O8    C4    1.276047 A    
O50   C104  1.410507 S    
C85   C86   1.407403 A    
C8    C9    1.401430 A    
C113  H61   1.111103 S    
