data_mof_unit_55906.cif
_audit_creation_date              2012-12-10T18:59:16-0500
_audit_creation_method            fapswitch 2.2
_symmetry_space_group_name_H-M    P1
_symmetry_Int_Tables_number       1
_space_group_crystal_system       triclinic
_cell_length_a                    10.863911
_cell_length_b                    10.826587
_cell_length_c                    9.515569
_cell_angle_alpha                 90.45429
_cell_angle_beta                  89.68744
_cell_angle_gamma                 90.712793
_cell_volume                      1119.07460445

loop_
_atom_site_label
_atom_site_type_symbol
_atom_type_description
_atom_site_fract_x
_atom_site_fract_y
_atom_site_fract_z
_atom_type_partial_charge
C1    C     C_R   0.497017 0.262361 0.499307 0.815645
C2    C     C_R   0.060596 0.509296 0.635179 0.112817
C3    C     C_R   0.127407 0.514547 0.506117 -0.120643
C4    C     C_R   0.063883 0.508750 0.378480 -0.208725
C5    C     C_R   0.937081 0.496854 0.377308 -0.210149
C6    C     C_R   0.871767 0.479844 0.502993 -0.122908
C7    C     C_R   0.437181 0.064433 0.609823 0.154294
C8    C     C_R   0.484828 0.129448 0.495486 -0.146922
C9    C     C_R   0.514533 0.063723 0.372269 -0.215086
C10   C     C_R   0.515537 0.935135 0.373455 -0.206106
C11   C     C_R   0.486592 0.870957 0.497632 -0.108548
C12   C     C_R   0.262143 0.508231 0.501418 0.804913
C13   C     C_R   0.437866 0.937315 0.611188 -0.009037
C14   C     C_3   0.461316 0.933943 0.766130 -0.167320
C15   C     C_3   0.459811 0.075777 0.763787 0.196411
C16   C     C_R   0.604917 0.528820 0.073420 0.259590
C17   C     C_R   0.401774 0.455570 0.074635 -0.103187
C18   C     C_R   0.402129 0.454900 0.925670 -0.102745
C19   C     C_R   0.604599 0.529626 0.925968 0.256539
C20   C     C_3   0.675586 0.648129 0.921571 -0.506480
C21   C     C_3   0.677814 0.646071 0.081095 -0.507348
C22   C     C_R   0.497638 0.737832 0.500239 0.807673
C23   C     C_R   0.737469 0.489910 0.500278 0.796253
C24   C     C_R   0.111720 0.540397 0.767818 -0.169853
C25   C     C_R   0.052003 0.506775 0.892054 -0.158805
C26   C     C_R   0.940495 0.442893 0.886245 -0.153847
C27   C     C_R   0.882460 0.425065 0.757232 -0.167050
C28   C     C_R   0.936560 0.470434 0.631629 0.102120
Cu1   Cu    Cu3+1 0.499990 0.499980 0.640670 0.936492
Cu2   Cu    Cu3+1 0.500010 0.500020 0.359330 0.935861
H1    H     H_    0.112060 0.514831 0.278731 0.154718
H2    H     H_    0.554151 0.898215 0.789232 0.120645
H3    H     H_    0.549894 0.121046 0.788980 0.071950
H4    H     H_    0.321497 0.421270 0.130148 0.147529
H5    H     H_    0.322921 0.418641 0.870358 0.176859
H6    H     H_    0.768020 0.638063 0.873003 0.215479
H7    H     H_    0.620642 0.724114 0.878790 0.205441
H8    H     H_    0.771484 0.631783 0.123692 0.191128
H9    H     H_    0.626585 0.722568 0.131521 0.204513
H10   H     H_    0.195615 0.593970 0.778047 0.148620
H11   H     H_    0.093643 0.528025 0.992639 0.122732
H12   H     H_    0.896614 0.411241 0.982073 0.129153
H13   H     H_    0.796413 0.373949 0.757368 0.151275
H14   H     H_    0.890326 0.500329 0.277288 0.152756
H15   H     H_    0.544412 0.111046 0.277928 0.159883
H16   H     H_    0.545958 0.886938 0.279767 0.152050
N1    N     N_R   0.500790 0.500930 0.147930 -0.179525
N2    N     N_R   0.500790 0.500890 0.852020 -0.189315
O1    O     O_R   0.500000 0.319640 0.618810 -0.572762
O2    O     O_R   0.500010 0.319680 0.381230 -0.584413
O3    O     O_R   0.319640 0.499980 0.618820 -0.595241
O4    O     O_R   0.319650 0.500020 0.381230 -0.588959
O5    O     O_R   0.499990 0.680320 0.618770 -0.589385
O6    O     O_R   0.500000 0.680360 0.381190 -0.582125
O7    O     O_R   0.680350 0.499980 0.618770 -0.591281
O8    O     O_R   0.680360 0.500020 0.381180 -0.582588
O9    O     O_3   0.358064 0.128256 0.831986 -0.711499
H17   H     H_    0.389128 0.162271 0.922366 0.313462
C29   C     C_3   0.355921 0.868322 0.846499 -0.290347
C30   C     C_3   0.377557 0.871089 0.005582 -0.353261
C31   C     C_3   0.280100 0.794719 0.083240 -0.824404
H18   H     H_    0.187165 0.832914 0.065082 0.249444
H19   H     H_    0.281639 0.697120 0.046615 0.246280
H20   H     H_    0.299125 0.797136 0.197788 0.256534
H21   H     H_    0.469369 0.833011 0.028616 0.204887
H22   H     H_    0.375373 0.967566 0.045832 0.234110
H23   H     H_    0.265671 0.910393 0.822164 0.232741
H24   H     H_    0.351660 0.770431 0.810758 0.199068

loop_
_geom_bond_atom_site_label_1
_geom_bond_atom_site_label_2
_ccdc_geom_bond_type
C15   O9    S    
C31   H20   S    
C17   H4    S    
C9    H15   S    
C16   C21   S    
C20   H7    S    
C29   H24   S    
C1    C8    S    
Cu2   O6    S    
C9    C10   A    
Cu2   N1    S    
C11   C22   S    
C19   C20   S    
C21   H9    S    
C7    C13   A    
C29   H23   S    
Cu2   O8    S    
C7    C15   S    
C17   C18   A    
O9    H17   S    
C30   H22   S    
C29   C30   S    
C22   O6    A    
Cu1   O1    S    
C13   C14   S    
C24   C25   A    
C23   O7    A    
C14   C29   S    
C11   C13   A    
C26   C27   A    
Cu1   Cu2   S    
Cu1   O5    S    
C16   C19   A    
C5    C6    A    
C6    C23   S    
C16   N1    A    
C12   O4    A    
C5    H14   S    
Cu1   O3    S    
C30   H21   S    
C2    C3    A    
C22   O5    A    
C2    C24   A    
C31   H18   S    
Cu2   O2    S    
C4    H1    S    
C7    C8    A    
C10   C11   A    
Cu1   N2    S    
C3    C4    A    
C20   H6    S    
C27   H13   S    
C10   H16   S    
C23   O8    A    
C12   O3    A    
C20   C21   S    
C26   H12   S    
C18   H5    S    
C1    O2    A    
C25   H11   S    
C27   C28   A    
C31   H19   S    
Cu2   O4    S    
C14   C15   S    
C30   C31   S    
C2    C28   A    
C3    C12   S    
Cu1   O7    S    
C24   H10   S    
C25   C26   A    
C19   N2    A    
C4    C5    A    
C1    O1    A    
C15   H3    S    
C6    C28   A    
C21   H8    S    
C17   N1    A    
C14   H2    S    
C8    C9    A    
C18   N2    A    
