data_mof_unit_16215.cif
_audit_creation_date              2012-12-10T17:03:58-0500
_audit_creation_method            fapswitch 2.2
_symmetry_space_group_name_H-M    P1
_symmetry_Int_Tables_number       1
_space_group_crystal_system       triclinic
_cell_length_a                    9.797567
_cell_length_b                    11.031224
_cell_length_c                    15.83459
_cell_angle_alpha                 94.748694
_cell_angle_beta                  79.030427
_cell_angle_gamma                 111.398782
_cell_volume                      1564.13079922

loop_
_atom_site_label
_atom_site_type_symbol
_atom_type_description
_atom_site_fract_x
_atom_site_fract_y
_atom_site_fract_z
_atom_type_partial_charge
C1    C     C_R   0.556412 0.745534 0.505969 0.868362
C2    C     C_R   0.443912 0.254520 0.493528 0.869449
C3    C     C_R   0.326021 0.387838 0.069597 -0.301939
C4    C     C_R   0.681424 0.552772 0.922954 -0.281555
C5    C     C_R   0.220610 0.357116 0.015308 0.413303
C6    C     C_R   0.785346 0.585295 0.977827 0.422162
C7    C     C_2   0.588679 0.884917 0.508654 -0.359113
C8    C     C_2   0.412472 0.115267 0.489599 -0.357383
C9    C     C_2   0.485502 0.930679 0.496689 -0.151653
C10   C     C_2   0.516927 0.069712 0.499498 -0.153281
C11   C     C_2   0.922634 0.489159 0.493129 -0.080570
C12   C     C_2   0.076639 0.509615 0.507656 -0.074804
C13   C     C_R   0.410867 0.485674 0.662808 0.796758
C14   C     C_R   0.588949 0.513272 0.337120 0.796003
C15   C     C_R   0.355875 0.465655 0.755478 -0.055705
C16   C     C_R   0.642797 0.522830 0.243799 -0.053712
C17   C     C_R   0.161344 0.364427 0.873893 -0.137438
C18   C     C_R   0.841888 0.587876 0.121638 -0.212595
C19   C     C_R   0.206023 0.397672 0.787405 -0.207136
C20   C     C_R   0.794759 0.570391 0.209899 -0.218030
C21   C     C_R   0.459270 0.504494 0.811362 -0.211841
C22   C     C_R   0.538864 0.487393 0.188213 -0.220804
C23   C     C_R   0.419125 0.466497 0.897947 0.048614
C24   C     C_R   0.583300 0.500081 0.098556 0.057963
C25   C     C_R   0.266447 0.396238 0.929433 0.070458
C26   C     C_R   0.737649 0.557449 0.065716 0.049679
C27   C     C_R   0.526529 0.495462 0.953382 -0.005461
C28   C     C_R   0.477809 0.462240 0.041557 -0.000136
Cu1   Cu    Cu3+1 0.362980 0.479380 0.485080 0.934786
Cu2   Cu    Cu3+1 0.637020 0.520620 0.514920 0.935560
H1    H     H_    0.422922 0.455210 0.216831 0.149613
H2    H     H_    0.571224 0.564175 0.784883 0.142756
H3    H     H_    0.877094 0.597539 0.251703 0.157712
H4    H     H_    0.124221 0.366992 0.745156 0.157073
H5    H     H_    0.044486 0.311053 0.896623 0.177960
H6    H     H_    0.960363 0.627450 0.097600 0.161197
H7    H     H_    0.286273 0.346099 0.132669 0.149565
H8    H     H_    0.727643 0.571512 0.855995 0.157209
H9    H     H_    0.626387 0.135149 0.510214 0.180211
H10   H     H_    0.376573 0.865328 0.485062 0.180580
H11   H     H_    0.303268 0.049564 0.478786 0.148676
H12   H     H_    0.697358 0.950527 0.520381 0.149242
H13   H     H_    0.122203 0.577842 0.557432 0.160494
H14   H     H_    0.876287 0.419741 0.444180 0.161864
H15   H     H_    0.111282 0.384271 0.415700 0.192390
H16   H     H_    0.889402 0.616986 0.583543 0.189977
N1    N     N_2   0.842890 0.551600 0.537350 -0.284390
N2    N     N_2   0.157110 0.448400 0.462650 -0.287759
O1    O     O_R   0.426810 0.668300 0.492040 -0.576339
O2    O     O_R   0.573190 0.331700 0.507960 -0.574460
O3    O     O_R   0.658240 0.703130 0.517240 -0.575079
O4    O     O_R   0.341760 0.296870 0.482760 -0.575057
O5    O     O_R   0.319390 0.472820 0.610170 -0.578928
O6    O     O_R   0.680610 0.527180 0.389830 -0.577982
O7    O     O_R   0.550820 0.507640 0.635370 -0.575326
O8    O     O_R   0.449180 0.492360 0.364630 -0.578893
O9    O     O_3   0.074976 0.275637 0.043020 -0.632057
C29   C     C_3   0.003179 0.332378 0.112461 0.053917
H17   H     H_    0.906931 0.344140 0.091331 0.179684
H18   H     H_    0.073774 0.430993 0.133283 0.126256
C30   C     C_3   0.945085 0.240411 0.189009 -0.334121
H19   H     H_    0.872254 0.143182 0.168596 0.229974
H20   H     H_    0.040228 0.228604 0.211419 0.206822
C31   C     C_3   0.856673 0.292043 0.263554 -0.922768
H21   H     H_    0.926991 0.389777 0.284529 0.245468
H22   H     H_    0.819771 0.224941 0.318721 0.250227
H23   H     H_    0.756675 0.298515 0.243865 0.267350
O10   O     O_3   0.935127 0.640486 0.943352 -0.618280
C32   C     C_3   0.984122 0.777642 0.955036 0.048682
H24   H     H_    0.101741 0.811342 0.964684 0.168444
H25   H     H_    0.921616 0.810223 0.013393 0.131756
C33   C     C_3   0.977907 0.843227 0.874962 -0.370208
H26   H     H_    0.041395 0.811102 0.817366 0.228990
H27   H     H_    0.860511 0.814163 0.865783 0.210034
C34   C     C_3   0.043463 0.991450 0.883334 -0.868650
H28   H     H_    0.980060 0.025875 0.939813 0.276120
H29   H     H_    0.037053 0.036159 0.824589 0.250070
H30   H     H_    0.162041 0.023825 0.890852 0.260044

loop_
_geom_bond_atom_site_label_1
_geom_bond_atom_site_label_2
_ccdc_geom_bond_type
C14   O8    A    
Cu2   O3    S    
C32   C33   S    
C11   N1    D    
C18   C26   A    
C12   N2    D    
Cu1   O1    S    
C15   C19   A    
Cu2   O6    S    
C3    C28   A    
C24   C26   A    
C12   H13   S    
C29   H18   S    
C30   H20   S    
C7    H12   S    
C32   H25   S    
C2    O2    A    
O10   C32   S    
C1    O1    A    
C14   C16   S    
C23   C27   A    
C9    C10   S    
C29   C30   S    
C6    O10   S    
Cu2   O2    S    
C30   H19   S    
C33   C34   S    
C13   O5    A    
C21   H2    S    
C22   H1    S    
Cu1   N2    S    
C31   H23   S    
Cu2   N1    S    
C8    H11   S    
C33   H27   S    
C29   H17   S    
C9    H10   S    
C10   H9    S    
C31   H22   S    
C30   C31   S    
C34   H28   S    
Cu1   Cu2   S    
C1    O3    A    
C16   C20   A    
C11   H14   S    
C34   H29   S    
C2    O4    A    
C5    C25   A    
C20   H3    S    
C4    C6    A    
C14   O6    A    
C4    H8    S    
C13   C15   S    
C22   C24   A    
C4    C27   A    
H15   N2    S    
C7    C9    D    
H16   N1    S    
C16   C22   A    
C1    C7    S    
C2    C8    S    
C24   C28   A    
C33   H26   S    
C3    C5    A    
C19   H4    S    
C11   C12   S    
Cu1   O8    S    
Cu2   O7    S    
C5    O9    S    
C17   C25   A    
C31   H21   S    
C21   C23   A    
O9    C29   S    
C6    C26   A    
Cu1   O5    S    
C17   C19   A    
C18   C20   A    
C23   C25   A    
C32   H24   S    
C34   H30   S    
C15   C21   A    
C3    H7    S    
C8    C10   D    
C27   C28   A    
C17   H5    S    
C18   H6    S    
C13   O7    A    
Cu1   O4    S    
