data_mof_unit_21228.cif
_audit_creation_date              2012-10-26T19:08:27-0400
_audit_creation_method            fapswitch 2.2
_symmetry_space_group_name_H-M    P1
_symmetry_Int_Tables_number       1
_space_group_crystal_system       triclinic
_cell_length_a                    14.681235
_cell_length_b                    14.732764
_cell_length_c                    19.36546
_cell_angle_alpha                 75.40879
_cell_angle_beta                  102.265439
_cell_angle_gamma                 114.993614
_cell_volume                      3647.03876166

loop_
_atom_site_label
_atom_site_type_symbol
_atom_type_description
_atom_site_fract_x
_atom_site_fract_y
_atom_site_fract_z
_atom_type_partial_charge
C1    C     C_R   0.881070 0.311907 0.507675 0.524427
C2    C     C_R   0.294439 0.824866 0.498269 0.240401
C3    C     C_R   0.641221 0.077195 0.497635 0.044353
C4    C     C_R   0.362089 0.926934 0.480666 -0.075659
C5    C     C_R   0.672384 0.010887 0.555199 -0.056996
C6    C     C_R   0.326957 0.994148 0.428715 -0.016343
C7    C     C_R   0.536691 0.045327 0.469398 0.073522
C8    C     C_R   0.465153 0.962071 0.509924 -0.071555
C9    C     C_R   0.497865 0.916907 0.579142 0.224694
C10   C     C_R   0.500737 0.088781 0.400617 0.307559
C11   C     C_R   0.600104 0.933077 0.598280 0.103403
C12   C     C_R   0.120030 0.688791 0.489645 0.624093
C13   C     C_R   0.397146 0.074843 0.385311 0.063039
C14   C     C_R   0.697766 0.632441 0.356736 0.203450
C15   C     C_R   0.299871 0.351603 0.632525 0.281578
C16   C     C_R   0.000160 0.500684 0.632284 0.605590
C17   C     C_R   0.000652 0.500011 0.367888 0.551110
C18   C     C_R   0.790829 0.624188 0.389336 0.361609
C19   C     C_R   0.214246 0.376197 0.611132 0.344078
C20   C     C_R   0.715757 0.516996 0.492893 0.367499
C21   C     C_R   0.282143 0.484006 0.504766 0.384821
C22   C     C_R   0.617489 0.516494 0.461324 -0.073095
C23   C     C_R   0.815754 0.202261 0.508197 -0.058666
C24   C     C_R   0.362733 0.447748 0.517970 -0.050658
C25   C     C_R   0.608956 0.575000 0.391642 -0.015953
C26   C     C_R   0.368460 0.377831 0.582741 -0.021040
C27   C     C_R   0.527922 0.459522 0.496903 -0.059801
C28   C     C_R   0.439244 0.480083 0.470833 -0.028517
C29   C     C_R   0.425685 0.519100 0.396287 0.000847
C30   C     C_R   0.517700 0.371515 0.550343 -0.047466
C31   C     C_R   0.510860 0.569635 0.357361 0.057177
C32   C     C_R   0.440733 0.333080 0.595299 0.053142
C33   C     C_R   0.094442 0.546806 0.750663 0.037871
C34   C     C_R   0.189055 0.799081 0.481379 0.004328
C35   C     C_R   0.012419 0.584668 0.239037 0.019905
C36   C     C_R   0.096918 0.536214 0.824991 0.218575
C37   C     C_R   0.018085 0.582164 0.167556 0.219025
C38   C     C_R   0.005431 0.489218 0.856714 -0.042610
C39   C     C_R   0.014028 0.492838 0.150329 -0.004494
C40   C     C_R   0.911894 0.446668 0.814013 0.020531
C41   C     C_R   0.007133 0.406468 0.204937 0.047446
C42   C     C_R   0.910681 0.451430 0.739823 0.206234
C43   C     C_R   0.996616 0.407031 0.275311 0.182827
C44   C     C_R   0.001599 0.501710 0.708489 -0.020169
C45   C     C_R   0.775453 0.025799 0.568448 0.240322
C46   C     C_R   0.001565 0.496954 0.292756 -0.043004
C47   C     C_R   0.014089 0.490377 0.074268 0.408649
C48   C     C_R   0.008421 0.488841 0.933640 0.345145
C49   C     C_2   0.190266 0.607002 0.717654 0.676139
C50   C     C_2   0.018205 0.679157 0.257301 0.617142
C51   C     C_2   0.493923 0.607158 0.279146 0.691195
C52   C     C_2   0.428334 0.237574 0.648658 0.670754
C53   C     C_2   0.321389 0.485161 0.356556 0.619357
C54   C     C_2   0.563699 0.302357 0.542750 0.627989
C55   C     C_2   0.815545 0.397228 0.846470 0.597124
C56   C     C_R   0.223737 0.977125 0.423148 0.247828
C57   C     C_2   0.015570 0.316183 0.190136 0.655631
C58   C     C_2   0.629526 0.877873 0.669122 0.718670
C59   C     C_2   0.364093 0.137514 0.320248 0.632160
C60   C     C_2   0.046229 0.862339 0.449356 0.592520
C61   C     C_2   0.958033 0.142120 0.563852 0.578245
C62   C     C_R   0.848920 0.123448 0.545807 0.021973
C63   C     C_R   0.153899 0.879251 0.451905 -0.018027
C64   C     C_R   0.714721 0.175358 0.475132 0.287062
Cu1   Cu    Cu3+1 0.081740 0.475680 0.518680 1.138797
Cu2   Cu    Cu3+1 0.918260 0.524320 0.481320 1.179522
H1    H     H_    0.338800 0.637813 0.722321 0.383013
H2    H     H_    0.270173 0.297554 0.732711 0.396024
H3    H     H_    0.185682 0.369560 0.343740 0.384496
H4    H     H_    0.493924 0.291188 0.441595 0.336776
H5    H     H_    0.187870 0.530807 0.913447 0.354952
H6    H     H_    0.065636 0.728859 0.132784 0.367734
H7    H     H_    0.689893 0.270467 0.866340 0.375886
H8    H     H_    0.089165 0.262924 0.143790 0.372366
H9    H     H_    0.762962 0.397011 0.717328 0.373404
H10   H     H_    0.950747 0.318254 0.365697 0.334492
H11   H     H_    0.600544 0.744518 0.739003 0.361787
H12   H     H_    0.085424 0.785153 0.320591 0.362342
H13   H     H_    0.391296 0.277072 0.259046 0.371318
H14   H     H_    0.395607 0.767820 0.509981 0.334086
H15   H     H_    0.740303 0.289755 0.396318 0.334932
H16   H     H_    0.923197 0.884382 0.391851 0.356571
H17   H     H_    0.093884 0.193679 0.528190 0.353405
H18   H     H_    0.866539 0.954100 0.588245 0.365514
H19   H     H_    0.138561 0.050859 0.418341 0.368810
H20   H     H_    0.375886 0.883614 0.620890 0.359857
H21   H     H_    0.524656 0.136539 0.299489 0.350851
H22   H     H_    0.461826 0.712290 0.200538 0.369019
H23   H     H_    0.337967 0.091825 0.683367 0.366017
H24   H     H_    0.354290 0.615425 0.449528 0.313291
H25   H     H_    0.694665 0.495233 0.591488 0.321120
H26   H     H_    0.076122 0.318763 0.630072 0.381520
H27   H     H_    0.874203 0.741231 0.325421 0.357274
H28   H     H_    0.733075 0.687464 0.259889 0.363623
N1    N     N_R   0.952753 0.404218 0.977416 -0.158178
N2    N     N_R   0.070417 0.574557 0.030526 -0.107936
N3    N     N_R   0.954843 0.405277 0.046247 -0.173364
N4    N     N_R   0.067255 0.574006 0.961528 -0.155503
N5    N     N_R   0.795420 0.560800 0.453240 -0.190997
N6    N     N_R   0.204580 0.439200 0.546760 -0.230338
O1    O     O_R   0.977910 0.338110 0.524620 -0.530526
O2    O     O_R   0.278964 0.592447 0.749965 -0.586289
O3    O     O_2   0.963290 0.722001 0.221858 -0.455068
O4    O     O_R   0.087483 0.719818 0.314315 -0.665533
O5    O     O_2   0.499585 0.561930 0.236268 -0.448571
O6    O     O_R   0.471886 0.694223 0.254922 -0.608144
O7    O     O_2   0.496910 0.234133 0.696409 -0.423333
O8    O     O_R   0.337578 0.152170 0.644233 -0.646808
O9    O     O_3   0.282867 0.568194 0.453630 -0.599157
O10   O     O_3   0.735462 0.480306 0.564520 -0.586427
O11   O     O_3   0.143134 0.338027 0.658218 -0.655771
O12   O     O_R   0.022090 0.661890 0.475380 -0.453585
O13   O     O_3   0.879169 0.679849 0.358451 -0.627080
O14   O     O_3   0.693144 0.695941 0.291359 -0.653374
O15   O     O_3   0.318065 0.302020 0.701739 -0.625706
O16   O     O_2   0.294626 0.544458 0.309043 -0.447252
O17   O     O_R   0.253587 0.384331 0.374507 -0.649218
O18   O     O_2   0.617671 0.274010 0.592778 -0.367234
O19   O     O_R   0.542509 0.266507 0.478658 -0.615810
O20   O     O_3   0.190170 0.574313 0.865124 -0.595184
O21   O     O_3   0.026645 0.665602 0.113004 -0.608927
O22   O     O_2   0.790435 0.445566 0.876279 -0.448606
O23   O     O_R   0.839850 0.379180 0.493080 -0.443895
O24   O     O_R   0.753586 0.295504 0.842589 -0.619357
O25   O     O_2   0.958005 0.230146 0.213671 -0.392274
O26   O     O_R   0.090706 0.329840 0.150087 -0.662509
O27   O     O_3   0.822707 0.406176 0.696350 -0.588715
O28   O     O_3   0.983996 0.318870 0.326093 -0.627317
O29   O     O_2   0.699870 0.923986 0.710381 -0.408874
O30   O     O_R   0.574264 0.773448 0.689421 -0.628367
O31   O     O_2   0.289805 0.097334 0.279158 -0.422378
O32   O     O_R   0.420586 0.242422 0.304857 -0.655271
O33   O     O_3   0.330549 0.748906 0.528190 -0.595659
O34   O     O_R   0.160150 0.620820 0.506920 -0.384864
O35   O     O_3   0.685808 0.248039 0.427489 -0.553910
O36   O     O_2   0.003506 0.820922 0.503431 -0.471091
O37   O     O_R   0.994961 0.897422 0.386029 -0.649916
O38   O     O_2   0.992016 0.118119 0.625852 -0.442396
O39   O     O_R   0.021255 0.184884 0.509421 -0.652653
O40   O     O_3   0.800878 0.943334 0.601661 -0.628366
O41   O     O_3   0.195527 0.058756 0.394616 -0.600808
O42   O     O_3   0.432415 0.860434 0.630422 -0.602871
O43   O     O_3   0.564500 0.132637 0.347454 -0.624377
O44   O     O_R   0.069040 0.479450 0.615630 -0.505827
O45   O     O_R   0.930960 0.520550 0.384370 -0.475452
O46   O     O_R   0.930990 0.520520 0.584090 -0.402148
O47   O     O_R   0.069010 0.479480 0.415910 -0.441154
O48   O     O_2   0.191704 0.670043 0.662553 -0.491410

loop_
_geom_bond_atom_site_label_1
_geom_bond_atom_site_label_2
_ccdc_geom_bond_type
C25   C31   A    
C7    C10   A    
C38   C40   A    
C26   C32   A    
C48   N1    A    
H6    O21   S    
C14   C18   A    
C2    C4    A    
Cu1   O1    S    
C4    C8    A    
H17   O39   S    
H28   O14   S    
C7    C8    A    
C39   C41   A    
C3    C64   A    
C15   C19   A    
C30   C54   S    
C59   O31   D    
H5    O20   S    
C60   C63   S    
H25   O10   S    
C28   C29   A    
C17   O47   A    
C24   C26   A    
C5    C11   A    
H16   O37   S    
C3    C7    A    
C57   O25   D    
C53   O17   S    
C61   O38   D    
C58   O29   D    
C33   C49   S    
C45   C62   A    
C33   C36   A    
C16   O46   A    
C32   C52   S    
Cu2   O45   S    
C23   C62   A    
C52   O7    D    
C8    C9    A    
C22   C25   A    
N2    N4    A    
C47   N2    A    
C49   O2    S    
H7    O24   S    
Cu1   O47   S    
C11   C58   S    
C16   C44   S    
C38   C48   S    
Cu1   O34   S    
C53   O16   D    
C60   O37   S    
C10   O43   S    
C2    C34   A    
C40   C42   A    
C64   O35   S    
C50   O3    D    
C12   O34   A    
C54   O19   S    
C27   C30   A    
C41   C43   A    
C42   C44   A    
C37   O21   S    
C18   O13   S    
H15   O35   S    
C59   O32   S    
C2    O33   S    
H12   O4    S    
C17   C46   S    
C4    C6    A    
C16   O44   A    
H19   O41   S    
C57   O26   S    
Cu1   O44   S    
C61   O39   S    
C15   C26   A    
C14   O14   S    
C5    C45   A    
C45   O40   S    
C55   O22   D    
H14   O33   S    
C49   O48   D    
Cu2   N5    S    
C17   O45   A    
C1    O23   A    
C31   C51   S    
H22   O6    S    
H4    O19   S    
C51   O5    D    
C40   C55   S    
C35   C50   S    
C56   C63   A    
H27   O13   S    
C9    C11   A    
H18   O40   S    
C42   O27   S    
C20   O10   S    
C56   O41   S    
C23   C64   A    
C20   C22   A    
C1    C23   S    
C22   C27   A    
C54   O18   D    
H10   O28   S    
C15   O15   S    
C18   N5    A    
C12   C34   S    
C1    O1    A    
C12   O12   A    
H20   O42   S    
C39   C47   S    
C21   N6    A    
C60   O36   D    
C55   O24   S    
C35   C37   A    
C33   C44   A    
C24   C28   A    
Cu1   N6    S    
C6    C56   A    
C3    C5    A    
C10   C13   A    
C43   O28   S    
C21   O9    S    
C9    O42   S    
N1    N3    A    
H26   O11   S    
C13   C59   S    
C19   O11   S    
C48   N4    A    
C47   N3    A    
H21   O43   S    
C36   C38   A    
C41   C57   S    
C37   C39   A    
C19   N6    A    
C30   C32   A    
H8    O26   S    
C20   N5    A    
C29   C53   S    
C58   O30   S    
C51   O6    S    
H13   O32   S    
H23   O8    S    
H3    O17   S    
C34   C63   A    
H9    O27   S    
H11   O30   S    
C14   C25   A    
C61   C62   S    
C36   O20   S    
C43   C46   A    
Cu2   O46   S    
H2    O15   S    
C52   O8    S    
C29   C31   A    
Cu1   Cu2   S    
C21   C24   A    
C27   C28   A    
Cu2   O23   S    
H24   O9    S    
Cu2   O12   S    
C35   C46   A    
C50   O4    S    
H1    O2    S    
C6    C13   A    
