data_mof_unit_59601.cif
_audit_creation_date              2012-12-10T20:38:20-0500
_audit_creation_method            fapswitch 2.2
_symmetry_space_group_name_H-M    P1
_symmetry_Int_Tables_number       1
_space_group_crystal_system       triclinic
_cell_length_a                    9.844213
_cell_length_b                    10.672796
_cell_length_c                    16.683871
_cell_angle_alpha                 90.004809
_cell_angle_beta                  84.822415
_cell_angle_gamma                 90.063847
_cell_volume                      1745.74224541

loop_
_atom_site_label
_atom_site_type_symbol
_atom_type_description
_atom_site_fract_x
_atom_site_fract_y
_atom_site_fract_z
_atom_type_partial_charge
C1    C     C_R   0.499585 0.740126 0.502765 0.888980
C2    C     C_R   0.346826 0.463838 0.785416 -0.195021
C3    C     C_R   0.426637 0.450080 0.136866 -0.178054
C4    C     C_R   0.418910 0.486650 0.216625 -0.185920
C5    C     C_R   0.655812 0.428264 0.222689 -0.260935
C6    C     C_R   0.664408 0.389421 0.142587 0.407232
C7    C     C_R   0.547845 0.398890 0.099582 0.032649
C8    C     C_2   0.447270 0.330474 0.977439 -0.251205
C9    C     C_2   0.555738 0.369653 0.013662 -0.124950
C10   C     C_R   0.532816 0.474780 0.260149 -0.118285
C11   C     C_R   0.374004 0.935894 0.517828 0.123836
C12   C     C_R   0.480786 0.493143 0.653224 0.857672
C13   C     C_R   0.497025 0.871367 0.516454 -0.106483
C14   C     C_R   0.616828 0.935344 0.531145 -0.217456
C15   C     C_R   0.616763 0.064917 0.531135 -0.219167
C16   C     C_R   0.496913 0.128581 0.516393 -0.102127
C17   C     C_R   0.373932 0.063712 0.517805 0.142973
C18   C     C_3   0.263158 0.070550 0.462247 -0.484708
C19   C     C_3   0.263299 0.928498 0.462249 -0.466810
C20   C     C_R   0.923862 0.597988 0.532792 0.216601
C21   C     C_R   0.933838 0.409497 0.460810 -0.125797
C22   C     C_R   0.077979 0.409550 0.460752 -0.121139
C23   C     C_R   0.499543 0.259842 0.502690 0.882052
C24   C     C_R   0.066529 0.597980 0.532752 0.212786
C25   C     C_3   0.059595 0.641008 0.617983 -0.509444
C26   C     C_3   0.905273 0.640927 0.618110 -0.500046
C27   C     C_R   0.519438 0.497548 0.346461 0.895998
C28   C     C_R   0.469012 0.449987 0.736202 -0.035034
C29   C     C_R   0.576214 0.379556 0.763126 -0.204857
C30   C     C_R   0.564097 0.328630 0.839650 -0.143789
C31   C     C_R   0.446161 0.350668 0.891083 0.179289
C32   C     C_R   0.335629 0.414426 0.862965 -0.134272
H1    H     H_    0.669269 0.362771 0.724840 0.159041
H2    H     H_    0.711949 0.886495 0.536631 0.166785
H3    H     H_    0.711848 0.114025 0.536662 0.170120
H4    H     H_    0.167717 0.111262 0.492088 0.202537
H5    H     H_    0.298147 0.111989 0.402756 0.207751
H6    H     H_    0.167948 0.887288 0.492012 0.201071
H7    H     H_    0.298489 0.887211 0.402767 0.209900
H8    H     H_    0.883912 0.335229 0.430471 0.155488
H9    H     H_    0.137013 0.335507 0.430222 0.151731
H10   H     H_    0.097973 0.569575 0.658820 0.217347
H11   H     H_    0.323427 0.523417 0.244368 0.175682
H12   H     H_    0.103432 0.736344 0.623385 0.201305
H13   H     H_    0.854503 0.569503 0.659116 0.222904
H14   H     H_    0.860052 0.736246 0.623675 0.197315
H15   H     H_    0.743944 0.418496 0.256600 0.200348
H16   H     H_    0.649006 0.396207 0.977977 0.210259
H17   H     H_    0.244134 0.432148 0.902447 0.160572
H18   H     H_    0.337879 0.464429 0.104130 0.172492
H19   H     H_    0.261737 0.514888 0.764609 0.148368
H20   H     H_    0.351897 0.307545 0.012260 0.180604
H21   H     H_    0.649221 0.277029 0.860059 0.165592
N1    N     N_R   0.857140 0.500860 0.500530 -0.108761
N2    N     N_R   0.142780 0.500820 0.500530 -0.106763
O1    O     O_R   0.385310 0.683210 0.499990 -0.615387
O2    O     O_R   0.614650 0.683240 0.500000 -0.616927
O3    O     O_R   0.371780 0.500000 0.615800 -0.615909
O4    O     O_R   0.601120 0.500040 0.615800 -0.622628
O5    O     O_R   0.385350 0.316760 0.500000 -0.618636
O6    O     O_R   0.614690 0.316790 0.500010 -0.629520
O7    O     O_R   0.398880 0.499960 0.384200 -0.615867
O8    O     O_R   0.628220 0.500000 0.384200 -0.611290
Zn1   Zn    Zn3+2 0.346870 0.499980 0.499990 0.948405
Zn2   Zn    Zn3+2 0.653130 0.500020 0.500010 0.946855
S1    S     S_3+6 0.820549 0.326750 0.098784 0.006064
O9    O     O_2   0.889883 0.423039 0.043505 -0.283395
O10   O     O_2   0.913182 0.293602 0.162450 -0.306704
O11   O     O_3   0.791039 0.197842 0.045006 -0.533739
H22   H     H_    0.738863 0.141216 0.083493 0.352420

loop_
_geom_bond_atom_site_label_1
_geom_bond_atom_site_label_2
_ccdc_geom_bond_type
C10   C27   S    
C14   H2    S    
S1    O10   D    
O1    Zn1   S    
C22   N2    A    
C19   H6    S    
O6    Zn2   S    
C16   C23   S    
C5    H15   S    
C8    H20   S    
O7    Zn1   S    
C31   C32   A    
C6    S1    S    
C30   C31   A    
O5    Zn1   S    
C12   O3    A    
N2    Zn1   S    
O8    Zn2   S    
C17   C18   S    
C5    C10   A    
N1    Zn2   S    
C21   C22   A    
O4    Zn2   S    
C24   N2    A    
C2    C32   A    
C23   O5    A    
C11   C13   A    
C11   C19   S    
C29   C30   A    
C21   H8    S    
C27   O8    A    
C12   C28   S    
C5    C6    A    
C19   H7    S    
C25   H12   S    
C15   H3    S    
C28   C29   A    
C27   O7    A    
C4    H11   S    
S1    O9    D    
C25   H10   S    
C3    C7    A    
O11   H22   S    
C12   O4    A    
O3    Zn1   S    
C21   N1    A    
C30   H21   S    
C32   H17   S    
C22   H9    S    
C1    C13   S    
C2    H19   S    
C26   H14   S    
C4    C10   A    
C15   C16   A    
S1    O11   S    
C29   H1    S    
C3    H18   S    
C23   O6    A    
C24   C25   S    
C9    H16   S    
C20   N1    A    
C18   C19   S    
O2    Zn2   S    
C7    C9    S    
C20   C24   A    
C14   C15   A    
C11   C17   A    
C2    C28   A    
C26   H13   S    
C25   C26   S    
C13   C14   A    
C8    C31   S    
C18   H4    S    
C1    O1    A    
C6    C7    A    
C3    C4    A    
C16   C17   A    
C18   H5    S    
C8    C9    D    
C20   C26   S    
C1    O2    A    
