data_mof_unit_45824.cif
_audit_creation_date              2012-12-10T19:21:56-0500
_audit_creation_method            fapswitch 2.2
_symmetry_space_group_name_H-M    P1
_symmetry_Int_Tables_number       1
_space_group_crystal_system       triclinic
_cell_length_a                    8.732978
_cell_length_b                    17.729665
_cell_length_c                    16.484071
_cell_angle_alpha                 89.25804
_cell_angle_beta                  97.388369
_cell_angle_gamma                 91.062836
_cell_volume                      2530.50454634

loop_
_atom_site_label
_atom_site_type_symbol
_atom_type_description
_atom_site_fract_x
_atom_site_fract_y
_atom_site_fract_z
_atom_type_partial_charge
C1    C     C_R   0.504109 0.355346 0.500876 0.798073
C2    C     C_R   0.495889 0.644654 0.499124 0.798031
C3    C     C_1   0.498313 0.966199 0.499704 -0.055909
C4    C     C_1   0.501757 0.033803 0.500292 -0.055912
C5    C     C_R   0.609518 0.547438 0.834569 -0.076080
C6    C     C_R   0.390560 0.452487 0.165446 -0.076072
C7    C     C_R   0.601993 0.546116 0.747924 -0.047021
C8    C     C_R   0.398066 0.453847 0.252091 -0.047046
C9    C     C_R   0.401926 0.453842 0.739130 0.572290
C10   C     C_R   0.598022 0.546173 0.260857 0.572258
C11   C     C_R   0.403601 0.454196 0.824584 -0.326726
C12   C     C_R   0.596337 0.545805 0.175403 -0.326632
C13   C     C_R   0.506862 0.500779 0.873742 0.030803
C14   C     C_R   0.493148 0.499175 0.126258 0.030787
C15   C     C_1   0.502185 0.500387 0.962981 -0.018374
C16   C     C_1   0.497841 0.499555 0.037022 -0.018394
C17   C     C_R   0.203556 0.499957 0.479342 0.888210
C18   C     C_R   0.796444 0.500043 0.520657 0.888227
C19   C     C_2   0.038359 0.499929 0.467661 -0.350267
C20   C     C_2   0.961641 0.500073 0.532339 -0.350218
C21   C     C_R   0.548029 0.845335 0.569763 -0.157382
C22   C     C_R   0.452007 0.154665 0.430235 -0.157378
C23   C     C_R   0.545456 0.766877 0.569115 -0.208950
C24   C     C_R   0.454557 0.233124 0.430884 -0.208957
C25   C     C_R   0.489108 0.727682 0.497534 -0.062290
C26   C     C_R   0.510893 0.272319 0.502464 -0.062282
C27   C     C_R   0.430964 0.768946 0.425939 0.002435
C28   C     C_R   0.569038 0.231056 0.574059 0.002357
C29   C     C_R   0.435996 0.847933 0.427503 -0.197766
C30   C     C_R   0.564042 0.152070 0.572493 -0.197779
C31   C     C_R   0.494274 0.885678 0.498972 0.134508
C32   C     C_R   0.505781 0.114324 0.501023 0.134504
Cu1   Cu    Cu3+1 0.499990 0.499980 0.580420 0.989009
Cu2   Cu    Cu3+1 0.500010 0.500020 0.419580 0.988986
H1    H     H_    0.979614 0.499730 0.405363 0.196645
H2    H     H_    0.020385 0.500273 0.594637 0.196685
H3    H     H_    0.592994 0.874556 0.625353 0.131219
H4    H     H_    0.407046 0.125444 0.374646 0.131217
H5    H     H_    0.590269 0.736790 0.624488 0.146911
H6    H     H_    0.409735 0.263209 0.375513 0.146885
H7    H     H_    0.392633 0.880065 0.373197 0.130571
H8    H     H_    0.607409 0.119940 0.626800 0.130595
H9    H     H_    0.680354 0.581480 0.717807 0.142826
H10   H     H_    0.319751 0.418470 0.282224 0.142837
H11   H     H_    0.324092 0.417576 0.852626 0.175793
H12   H     H_    0.675800 0.582443 0.147350 0.175842
N1    N     N_R   0.499960 0.499970 0.701210 -0.196577
N2    N     N_R   0.500040 0.500030 0.298790 -0.196597
O1    O     O_R   0.499990 0.391240 0.567930 -0.523531
O2    O     O_R   0.500010 0.608760 0.432070 -0.523534
O3    O     O_R   0.500000 0.391270 0.432120 -0.603021
O4    O     O_R   0.500000 0.608730 0.567880 -0.603005
O5    O     O_R   0.274830 0.499990 0.552240 -0.531831
O6    O     O_R   0.725170 0.500010 0.447760 -0.531856
O7    O     O_R   0.274840 0.500020 0.416420 -0.606036
O8    O     O_R   0.725160 0.499980 0.583580 -0.605999
C33   C     C_R   0.362432 0.731799 0.349380 0.106505
C34   C     C_R   0.232308 0.683753 0.348674 -0.094871
C35   C     C_R   0.174277 0.645290 0.277440 -0.082091
C36   C     C_R   0.244003 0.655457 0.206302 -0.137294
C37   C     C_R   0.370372 0.704858 0.205841 -0.133444
C38   C     C_R   0.429407 0.743077 0.277037 -0.089570
H13   H     H_    0.178293 0.674852 0.403690 0.116660
H14   H     H_    0.076285 0.607043 0.277612 0.162291
H15   H     H_    0.200976 0.624741 0.151678 0.119509
H16   H     H_    0.424124 0.712607 0.150639 0.136164
H17   H     H_    0.529482 0.779976 0.276358 0.140063
C39   C     C_R   0.637511 0.268206 0.650623 0.106485
C40   C     C_R   0.570372 0.256994 0.722924 -0.089498
C41   C     C_R   0.629366 0.295211 0.794126 -0.133387
C42   C     C_R   0.755862 0.344542 0.793713 -0.137287
C43   C     C_R   0.825734 0.354648 0.722615 -0.082258
C44   C     C_R   0.767732 0.316192 0.651373 -0.095004
H18   H     H_    0.470204 0.220149 0.723563 0.140130
H19   H     H_    0.575491 0.287513 0.849294 0.136201
H20   H     H_    0.798872 0.375255 0.848341 0.119484
H21   H     H_    0.923824 0.392841 0.722482 0.162358
H22   H     H_    0.821861 0.325045 0.596387 0.116769
C45   C     C_R   0.725156 0.597499 0.882027 0.120135
C46   C     C_R   0.823745 0.569087 0.949191 -0.137750
C47   C     C_R   0.931127 0.616595 0.994305 -0.142234
C48   C     C_R   0.943124 0.692578 0.972199 -0.103158
C49   C     C_R   0.847354 0.721182 0.904803 -0.131858
C50   C     C_R   0.738821 0.673943 0.859771 -0.159987
H23   H     H_    0.817796 0.510157 0.966638 0.122913
H24   H     H_    0.004825 0.594327 0.046395 0.117107
H25   H     H_    0.026676 0.729221 0.007228 0.124640
H26   H     H_    0.856784 0.780051 0.887614 0.125365
H27   H     H_    0.664432 0.697164 0.808183 0.116290
C51   C     C_R   0.275037 0.402337 0.118020 0.120153
C52   C     C_R   0.176501 0.430625 0.050768 -0.137836
C53   C     C_R   0.069165 0.383038 0.005729 -0.142211
C54   C     C_R   0.057171 0.307099 0.027992 -0.103142
C55   C     C_R   0.152903 0.278615 0.095466 -0.131882
C56   C     C_R   0.261381 0.325933 0.140425 -0.159978
H28   H     H_    0.182426 0.489520 0.033200 0.122961
H29   H     H_    0.995477 0.405214 0.953582 0.117100
H30   H     H_    0.973651 0.270395 0.993024 0.124641
H31   H     H_    0.143474 0.219780 0.112778 0.125369
H32   H     H_    0.335727 0.302801 0.192080 0.116256
Cl1   Cl    Cl    0.270987 0.391256 0.683760 -0.673018
Cl2   Cl    Cl    0.728934 0.608779 0.316215 -0.672873

loop_
_geom_bond_atom_site_label_1
_geom_bond_atom_site_label_2
_ccdc_geom_bond_type
C54   C55   A    
C27   C29   A    
C19   C20   D    
C47   C48   A    
C51   C52   A    
C33   C38   A    
Cu1   O4    S    
C21   C31   A    
C35   H14   S    
C43   H21   S    
C22   C32   A    
C38   H17   S    
C28   C39   S    
C24   C26   A    
C42   H20   S    
Cu1   O1    S    
C48   H25   S    
C22   H4    S    
C18   C20   S    
C2    O2    A    
C24   H6    S    
C52   H28   S    
C37   H16   S    
C39   C40   A    
C44   H22   S    
C41   C42   A    
C7    H9    S    
C5    C45   S    
C17   O7    A    
C5    C13   A    
C47   H24   S    
C18   O8    A    
Cu1   O8    S    
C49   H26   S    
C35   C36   A    
C40   C41   A    
C10   C12   A    
C53   H29   S    
Cu1   O5    S    
Cu2   O2    S    
C10   Cl2   S    
C12   H12   S    
C27   C33   S    
C52   C53   A    
C5    C7    A    
C56   H32   S    
C46   C47   A    
C6    C8    A    
C34   C35   A    
C6    C51   S    
C36   C37   A    
C7    N1    A    
C8    N2    A    
C46   H23   S    
C6    C14   A    
C1    O3    A    
C49   C50   A    
Cu1   Cu2   S    
Cu2   O3    S    
C40   H18   S    
C3    C31   S    
C9    C11   A    
C4    C32   S    
C2    O4    A    
C12   C14   A    
C36   H15   S    
Cu2   O6    S    
C55   C56   A    
C13   C15   S    
C10   N2    A    
C1    C26   S    
Cu1   N1    S    
C14   C16   S    
C11   H11   S    
Cu2   N2    S    
C50   H27   S    
C3    C4    T    
C17   O5    A    
C34   H13   S    
C29   H7    S    
C8    H10   S    
C43   C44   A    
C51   C56   A    
C9    N1    A    
C25   C27   A    
C26   C28   A    
C21   C23   A    
C39   C44   A    
C42   C43   A    
C29   C31   A    
C19   H1    S    
C30   C32   A    
C11   C13   A    
C33   C34   A    
C45   C50   A    
C55   H31   S    
C23   H5    S    
C28   C30   A    
C53   C54   A    
C17   C19   S    
C2    C25   S    
C22   C24   A    
C23   C25   A    
C37   C38   A    
C18   O6    A    
C45   C46   A    
C20   H2    S    
Cu2   O7    S    
C21   H3    S    
C9    Cl1   S    
C48   C49   A    
C41   H19   S    
C30   H8    S    
C1    O1    A    
C54   H30   S    
C15   C16   T    
