data_mof_unit_10430.cif
_audit_creation_date              2012-12-11T20:37:42-0500
_audit_creation_method            fapswitch 2.2
_symmetry_space_group_name_H-M    P1
_symmetry_Int_Tables_number       1
_space_group_crystal_system       triclinic
_cell_length_a                    8.293254
_cell_length_b                    18.792855
_cell_length_c                    22.842406
_cell_angle_alpha                 97.475745
_cell_angle_beta                  89.942772
_cell_angle_gamma                 93.410368
_cell_volume                      3523.48519992

loop_
_atom_site_label
_atom_site_type_symbol
_atom_type_description
_atom_site_fract_x
_atom_site_fract_y
_atom_site_fract_z
_atom_type_partial_charge
Ba1   Ba    Ba6+2 0.849480 0.533290 0.473010 1.648666
Ba2   Ba    Ba6+2 0.340340 0.466770 0.527000 1.655056
C1    C     C_3   0.618311 0.794308 0.318361 -0.365769
C2    C     C_R   0.078979 0.558412 0.940837 -0.009170
C3    C     C_R   0.037077 0.553225 0.880113 0.591374
C4    C     C_3   0.078729 0.713988 0.320355 0.351733
C5    C     C_R   0.004933 0.424816 0.874154 0.600121
C6    C     C_R   0.039732 0.428043 0.935407 -0.085921
C7    C     C_R   0.078943 0.495564 0.968653 -0.106309
C8    C     C_R   0.119301 0.625240 0.974651 -0.071582
C9    C     C_R   0.158776 0.629762 0.034648 -0.078084
C10   C     C_R   0.159012 0.567652 0.063113 -0.007342
C11   C     C_R   0.118663 0.500361 0.029970 -0.057446
C12   C     C_3   0.603949 0.720751 0.339497 0.359165
C13   C     C_R   0.035867 0.365713 0.964619 0.420157
C14   C     C_R   0.077755 0.371114 0.024596 -0.120596
C15   C     C_R   0.118766 0.437840 0.057921 -0.084894
C16   C     C_3   0.044717 0.754210 0.268435 -0.361456
C17   C     C_R   0.160101 0.443136 0.118599 0.600773
C18   C     C_R   0.198928 0.571334 0.123889 0.587518
C19   C     C_2   0.811648 0.443809 0.765933 -0.094664
C20   C     C_3   0.779249 0.423814 0.700535 -0.075791
C21   C     C_1   0.008672 0.507847 0.683724 0.057027
C22   C     C_2   0.055205 0.513418 0.740229 -0.078171
C23   C     C_3   0.523919 0.350482 0.344411 0.353054
C24   C     C_2   0.950005 0.481639 0.785201 0.207816
C25   C     C_R   0.397144 0.545870 0.233452 -0.091152
C26   C     C_R   0.443707 0.548166 0.292836 -0.006877
C27   C     C_R   0.189979 0.486355 0.314293 0.029873
C28   C     C_3   0.126056 0.696247 0.613784 0.389502
C29   C     C_R   0.142384 0.483494 0.254633 -0.098037
C30   C     C_R   0.245088 0.513878 0.213480 0.209451
C31   C     C_2   0.880575 0.467729 0.662019 -0.278205
C32   C     C_2   0.410364 0.698724 0.473893 -0.212961
C33   C     C_3   0.320847 0.746464 0.438720 -0.055083
C34   C     C_3   0.555680 0.327323 0.278743 0.081480
C35   C     C_2   0.357793 0.825761 0.457944 -0.112386
C36   C     C_2   0.488226 0.848774 0.492516 -0.066118
C37   C     C_2   0.582991 0.794126 0.517170 -0.124881
C38   C     C_1   0.532855 0.725257 0.508763 0.086365
C39   C     C_R   0.645936 0.068107 0.515555 0.460121
C40   C     C_3   0.033966 0.762935 0.634403 -0.302341
C41   C     C_R   0.541714 0.926523 0.502907 0.459127
C42   C     C_R   0.609212 0.193484 0.494271 -0.128434
C43   C     C_R   0.661171 0.265831 0.496712 0.051074
C44   C     C_R   0.903797 0.244266 0.548077 -0.000765
C45   C     C_3   0.039863 0.278297 0.683238 0.307856
C46   C     C_R   0.853366 0.171142 0.545991 -0.141631
C47   C     C_R   0.702924 0.145253 0.519859 -0.065730
C48   C     C_R   0.803597 0.291461 0.526007 -0.270518
C49   C     C_3   0.997466 0.316347 0.401689 0.305518
C50   C     C_3   0.973425 0.235354 0.385072 -0.374007
C51   C     C_3   0.684650 0.619129 0.649388 0.287045
C52   C     C_3   0.699223 0.636645 0.716146 -0.353453
C53   C     C_3   0.827724 0.280712 0.943983 0.296864
C54   C     C_3   0.803821 0.200061 0.948868 -0.182216
C55   C     C_3   0.626865 0.177734 0.958638 -0.491553
C56   C     C_3   0.070231 0.245875 0.739665 -0.301079
C57   C     C_3   0.534539 0.278348 0.667080 0.402876
C58   C     C_3   0.510317 0.212664 0.699273 -0.361586
C59   C     C_R   0.338821 0.519818 0.332764 -0.289485
H1    H     H_    0.651929 0.726249 0.385365 0.061660
H2    H     H_    0.802466 0.602655 0.631443 -0.005228
H3    H     H_    0.592549 0.574033 0.639041 0.095419
H4    H     H_    0.744193 0.817670 0.323974 0.138147
H5    H     H_    0.795523 0.679782 0.727895 0.130855
H6    H     H_    0.730133 0.588214 0.735751 0.077967
H7    H     H_    0.582614 0.654759 0.734850 0.134960
H8    H     H_    0.474312 0.702793 0.338580 -0.071636
H9    H     H_    0.537689 0.831042 0.344791 0.073419
H10   H     H_    0.393257 0.358758 0.351160 0.015942
H11   H     H_    0.595372 0.401897 0.358098 0.033555
H12   H     H_    0.087190 0.791770 0.676138 0.105764
H13   H     H_    0.686032 0.316608 0.273492 0.101080
H14   H     H_    0.582426 0.789742 0.271159 0.126042
H15   H     H_    0.113871 0.731838 0.229396 0.137523
H16   H     H_    0.038762 0.337774 0.693804 0.044541
H17   H     H_    0.920314 0.255182 0.665884 -0.043977
H18   H     H_    0.178571 0.273332 0.763095 0.160831
H19   H     H_    0.963682 0.251917 0.768859 0.129710
H20   H     H_    0.088808 0.187536 0.729179 0.094033
H21   H     H_    0.666392 0.287551 0.661186 -0.113560
H22   H     H_    0.477504 0.266563 0.622672 0.083745
H23   H     H_    0.039139 0.800144 0.600399 0.118597
H24   H     H_    0.573123 0.167273 0.675324 0.072789
H25   H     H_    0.380561 0.196279 0.701617 0.141991
H26   H     H_    0.028536 0.657451 0.310625 0.078097
H27   H     H_    0.561031 0.224780 0.744589 0.110106
H28   H     H_    0.075713 0.322204 0.045068 0.132195
H29   H     H_    0.189264 0.682334 0.058749 0.117950
H30   H     H_    0.480020 0.567489 0.202672 0.099749
H31   H     H_    0.120653 0.674506 0.954755 0.120533
H32   H     H_    0.170240 0.540979 0.754274 0.121510
H33   H     H_    0.732565 0.419955 0.796896 0.094127
H34   H     H_    0.906167 0.747595 0.642675 0.124524
H35   H     H_    0.027243 0.456968 0.240099 0.118814
H36   H     H_    0.376483 0.521011 0.378233 0.077402
H37   H     H_    0.211973 0.714114 0.324311 -0.066143
H38   H     H_    0.860820 0.456078 0.614734 0.083093
H39   H     H_    0.287982 0.863549 0.438084 0.098963
H40   H     H_    0.691515 0.811290 0.543047 0.100031
H41   H     H_    0.498569 0.174740 0.470565 0.111902
H42   H     H_    0.931897 0.134943 0.563537 0.100390
H43   H     H_    0.387745 0.641104 0.462681 0.064513
H44   H     H_    0.843523 0.347448 0.526804 0.054909
H45   H     H_    0.881033 0.338128 0.415907 0.003318
H46   H     H_    0.914588 0.748627 0.256649 0.148691
H47   H     H_    0.082713 0.812112 0.279625 0.110338
H48   H     H_    0.071561 0.669118 0.572038 0.107792
H49   H     H_    0.479800 0.248470 0.212316 0.182707
H50   H     H_    0.495955 0.219559 0.277984 0.196724
H51   H     H_    0.394892 0.386045 0.240332 0.209447
H52   H     H_    0.566059 0.373216 0.202107 0.190964
H53   H     H_    0.757711 0.293009 0.905216 0.085451
H54   H     H_    0.777514 0.311174 0.984939 -0.004604
H55   H     H_    0.846147 0.168341 0.907544 0.132536
H56   H     H_    0.085992 0.327513 0.438582 0.075196
H57   H     H_    0.876801 0.187531 0.986730 0.125154
H58   H     H_    0.581692 0.208865 0.999657 0.144602
H59   H     H_    0.614664 0.119556 0.963523 0.148279
H60   H     H_    0.552178 0.187233 0.920373 0.143362
H61   H     H_    0.344856 0.743984 0.642100 0.194278
H62   H     H_    0.346775 0.670143 0.593088 0.163054
H63   H     H_    0.880954 0.222787 0.349472 0.129042
H64   H     H_    0.932728 0.209360 0.423800 0.064279
H65   H     H_    0.089073 0.213016 0.369393 0.133816
N1    N     N_R   0.999034 0.486915 0.847425 -0.428007
N2    N     N_R   0.199137 0.509460 0.151224 -0.421669
N3    N     N_R   0.500147 0.045595 0.490594 -0.243667
N4    N     N_R   0.449320 0.976495 0.484326 -0.244052
N5    N     N_R   0.686957 0.948954 0.528576 -0.241191
N6    N     N_R   0.738035 0.018288 0.534800 -0.242282
N7    N     N_3   0.456628 0.261953 0.257283 -0.476149
N8    N     N_3   0.520212 0.385245 0.244689 -0.523847
N9    N     N_3   0.291744 0.718407 0.602761 -0.526042
O1    O     O_2   0.898140 0.461210 0.359840 -0.456728
O2    O     O_2   0.234051 0.246703 0.531355 -0.481916
O3    O     O_3   0.163635 0.260794 0.642976 -0.585003
O4    O     O_3   0.138540 0.461940 0.430900 -0.489509
O5    O     O_3   0.557600 0.585010 0.531050 -0.491351
O6    O     O_2   0.379790 0.327560 0.468300 -0.454670
O7    O     O_3   0.571378 0.296138 0.376283 -0.669684
O8    O     O_2   0.465515 0.478556 0.708884 -0.486846
O9    O     O_3   0.464708 0.337685 0.699555 -0.570531
O10   O     O_2   0.032610 0.607884 0.856626 -0.594649
O11   O     O_2   0.982339 0.366377 0.844173 -0.588763
O12   O     O_3   0.639611 0.680309 0.625833 -0.646040
O13   O     O_2   0.163581 0.388393 0.142122 -0.603737
O14   O     O_2   0.232794 0.629786 0.152506 -0.617278
O15   O     O_3   0.654260 0.589640 0.397760 -0.485191
O16   O     O_2   0.779607 0.540121 0.293208 -0.474886
O17   O     O_3   0.053868 0.346571 0.352169 -0.626253
O18   O     O_3   0.692273 0.671997 0.302454 -0.596035
O19   O     O_2   0.809910 0.672460 0.531740 -0.473072
O20   O     O_3   0.065030 0.625960 0.427320 -0.481598
O21   O     O_2   0.008761 0.754169 0.487046 -0.480031
O22   O     O_3   0.993589 0.298179 0.934996 -0.617235
O23   O     O_3   0.007864 0.748057 0.371890 -0.584128
O24   O     O_2   0.291560 0.538810 0.640200 -0.455625
O25   O     O_3   0.051160 0.538120 0.569110 -0.503660
O26   O     O_3   0.535440 0.410410 0.602240 -0.474722
O27   O     O_3   0.123382 0.651968 0.658686 -0.638406
O28   O     O_3   0.632100 0.415050 0.468960 -0.480070
O29   O     O_3   0.124670 0.374100 0.572690 -0.474288
P1    P     P_3+3 0.069200 0.440380 0.368230 0.998773
P2    P     P_3+3 0.634560 0.662100 0.548650 0.966072
P3    P     P_3+3 0.100386 0.719318 0.432812 0.969353
P4    P     P_3+3 0.120500 0.559680 0.631780 0.983381
P5    P     P_3+3 0.106013 0.280643 0.573629 0.960712
P6    P     P_3+3 0.643087 0.585855 0.320737 0.972804
P7    P     P_3+3 0.562975 0.324880 0.452103 0.945774
P8    P     P_3+3 0.560848 0.415725 0.678682 0.966759

loop_
_geom_bond_atom_site_label_1
_geom_bond_atom_site_label_2
_ccdc_geom_bond_type
C42   C47   A    
C53   C54   S    
C50   H63   S    
C23   O7    S    
C57   H21   S    
C51   O12   S    
C19   C24   D    
C34   N7    S    
O17   P1    S    
C58   H27   S    
C5    C6    A    
C51   C52   S    
C54   C55   S    
O16   P6    D    
C32   C38   D    
Ba2   O4    S    
C4    H37   S    
C33   C35   S    
C57   H22   S    
O8    P8    D    
C13   O22   S    
C36   C37   S    
C32   C33   S    
C51   H3    S    
C52   H7    S    
C19   H33   S    
C13   C14   A    
C12   H1    S    
C17   N2    Am   
O6    P7    D    
O24   P4    D    
Ba1   O20   S    
Ba1   Ba2   S    
C27   P1    S    
O4    P1    S    
C7    C11   A    
C16   H46   S    
C49   H56   S    
O26   P8    S    
O20   P3    S    
C14   C15   A    
C21   C31   D    
O18   P6    S    
C48   H44   S    
C33   P3    S    
C21   C22   D    
C25   H30   S    
C23   H10   S    
Ba1   O1    S    
C1    H14   S    
C38   P2    S    
Ba1   O4    S    
C56   H19   S    
C55   H58   S    
C5    O11   D    
C26   C59   A    
C8    H31   S    
C57   C58   S    
C19   C20   S    
O3    P5    S    
C10   C18   A    
O29   P5    S    
C1    H4    S    
C43   P7    S    
Ba2   O26   S    
C39   C47   S    
C4    O23   S    
C45   H16   S    
O23   P3    S    
C37   H40   S    
C44   C46   A    
C41   N4    A    
O5    P2    S    
C4    C16   S    
C27   C59   A    
C3    O10   D    
C28   H48   S    
C40   H34   S    
C1    H9    S    
C40   H23   S    
C56   H20   S    
Ba2   O29   S    
C37   C38   D    
C50   H65   S    
C6    C7    A    
C52   H6    S    
O21   P3    D    
C46   H42   S    
C32   H43   S    
C4    H26   S    
C49   C50   S    
H62   N9    S    
C14   H28   S    
C31   H38   S    
C35   C36   D    
O12   P2    S    
C29   C30   A    
Ba1   P1    S    
C9    C10   A    
C3    N1    Am   
C54   H55   S    
C59   H36   S    
Ba1   O15   S    
C23   H11   S    
C1    C12   S    
Ba1   O5    S    
C34   H13   S    
C56   H18   S    
C55   H59   S    
O27   P4    S    
C26   P6    S    
C46   C47   A    
C49   O17   S    
C6    C13   A    
H52   N8    S    
C12   O18   S    
C12   H8    S    
C18   O14   D    
Ba2   O24   S    
C2    C8    A    
N5    N6    A    
Ba2   P4    S    
O28   P7    S    
C42   C43   A    
N3    N4    A    
C20   C31   S    
C44   C48   A    
C40   H12   S    
C58   H25   S    
C25   C30   A    
C54   H57   S    
O2    P5    D    
Ba1   O25   S    
H50   N7    S    
C22   C24   S    
C2    C3    A    
H49   N7    S    
C34   N8    S    
Ba2   O28   S    
C57   O9    S    
C39   N6    A    
O19   P2    D    
C50   H64   S    
C18   N2    Am   
C52   H5    S    
C53   H53   S    
O9    P8    S    
C17   O13   D    
C44   P5    S    
C11   C15   A    
Ba2   O5    S    
C30   N2    S    
C41   N5    A    
C36   C41   S    
C27   C29   A    
C22   H32   S    
C45   C56   S    
C39   N3    A    
C51   H2    S    
C9    H29   S    
O15   P6    S    
C53   H54   S    
Ba1   P2    S    
C49   H45   S    
C45   O3    S    
H51   N8    S    
C15   C17   A    
C24   N1    S    
O25   P4    S    
Ba1   O19   S    
C16   H47   S    
H61   N9    S    
C8    C9    A    
C23   C34   S    
C55   H60   S    
C21   P4    S    
C53   O22   S    
C10   C11   A    
Ba1   O28   S    
Ba2   O25   S    
C28   N9    S    
O1    P1    D    
C25   C26   A    
Ba2   O6    S    
C28   O27   S    
C28   C40   S    
C58   H24   S    
C43   C48   A    
C45   H17   S    
C5    N1    Am   
C2    C7    A    
C35   H39   S    
C20   P8    S    
C29   H35   S    
C16   H15   S    
O7    P7    S    
C42   H41   S    
