data_mof_unit_19019.cif
_audit_creation_date              2012-12-10T19:18:33-0500
_audit_creation_method            fapswitch 2.2
_symmetry_space_group_name_H-M    P1
_symmetry_Int_Tables_number       1
_space_group_crystal_system       triclinic
_cell_length_a                    15.73623
_cell_length_b                    14.980414
_cell_length_c                    10.507496
_cell_angle_alpha                 89.589149
_cell_angle_beta                  89.999284
_cell_angle_gamma                 90.557182
_cell_volume                      2476.80628409

loop_
_atom_site_label
_atom_site_type_symbol
_atom_type_description
_atom_site_fract_x
_atom_site_fract_y
_atom_site_fract_z
_atom_type_partial_charge
C1    C     C_R   0.338005 0.499592 0.500069 0.907973
C2    C     C_3   0.499429 0.501059 0.122212 0.032019
C3    C     C_3   0.053479 0.559270 0.589608 -0.449567
C4    C     C_3   0.047038 0.406234 0.490798 -0.472503
C5    C     C_3   0.949284 0.407962 0.503614 -0.142683
C6    C     C_3   0.955157 0.561311 0.600086 -0.155242
C7    C     C_1   0.750746 0.502106 0.496841 -0.189110
C8    C     C_3   0.083262 0.502879 0.473486 0.262514
C9    C     C_3   0.917416 0.506332 0.486712 0.239350
C10   C     C_3   0.949150 0.545121 0.356423 -0.453090
C11   C     C_3   0.049951 0.548067 0.345036 0.062574
C12   C     C_1   0.825885 0.504541 0.492536 -0.109237
C13   C     C_1   0.174601 0.499895 0.482224 -0.117362
C14   C     C_R   0.499775 0.500359 0.256858 0.862653
C15   C     C_1   0.249548 0.498908 0.491656 -0.202590
C16   C     C_3   0.406712 0.051201 0.492853 -0.376556
C17   C     C_3   0.406679 0.946904 0.492760 -0.372592
C18   C     C_3   0.542683 0.051971 0.617380 -0.379204
C19   C     C_3   0.542603 0.947682 0.617444 -0.373093
C20   C     C_3   0.498686 0.089782 0.496410 0.281196
C21   C     C_3   0.498645 0.910197 0.496420 0.278783
C22   C     C_3   0.546761 0.948896 0.378934 -0.378406
C23   C     C_3   0.546743 0.053241 0.378882 -0.373916
C24   C     C_1   0.498578 0.809358 0.496784 -0.025780
C25   C     C_1   0.498616 0.190638 0.496779 -0.029208
C26   C     C_R   0.662147 0.500476 0.500412 0.912300
C27   C     C_R   0.499845 0.499636 0.743418 0.861911
C28   C     C_3   0.499638 0.585298 0.039260 -0.140948
C29   C     C_3   0.429319 0.457421 0.043040 -0.180990
C30   C     C_3   0.429566 0.541547 0.957293 -0.178471
C31   C     C_3   0.499464 0.498924 0.878115 0.031786
C32   C     C_3   0.569509 0.542568 0.957364 -0.181205
C33   C     C_3   0.499188 0.414683 0.961090 -0.141476
C34   C     C_3   0.569269 0.458429 0.043009 -0.181000
H1    H     H_    0.372754 0.575131 0.917494 0.135063
H2    H     H_    0.919532 0.609473 0.333535 0.138822
H3    H     H_    0.920698 0.502140 0.281912 0.169583
H4    H     H_    0.370365 0.921400 0.576545 0.162043
H5    H     H_    0.370473 0.075054 0.576742 0.158720
H6    H     H_    0.609334 0.077256 0.622275 0.153880
H7    H     H_    0.609217 0.923595 0.622538 0.156312
H8    H     H_    0.509395 0.075928 0.703918 0.157137
H9    H     H_    0.509190 0.922280 0.703943 0.158853
H10   H     H_    0.516356 0.078047 0.289960 0.157752
H11   H     H_    0.516449 0.924310 0.289975 0.156018
H12   H     H_    0.613438 0.078622 0.378879 0.152100
H13   H     H_    0.613477 0.924909 0.379136 0.155371
H14   H     H_    0.373393 0.076009 0.406338 0.157272
H15   H     H_    0.373393 0.922321 0.406165 0.155116
H16   H     H_    0.499782 0.654791 0.075308 0.139038
H17   H     H_    0.372287 0.423086 0.082902 0.131028
H18   H     H_    0.626481 0.577014 0.917548 0.134532
H19   H     H_    0.499004 0.345181 0.925082 0.139318
H20   H     H_    0.626040 0.424801 0.082879 0.135734
H21   H     H_    0.938123 0.523477 0.688374 0.119010
H22   H     H_    0.936265 0.388626 0.604505 0.116970
H23   H     H_    0.079483 0.530125 0.679226 0.156248
H24   H     H_    0.074211 0.375898 0.578852 0.165892
H25   H     H_    0.066744 0.361587 0.413294 0.174535
H26   H     H_    0.080633 0.627965 0.583533 0.195061
N1    N     N_1   0.498630 0.731150 0.497460 -0.086712
N2    N     N_1   0.498630 0.268850 0.497460 -0.086852
O1    O     O_R   0.377210 0.574260 0.500130 -0.607906
O2    O     O_R   0.377210 0.425740 0.500130 -0.614891
O3    O     O_R   0.500050 0.574220 0.314080 -0.627296
O4    O     O_R   0.500050 0.425780 0.314080 -0.616576
O5    O     O_R   0.622930 0.574200 0.500140 -0.613806
O6    O     O_R   0.622930 0.425800 0.500140 -0.607858
O7    O     O_R   0.500090 0.574240 0.686180 -0.616695
O8    O     O_R   0.500090 0.425760 0.686180 -0.626601
Zn1   Zn    Zn3+2 0.500090 0.599130 0.500180 0.958531
Zn2   Zn    Zn3+2 0.500090 0.400870 0.500180 0.957664
C35   C     C_R   0.902426 0.337559 0.423656 0.151221
C36   C     C_R   0.837310 0.285839 0.481027 -0.147026
C37   C     C_R   0.791191 0.223098 0.410673 -0.119491
C38   C     C_R   0.809542 0.210506 0.282205 -0.122909
C39   C     C_R   0.874148 0.260545 0.224012 -0.148229
C40   C     C_R   0.920308 0.323558 0.293916 -0.160673
H27   H     H_    0.821142 0.294958 0.580239 0.112148
H28   H     H_    0.740980 0.184436 0.455828 0.116197
H29   H     H_    0.773742 0.161939 0.227792 0.115816
H30   H     H_    0.888525 0.250574 0.124410 0.128576
H31   H     H_    0.969901 0.360485 0.245917 0.150257
C41   C     C_R   0.922316 0.655559 0.628414 0.143455
C42   C     C_R   0.954068 0.698505 0.737946 -0.173005
C43   C     C_R   0.925456 0.782828 0.772993 -0.132104
C44   C     C_R   0.863880 0.825778 0.700227 -0.118824
C45   C     C_R   0.830741 0.784362 0.592456 -0.149889
C46   C     C_R   0.859136 0.699986 0.556818 -0.151289
H32   H     H_    0.001348 0.666406 0.796951 0.120538
H33   H     H_    0.950902 0.814712 0.857088 0.125799
H34   H     H_    0.841669 0.891065 0.727510 0.116919
H35   H     H_    0.782791 0.817738 0.536157 0.123465
H36   H     H_    0.831697 0.672055 0.472089 0.132734
C47   C     C_R   0.089424 0.644081 0.332450 0.103273
C48   C     C_R   0.046171 0.723124 0.365018 -0.172707
C49   C     C_R   0.085804 0.806852 0.355644 -0.134823
C50   C     C_R   0.169518 0.814347 0.313727 -0.125723
C51   C     C_R   0.213901 0.738029 0.280815 -0.133868
C52   C     C_R   0.174649 0.654217 0.289858 -0.119443
H37   H     H_    0.982640 0.722532 0.400608 0.144286
H38   H     H_    0.051443 0.866195 0.381984 0.131332
H39   H     H_    0.200060 0.879273 0.307102 0.116834
H40   H     H_    0.279065 0.743638 0.248448 0.127053
H41   H     H_    0.211754 0.596907 0.263309 0.135408
C53   C     C_R   0.073010 0.500783 0.218078 0.087612
C54   C     C_R   0.035064 0.532599 0.104422 -0.154888
C55   C     C_R   0.053711 0.495001 0.986604 -0.145037
C56   C     C_R   0.112566 0.426520 0.978207 -0.113300
C57   C     C_R   0.153177 0.395854 0.087700 -0.142433
C58   C     C_R   0.134326 0.432624 0.206248 -0.203202
H42   H     H_    0.990360 0.587068 0.107136 0.125467
H43   H     H_    0.022620 0.519366 0.901637 0.111497
H44   H     H_    0.127307 0.397812 0.886660 0.115836
H45   H     H_    0.199979 0.343624 0.080737 0.123068
H46   H     H_    0.169573 0.407160 0.285912 0.138830

loop_
_geom_bond_atom_site_label_1
_geom_bond_atom_site_label_2
_ccdc_geom_bond_type
C44   C45   A    
C24   N1    T    
C35   C36   A    
C5    H22   S    
C47   C48   A    
C6    H21   S    
C4    C8    S    
C3    C6    S    
C16   H14   S    
C6    C9    S    
C49   C50   A    
C39   C40   A    
C52   H41   S    
C8    C13   S    
C7    C26   S    
C30   H1    S    
C2    C29   S    
C26   O5    A    
C19   C21   S    
C43   H33   S    
C18   H8    S    
C30   C31   S    
C20   C25   S    
C50   H39   S    
C29   C33   S    
C55   C56   A    
C18   C19   S    
C54   H42   S    
C46   H36   S    
O7    Zn1   S    
C18   H6    S    
C57   C58   A    
C32   H18   S    
C28   H16   S    
C40   H31   S    
O4    Zn2   S    
C51   C52   A    
C16   C17   S    
C54   C55   A    
C31   C33   S    
C58   H46   S    
C1    C15   S    
C37   H28   S    
C18   C20   S    
C49   H38   S    
C27   O7    A    
O6    Zn2   S    
C17   H4    S    
C3    H26   S    
N1    Zn1   S    
C22   H13   S    
C23   H12   S    
C21   C22   S    
C1    O1    A    
C9    C10   S    
C19   H9    S    
C53   C58   A    
C33   H19   S    
C7    C12   T    
C6    C41   S    
C36   C37   A    
C27   C31   S    
C28   C32   S    
C48   H37   S    
C41   C42   A    
C3    C8    S    
C17   H15   S    
C47   C52   A    
C42   C43   A    
C35   C40   A    
C17   C21   S    
C23   H10   S    
C32   C34   S    
C55   H43   S    
C37   C38   A    
C5    C9    S    
C29   C30   S    
C31   C32   S    
C20   C23   S    
C16   C20   S    
C48   C49   A    
C11   C53   S    
C33   C34   S    
C14   O4    A    
N2    Zn2   S    
C38   C39   A    
C27   O8    A    
C56   H44   S    
C3    H23   S    
O1    Zn1   S    
C34   H20   S    
C36   H27   S    
C13   C15   T    
C41   C46   A    
C1    O2    A    
C29   H17   S    
C11   C47   S    
C45   H35   S    
C43   C44   A    
C4    C5    S    
C38   H29   S    
O8    Zn2   S    
C42   H32   S    
C10   H3    S    
C26   O6    A    
C28   C30   S    
O3    Zn1   S    
C56   C57   A    
C2    C34   S    
C39   H30   S    
C8    C11   S    
C4    H25   S    
C14   O3    A    
C10   H2    S    
C51   H40   S    
O5    Zn1   S    
C25   N2    T    
O2    Zn2   S    
C5    C35   S    
C2    C14   S    
C9    C12   S    
C10   C11   S    
C16   H5    S    
C22   H11   S    
C45   C46   A    
C50   C51   A    
C53   C54   A    
C21   C24   S    
C4    H24   S    
C22   C23   S    
C2    C28   S    
C44   H34   S    
C57   H45   S    
C19   H7    S    
