data_mof_unit_42144.cif
_audit_creation_date              2012-12-10T16:54:03-0500
_audit_creation_method            fapswitch 2.2
_symmetry_space_group_name_H-M    P1
_symmetry_Int_Tables_number       1
_space_group_crystal_system       triclinic
_cell_length_a                    9.677387
_cell_length_b                    10.96654
_cell_length_c                    13.431183
_cell_angle_alpha                 89.63301
_cell_angle_beta                  74.391588
_cell_angle_gamma                 90.260883
_cell_volume                      1372.79490388

loop_
_atom_site_label
_atom_site_type_symbol
_atom_type_description
_atom_site_fract_x
_atom_site_fract_y
_atom_site_fract_z
_atom_type_partial_charge
C1    C     C_R   0.498720 0.734530 0.504737 0.783221
C2    C     C_R   0.454792 0.405991 0.967884 0.063023
C3    C     C_R   0.499103 0.418575 0.859570 -0.009614
C4    C     C_R   0.554644 0.429102 0.026148 -0.047537
C5    C     C_R   0.702856 0.424231 0.975007 0.018757
C6    C     C_R   0.747399 0.405500 0.868287 0.558483
C7    C     C_R   0.647257 0.405434 0.811011 -0.175777
C8    C     C_R   0.511463 0.471126 0.129798 -0.036383
C9    C     C_R   0.760881 0.463714 0.135754 -0.233498
C10   C     C_R   0.391732 0.436727 0.805762 -0.080495
C11   C     C_2   0.577574 0.069203 0.538326 0.619114
C12   C     C_R   0.426577 0.481448 0.697678 0.807689
C13   C     C_2   0.507942 0.135568 0.482252 -0.208860
C14   C     C_2   0.602097 0.938283 0.522764 -0.217970
C15   C     C_2   0.489345 0.865092 0.523006 0.353172
C16   C     C_2   0.049423 0.541940 0.575786 -0.054623
C17   C     C_2   0.897776 0.556899 0.568373 0.760001
C18   C     C_R   0.500766 0.265851 0.497225 0.837018
C19   C     C_R   0.574893 0.498262 0.299892 0.768988
C20   C     C_R   0.804204 0.441464 0.030445 -0.143627
C21   C     C_R   0.615397 0.479977 0.186835 -0.082110
C22   C     C_R   0.248640 0.406548 0.856397 -0.157302
C23   C     C_R   0.213455 0.361058 0.957149 -0.137027
C24   C     C_R   0.315148 0.362212 0.013017 -0.123347
Cu1   Cu    Cu3+1 0.361370 0.499980 0.499980 0.982109
Cu2   Cu    Cu3+1 0.638630 0.500020 0.500020 1.083896
H1    H     H_    0.842685 0.471895 0.176611 0.166966
H2    H     H_    0.073614 0.573020 0.645715 0.180243
H3    H     H_    0.131599 0.486692 0.431551 0.245565
H4    H     H_    0.917396 0.439350 0.992048 0.178958
H5    H     H_    0.165554 0.411858 0.816387 0.214203
H6    H     H_    0.286578 0.322818 0.089593 0.130714
H7    H     H_    0.107300 0.325514 0.992775 0.144073
H8    H     H_    0.688692 0.386267 0.729954 0.228218
N1    N     N_2   0.152660 0.501340 0.501130 -0.301360
N2    N     N_2   0.846520 0.501370 0.501160 0.019722
O1    O     O_R   0.382960 0.678040 0.499980 -0.552235
O2    O     O_R   0.617100 0.678080 0.500020 -0.583835
O3    O     O_R   0.325800 0.499940 0.650950 -0.583875
O4    O     O_R   0.559930 0.499980 0.650990 -0.552187
O5    O     O_R   0.382900 0.321920 0.499980 -0.590648
O6    O     O_R   0.617040 0.321960 0.500020 -0.489653
O7    O     O_R   0.440070 0.500020 0.349010 -0.591558
O8    O     O_R   0.674200 0.500060 0.349050 -0.574542
C25   C     C_R   0.461212 0.087535 0.392952 0.070528
C26   C     C_R   0.316689 0.094953 0.391650 0.000590
C27   C     C_R   0.274222 0.054507 0.305807 -0.175772
C28   C     C_R   0.375317 0.006266 0.220806 -0.117429
C29   C     C_R   0.519393 0.999639 0.221013 -0.115155
C30   C     C_R   0.562546 0.041114 0.306283 -0.190754
H9    H     H_    0.236850 0.131272 0.457235 0.173224
H10   H     H_    0.162884 0.060660 0.305178 0.146191
H11   H     H_    0.342230 0.974939 0.154472 0.124943
H12   H     H_    0.597900 0.963515 0.154649 0.130460
H13   H     H_    0.675020 0.038980 0.304191 0.122958
C31   C     C_R   0.751351 0.896625 0.509918 0.109897
C32   C     C_R   0.839028 0.867699 0.411550 -0.140425
C33   C     C_R   0.984657 0.843834 0.397959 -0.183504
C34   C     C_R   0.043376 0.846813 0.482096 -0.115145
C35   C     C_R   0.956928 0.875264 0.580239 -0.079189
C36   C     C_R   0.811465 0.900576 0.594187 0.046867
H14   H     H_    0.795549 0.865872 0.345308 0.105298
H15   H     H_    0.053134 0.825895 0.321867 0.148556
H16   H     H_    0.156016 0.827784 0.470860 0.212319
H17   H     H_    0.002695 0.878185 0.645376 0.165327
H18   H     H_    0.745972 0.924190 0.670421 0.160830
F1    F     F_    0.354426 0.912219 0.549412 -0.693744
F2    F     F_    0.810188 0.631128 0.637723 -0.697441
F3    F     F_    0.914941 0.400329 0.460019 -0.617041
F4    F     F_    0.888528 0.393039 0.818231 -0.693363
C37   C     C_R   0.373223 0.538306 0.163236 0.136959
C38   C     C_R   0.248688 0.482713 0.225999 -0.120670
C39   C     C_R   0.114505 0.535683 0.236016 -0.178006
C40   C     C_R   0.103771 0.645625 0.185912 -0.135831
C41   C     C_R   0.227563 0.704839 0.127854 -0.132962
C42   C     C_R   0.361739 0.651428 0.116286 -0.130293
H19   H     H_    0.254650 0.394542 0.261435 0.140142
H20   H     H_    0.018407 0.490035 0.280599 0.191330
H21   H     H_    0.999445 0.685240 0.192556 0.127820
H22   H     H_    0.219194 0.790506 0.089535 0.126238
H23   H     H_    0.456158 0.695349 0.066812 0.126700
F5    F     F_    0.629954 0.124058 0.611572 -0.666524

loop_
_geom_bond_atom_site_label_1
_geom_bond_atom_site_label_2
_ccdc_geom_bond_type
C16   H2    S    
C14   C31   S    
C39   C40   A    
C4    C8    A    
Cu2   O4    S    
Cu1   O7    S    
Cu2   O8    S    
C32   H14   S    
C5    C20   A    
C20   H4    S    
C25   C26   A    
C10   C22   A    
C9    H1    S    
C34   H16   S    
C13   C18   S    
C19   C21   S    
C3    C7    A    
C18   O6    A    
C16   N1    D    
C37   C42   A    
C11   C14   S    
C29   H12   S    
C31   C32   A    
Cu1   O1    S    
C36   H18   S    
C16   C17   S    
C23   H7    S    
C39   H20   S    
C1    C15   S    
C17   N2    D    
C41   H22   S    
C1    O1    A    
C38   C39   A    
C34   C35   A    
C19   O7    A    
C11   F5    S    
C28   H11   S    
C22   H5    S    
C40   C41   A    
C18   O5    A    
Cu1   O5    S    
Cu2   O2    S    
Cu1   Cu2   S    
C26   H9    S    
C35   C36   A    
C12   O4    A    
C2    C4    A    
C41   C42   A    
C24   H6    S    
C38   H19   S    
C9    C20   A    
C27   C28   A    
C23   C24   A    
C15   F1    S    
C8    C21   A    
C31   C36   A    
C6    C7    A    
C10   C12   S    
C1    O2    A    
Cu1   N1    S    
Cu2   N2    S    
C28   C29   A    
C35   H17   S    
C40   H21   S    
C2    C24   A    
C7    H8    S    
C19   O8    A    
Cu2   O6    S    
C33   H15   S    
C6    F4    S    
C26   C27   A    
C17   F2    S    
C22   C23   A    
C4    C5    A    
C42   H23   S    
C27   H10   S    
H3    N1    S    
C30   H13   S    
C12   O3    A    
C2    C3    A    
C33   C34   A    
C37   C38   A    
C3    C10   A    
Cu1   O3    S    
C13   C25   S    
C11   C13   D    
C9    C21   A    
C32   C33   A    
C5    C6    A    
C25   C30   A    
N2    F3    S    
C29   C30   A    
C14   C15   D    
C8    C37   S    
