data_mof_unit_5907.cif
_audit_creation_date              2012-12-10T20:42:44-0500
_audit_creation_method            fapswitch 2.2
_symmetry_space_group_name_H-M    P1
_symmetry_Int_Tables_number       1
_space_group_crystal_system       triclinic
_cell_length_a                    8.923259
_cell_length_b                    10.684542
_cell_length_c                    9.915865
_cell_angle_alpha                 89.514548
_cell_angle_beta                  88.206442
_cell_angle_gamma                 89.357193
_cell_volume                      944.834023544

loop_
_atom_site_label
_atom_site_type_symbol
_atom_type_description
_atom_site_fract_x
_atom_site_fract_y
_atom_site_fract_z
_atom_type_partial_charge
C1    C     C_R   0.496433 0.259954 0.500058 0.886632
C2    C     C_R   0.466224 0.936398 0.374891 -0.226435
C3    C     C_R   0.460405 0.870885 0.498172 -0.109390
C4    C     C_R   0.429044 0.935725 0.617652 0.052013
C5    C     C_3   0.489719 0.921743 0.757097 -0.231075
C6    C     C_3   0.526273 0.061163 0.748124 -0.239243
C7    C     C_R   0.414283 0.417790 0.075468 0.129371
C8    C     C_R   0.600171 0.568749 0.068277 -0.142187
C9    C     C_R   0.600362 0.568601 0.924454 -0.141922
C10   C     C_R   0.411773 0.418643 0.933812 0.169218
C11   C     C_3   0.242992 0.403034 0.942047 0.302824
C12   C     C_R   0.218795 0.500299 0.501241 0.923250
C13   C     C_3   0.251008 0.401734 0.095738 -0.473363
C14   C     C_R   0.491018 0.739757 0.499722 0.862506
C15   C     C_R   0.781201 0.500533 0.498639 0.951480
C16   C     C_1   0.065333 0.500962 0.501551 -0.239860
C17   C     C_1   0.934696 0.501113 0.497806 -0.216746
C18   C     C_R   0.445157 0.063029 0.617833 0.040563
C19   C     C_R   0.472832 0.128496 0.498182 -0.085126
C20   C     C_R   0.469354 0.065526 0.374800 -0.215267
H1    H     H_    0.482252 0.114229 0.278924 0.171869
H2    H     H_    0.197004 0.483922 0.146156 0.210940
H3    H     H_    0.224430 0.310644 0.145596 0.189414
H4    H     H_    0.482550 0.889098 0.279589 0.169161
H5    H     H_    0.589324 0.858743 0.763146 0.153717
H6    H     H_    0.469135 0.119319 0.826706 0.151022
H7    H     H_    0.677980 0.627505 0.119381 0.139393
H8    H     H_    0.678469 0.627057 0.867861 0.142111
N1    N     N_R   0.499010 0.499140 0.142800 -0.101264
N2    N     N_R   0.499010 0.499180 0.857150 -0.113855
O1    O     O_R   0.500020 0.316790 0.614690 -0.621082
O2    O     O_R   0.500000 0.316760 0.385350 -0.622747
O3    O     O_R   0.285350 0.500020 0.614650 -0.618214
O4    O     O_R   0.285340 0.499980 0.385310 -0.623638
O5    O     O_R   0.500000 0.683240 0.614650 -0.619464
O6    O     O_R   0.499980 0.683210 0.385310 -0.637428
O7    O     O_R   0.714660 0.500020 0.614690 -0.625641
O8    O     O_R   0.714650 0.499980 0.385350 -0.611561
Zn1   Zn    Zn3+2 0.500010 0.500020 0.653130 0.932155
Zn2   Zn    Zn3+2 0.499990 0.499980 0.346870 0.928833
C21   C     C_3   0.196042 0.275846 0.888710 -0.886351
H9    H     H_    0.262299 0.198760 0.934250 0.219117
H10   H     H_    0.076948 0.258965 0.917277 0.250666
H11   H     H_    0.214391 0.273272 0.777773 0.247895
C22   C     C_R   0.367271 0.892270 0.863030 0.171004
C23   C     C_R   0.214746 0.923266 0.844493 -0.141042
C24   C     C_R   0.105117 0.890035 0.941581 -0.148571
C25   C     C_R   0.145539 0.825614 0.058146 -0.137539
C26   C     C_R   0.295962 0.796481 0.078857 -0.150928
C27   C     C_R   0.406499 0.831966 0.983268 -0.163060
H12   H     H_    0.179569 0.972756 0.755137 0.141379
H13   H     H_    0.988584 0.913522 0.925829 0.137941
H14   H     H_    0.060406 0.798410 0.132510 0.129188
H15   H     H_    0.326617 0.745978 0.169004 0.165667
H16   H     H_    0.522954 0.812211 0.002617 0.115275
C28   C     C_R   0.691283 0.091778 0.723013 0.143577
C29   C     C_R   0.784996 0.019793 0.635078 -0.149665
C30   C     C_R   0.924708 0.064344 0.590960 -0.163807
C31   C     C_R   0.971701 0.181649 0.631533 -0.133023
C32   C     C_R   0.881814 0.252124 0.721030 -0.137878
C33   C     C_R   0.744449 0.206206 0.769430 -0.104271
H17   H     H_    0.748183 0.932062 0.594829 0.127672
H18   H     H_    0.994409 0.009652 0.521690 0.137450
H19   H     H_    0.077113 0.218160 0.592418 0.127634
H20   H     H_    0.917002 0.343797 0.751318 0.152479
H21   H     H_    0.675121 0.264077 0.835855 0.130984
C34   C     C_3   0.148094 0.514492 0.891405 -0.775851
H22   H     H_    0.101879 0.495378 0.791838 0.248460
H23   H     H_    0.049224 0.530771 0.960184 0.205975
H24   H     H_    0.214526 0.601667 0.885244 0.248656

loop_
_geom_bond_atom_site_label_1
_geom_bond_atom_site_label_2
_ccdc_geom_bond_type
C13   H2    S    
C7    C10   A    
O5    Zn1   S    
C15   O8    A    
C24   H13   S    
C7    N1    A    
C25   H14   S    
C21   H10   S    
C21   H9    S    
C10   N2    A    
C24   C25   A    
O1    Zn1   S    
C7    C13   S    
C34   H24   S    
C4    C18   A    
C19   C20   A    
C2    C3    A    
C31   H19   S    
C29   H17   S    
O7    Zn1   S    
C31   C32   A    
O3    Zn1   S    
C22   C23   A    
C28   C29   A    
O8    Zn2   S    
C4    C5    S    
C11   C13   S    
C29   C30   A    
C6    H6    S    
C3    C14   S    
C5    C22   S    
C22   C27   A    
C32   C33   A    
O4    Zn2   S    
C8    N1    A    
C33   H21   S    
N1    Zn2   S    
C25   C26   A    
C11   C34   S    
N2    Zn1   S    
C11   C21   S    
O2    Zn2   S    
C2    H4    S    
C5    C6    S    
C6    C18   S    
C21   H11   S    
C5    H5    S    
C1    C19   S    
C10   C11   S    
C12   O4    A    
C34   H22   S    
C12   C16   S    
C1    O1    A    
O6    Zn2   S    
C18   C19   A    
C20   H1    S    
C13   H3    S    
C9    N2    A    
C26   C27   A    
C30   H18   S    
C15   C17   S    
C8    H7    S    
C28   C33   A    
C8    C9    A    
C14   O6    A    
C26   H15   S    
C34   H23   S    
C12   O3    A    
C23   C24   A    
C30   C31   A    
C2    C20   A    
C23   H12   S    
C14   O5    A    
C1    O2    A    
C15   O7    A    
C3    C4    A    
C27   H16   S    
C9    H8    S    
C6    C28   S    
C16   C17   T    
C32   H20   S    
