data_mof_unit_48541.cif
_audit_creation_date              2013-03-05T16:04:06-0500
_audit_creation_method            fapswitch 2.2
_symmetry_space_group_name_H-M    P1
_symmetry_Int_Tables_number       1
_space_group_crystal_system       triclinic
_cell_length_a                    10.898229
_cell_length_b                    9.78742
_cell_length_c                    10.906767
_cell_angle_alpha                 90.135929
_cell_angle_beta                  94.481901
_cell_angle_gamma                 89.898191
_cell_volume                      1159.81397357

loop_
_atom_site_label
_atom_site_type_symbol
_atom_site_description
_atom_site_fract_x
_atom_site_fract_y
_atom_site_fract_z
_atom_type_partial_charge
O1    O     O_R   0.319640 0.618740 0.499990 -0.536813
O2    O     O_R   0.680360 0.618740 0.500010 -0.539126
O3    O     O_R   0.319620 0.381170 0.499990 -0.582087
O4    O     O_R   0.680380 0.381170 0.500010 -0.591026
C1    C     C_R   0.262940 0.498724 0.509164 0.807478
C2    C     C_R   0.736199 0.498508 0.489172 0.804689
O5    O     O_R   0.500000 0.618810 0.319650 -0.588804
O6    O     O_R   0.500000 0.618810 0.680350 -0.568739
O7    O     O_R   0.499970 0.381240 0.319640 -0.521443
O8    O     O_R   0.500030 0.381240 0.680360 -0.508805
C3    C     C_R   0.494231 0.499409 0.262639 0.848430
C4    C     C_R   0.502932 0.499637 0.737959 0.850659
Cu1   Cu    Cu3+1 0.500000 0.640660 0.500000 1.098349
Cu2   Cu    Cu3+1 0.500000 0.359340 0.500000 1.122316
C5    C     C_R   0.391277 0.729789 0.087903 0.234935
C6    C     C_R   0.560581 0.742767 0.906224 0.245772
C7    C     C_R   0.402991 0.851169 0.019565 0.128023
C8    C     C_R   0.498364 0.861239 0.940085 0.177786
C9    C     C_R   0.516410 0.617494 0.945227 -0.149422
C10   C     C_R   0.462760 0.615681 0.057585 -0.144126
C11   C     C_R   0.481279 0.495730 0.127555 -0.151945
C12   C     C_R   0.508597 0.496269 0.874202 -0.173420
C13   C     C_R   0.503792 0.373960 0.063411 0.325728
C14   C     C_R   0.479020 0.374707 0.935417 0.328010
C15   C     C_R   0.062155 0.366331 0.514127 -0.030318
C16   C     C_R   0.935407 0.366721 0.474026 -0.026246
C17   C     C_R   0.870431 0.491939 0.475524 -0.309338
C18   C     C_R   0.127082 0.492163 0.517957 -0.299666
C19   C     C_R   0.937429 0.612025 0.468722 0.007434
C20   C     C_R   0.058541 0.612611 0.521255 0.017517
C21   C     C_R   0.399796 0.072903 0.454087 0.291056
C22   C     C_R   0.601052 0.074609 0.544337 0.337287
C23   C     C_R   0.394427 0.928899 0.478255 0.356100
C24   C     C_R   0.605665 0.929537 0.525152 0.317480
N1    N     N_R   0.500000 0.852070 0.500000 -0.314037
N2    N     N_R   0.500000 0.147940 0.500000 -0.295066
N3    N     N_R   0.587305 0.273541 0.116987 0.141068
O9    O     O_R   0.704954 0.288570 0.108851 -0.311585
O10   O     O_R   0.547610 0.167837 0.173876 -0.273605
N4    N     N_R   0.370814 0.302079 0.889235 0.125993
O11   O     O_R   0.265849 0.329139 0.933379 -0.273932
O12   O     O_R   0.373753 0.215029 0.799746 -0.267672
N5    N     N_R   0.294938 0.716574 0.170183 0.165629
O13   O     O_R   0.248884 0.824662 0.218444 -0.214909
O14   O     O_R   0.241831 0.599303 0.184552 -0.299763
N6    N     N_R   0.676826 0.750459 0.851608 0.179555
O15   O     O_R   0.739878 0.863363 0.859862 -0.184615
O16   O     O_R   0.734259 0.639063 0.824177 -0.300250
N7    N     N_R   0.310496 0.955255 0.018262 0.210152
O17   O     O_R   0.198241 0.927886 0.976064 -0.193046
O18   O     O_R   0.337737 0.077433 0.057850 -0.193488
N8    N     N_R   0.516820 0.984890 0.876776 0.209122
O19   O     O_R   0.587619 0.078259 0.928800 -0.204995
O20   O     O_R   0.492160 0.986960 0.758617 -0.330047
C25   C     C_2   0.116199 0.246534 0.583586 0.612754
H1    H     H_    0.206742 0.252249 0.630837 0.108215
O21   O     O_2   0.057601 0.142268 0.596706 -0.349893
C26   C     C_2   0.880690 0.250014 0.400176 0.617648
H2    H     H_    0.786291 0.252999 0.361343 0.088418
O22   O     O_2   0.942816 0.152391 0.373004 -0.358562
C27   C     C_2   0.906674 0.695452 0.357564 0.644596
H3    H     H_    0.818893 0.681578 0.304631 0.027771
O23   O     O_2   0.979018 0.778540 0.321617 -0.353293
C28   C     C_2   0.087112 0.702568 0.628667 0.649077
H4    H     H_    0.165360 0.679927 0.693401 0.038150
O24   O     O_2   0.023952 0.802564 0.646857 -0.340671
N9    N     N_R   0.300500 0.137247 0.380343 0.146056
O25   O     O_R   0.325112 0.218329 0.291833 -0.235179
O26   O     O_R   0.188960 0.091041 0.378732 -0.206897
N10   N     N_R   0.697969 0.140429 0.620228 0.161245
O27   O     O_R   0.670478 0.210180 0.715551 -0.225953
O28   O     O_R   0.812295 0.105576 0.614524 -0.224467
N11   N     N_R   0.283549 0.880715 0.521519 0.137806
O29   O     O_R   0.258492 0.918080 0.631303 -0.300565
O30   O     O_R   0.194705 0.842650 0.443104 -0.219420
N12   N     N_R   0.723976 0.870948 0.522343 0.140725
O31   O     O_R   0.792342 0.916907 0.439261 -0.311503
O32   O     O_R   0.777032 0.820625 0.622952 -0.198292

loop_
_geom_bond_atom_site_label_1
_geom_bond_atom_site_label_2
_geom_bond_distance
_ccdc_geom_bond_type
C25   H1    1.078422 S    
O6    Cu1   1.979131 S    
C20   C28   1.477719 S    
C17   C19   1.389949 A    
N11   O29   1.300283 A    
C9    C10   1.398594 A    
N5    O13   1.298033 A    
C8    N8    1.417190 S    
C15   C18   1.420369 A    
O5    C3    1.321733 A    
C16   C17   1.415040 A    
N3    O9    1.300759 A    
O1    C1    1.335827 A    
C22   N2    1.370183 A    
N12   O32   1.297474 A    
Cu1   N1    2.069158 S    
Cu2   N2    2.069061 S    
C26   O22   1.219384 D    
C4    C12   1.482876 S    
C24   N1    1.388872 A    
C27   O23   1.220144 D    
O2    Cu1   1.976891 S    
C14   N4    1.434605 S    
N7    O18   1.297417 A    
C13   C14   1.401030 A    
C21   C23   1.436615 A    
N10   O27   1.296649 A    
O7    C3    1.313454 A    
N4    O12   1.296309 A    
Cu1   Cu2   2.753397 S    
N11   O30   1.295418 A    
O2    C2    1.333079 A    
N8    O20   1.295936 A    
N6    O16   1.302037 A    
C11   C13   1.411347 A    
C5    C10   1.413837 A    
C19   C27   1.479577 S    
N9    O25   1.295565 A    
C9    C12   1.414482 A    
N12   O31   1.298931 A    
O4    C2    1.310459 A    
O8    Cu2   1.978256 S    
C6    N6    1.443585 S    
C22   N10   1.441878 S    
C15   C16   1.415963 A    
C13   N3    1.432557 S    
C3    C11   1.469413 S    
N9    O26   1.296552 A    
C28   O24   1.220268 D    
C21   N9    1.441706 S    
O7    Cu2   1.979268 S    
C19   C20   1.397245 A    
C1    C18   1.492679 S    
C16   C26   1.494023 S    
C2    C17   1.483247 S    
O6    C4    1.325330 A    
C7    C8    1.408227 A    
N5    O14   1.301670 A    
O3    Cu2   1.977013 S    
O8    C4    1.316072 A    
C23   N11   1.413295 S    
N4    O11   1.301897 A    
C25   O21   1.219433 D    
C12   C14   1.415625 A    
O1    Cu1   1.977649 S    
C7    N7    1.431198 S    
N8    O19   1.297702 A    
C5    C7    1.415201 A    
N6    O15   1.301518 A    
C15   C25   1.492512 S    
O3    C1    1.312229 A    
C28   H4    1.086629 S    
C18   C20   1.396382 A    
C26   H2    1.081894 S    
C5    N5    1.439689 S    
N3    O10   1.299639 A    
C6    C9    1.397348 A    
C23   N1    1.378624 A    
O4    Cu2   1.977767 S    
C27   H3    1.086602 S    
O5    Cu1   1.978123 S    
C10   C11   1.407400 A    
C6    C8    1.405342 A    
N7    O17   1.301085 A    
C24   N12   1.412703 S    
C21   N2    1.377803 A    
N10   O28   1.297358 A    
C22   C24   1.436086 A    
