data_mof_unit_49924.cif
_audit_creation_date              2012-12-11T16:43:19-0500
_audit_creation_method            fapswitch 2.2
_symmetry_space_group_name_H-M    P1
_symmetry_Int_Tables_number       1
_space_group_crystal_system       triclinic
_cell_length_a                    6.929794
_cell_length_b                    23.258308
_cell_length_c                    25.833553
_cell_angle_alpha                 104.869836
_cell_angle_beta                  90.307543
_cell_angle_gamma                 90.464144
_cell_volume                      4024.04088707

loop_
_atom_site_label
_atom_site_type_symbol
_atom_type_description
_atom_site_fract_x
_atom_site_fract_y
_atom_site_fract_z
_atom_type_partial_charge
O1    O     O_R   0.505750 0.453350 0.547660 -0.540773
O2    O     O_R   0.170990 0.432220 0.437590 -0.539087
O3    O     O_R   0.005600 0.546650 0.452340 -0.540540
C1    C     C_R   0.339593 0.415225 0.417622 0.708628
O4    O     O_R   0.175720 0.446240 0.546340 -0.542447
O5    O     O_R   0.010370 0.560770 0.561860 -0.538731
C2    C     C_R   0.344792 0.434163 0.562829 0.688089
O6    O     O_R   0.500990 0.439230 0.438140 -0.536988
O7    O     O_3   0.340820 0.537560 0.504970 -0.369208
V1    V     V_3+5 0.064050 0.493030 0.499080 1.399191
O8    O     O_R   0.680940 0.567780 0.562410 -0.542058
C3    C     C_R   0.850808 0.584531 0.582463 0.712742
O9    O     O_R   0.676210 0.553760 0.453660 -0.541962
C4    C     C_R   0.845129 0.565913 0.437233 0.690951
V2    V     V_3+5 0.564640 0.506970 0.500920 1.397953
O10   O     O_3   0.837740 0.462440 0.495030 -0.368083
C5    C     C_R   0.772906 0.876573 0.115694 -0.163357
H1    H     H_    0.640181 0.888909 0.099210 0.120885
C6    C     C_R   0.761521 0.841051 0.151889 -0.144276
H2    H     H_    0.620658 0.826534 0.161673 0.100160
C7    C     C_R   0.929586 0.823733 0.174465 0.094720
C8    C     C_R   0.109569 0.842707 0.159543 -0.142694
H3    H     H_    0.241893 0.831031 0.176678 0.098792
C9    C     C_R   0.121048 0.878087 0.123156 -0.161236
H4    H     H_    0.261979 0.892180 0.112971 0.117090
C10   C     C_R   0.952782 0.895623 0.100821 -0.054701
C11   C     C_R   0.053483 0.741604 0.212961 -0.150706
H5    H     H_    0.168357 0.733237 0.183819 0.111036
C12   C     C_R   0.041191 0.706292 0.249348 -0.152094
H6    H     H_    0.147039 0.671780 0.247145 0.109450
C13   C     C_R   0.892040 0.714532 0.287250 0.080962
C14   C     C_R   0.755484 0.759095 0.287689 -0.151014
H7    H     H_    0.640587 0.767448 0.316823 0.110383
C15   C     C_R   0.767779 0.794411 0.251299 -0.152948
H8    H     H_    0.661917 0.828916 0.253492 0.108226
C16   C     C_R   0.916924 0.786164 0.213394 0.080898
C17   C     C_R   0.699352 0.657864 0.340993 -0.141598
H9    H     H_    0.567026 0.669605 0.323905 0.099120
C18   C     C_R   0.687894 0.622298 0.377230 -0.160535
H10   H     H_    0.546974 0.608145 0.387364 0.117580
C19   C     C_R   0.856180 0.604637 0.399464 -0.055492
C20   C     C_R   0.036032 0.623823 0.384703 -0.161790
H11   H     H_    0.168768 0.611436 0.401145 0.121066
C21   C     C_R   0.047393 0.659527 0.348662 -0.143640
H12   H     H_    0.188248 0.674109 0.338940 0.099944
C22   C     C_R   0.879331 0.676905 0.326132 0.094472
C23   C     C_R   0.713143 0.644944 0.668803 -0.222385
C24   C     C_R   0.864420 0.634237 0.631530 -0.083943
C25   C     C_R   0.031320 0.670417 0.641885 -0.217983
C26   C     C_R   0.047313 0.717032 0.688619 0.088934
C27   C     C_R   0.896408 0.726861 0.726232 0.053208
C28   C     C_R   0.729191 0.690478 0.716398 0.091251
C29   C     C_R   0.211717 0.753982 0.698461 -0.190767
C30   C     C_R   0.227791 0.799861 0.745500 -0.181661
C31   C     C_R   0.080129 0.809469 0.783639 0.091351
C32   C     C_R   0.912910 0.773086 0.773804 0.053206
C33   C     C_R   0.762003 0.782917 0.811417 0.088849
C34   C     C_R   0.597599 0.745966 0.801575 -0.190520
C35   C     C_R   0.581528 0.700086 0.754537 -0.181439
C36   C     C_R   0.096180 0.855001 0.831234 -0.222478
C37   C     C_R   0.944900 0.865709 0.868506 -0.083993
C38   C     C_R   0.777995 0.829532 0.858150 -0.217811
H13   H     H_    0.584742 0.617000 0.661313 0.124168
H14   H     H_    0.148192 0.662652 0.613254 0.128236
H15   H     H_    0.328690 0.747156 0.669919 0.134367
H16   H     H_    0.356597 0.827588 0.752218 0.136127
H17   H     H_    0.224583 0.882945 0.838725 0.124105
H18   H     H_    0.661122 0.837300 0.886781 0.128306
H19   H     H_    0.480625 0.752792 0.830117 0.134504
H20   H     H_    0.452723 0.672359 0.747818 0.136241
C39   C     C_R   0.312295 0.177343 0.135807 -0.214840
C40   C     C_R   0.458274 0.134849 0.131320 -0.083774
C41   C     C_R   0.584515 0.138304 0.174781 -0.220825
C42   C     C_R   0.564975 0.183257 0.223233 0.073709
C43   C     C_R   0.419614 0.226695 0.226501 0.012498
C44   C     C_R   0.292958 0.223379 0.182719 0.103267
C45   C     C_R   0.682411 0.185411 0.269074 0.141651
C46   C     C_R   0.662542 0.232933 0.315101 -0.219049
C47   C     C_R   0.521238 0.276357 0.318000 0.064613
C48   C     C_R   0.395914 0.272491 0.274183 0.034425
C49   C     C_R   0.245052 0.314039 0.278283 0.105151
C50   C     C_R   0.119961 0.309690 0.234561 -0.177411
C51   C     C_R   0.144257 0.265026 0.187193 -0.185884
C52   C     C_R   0.501026 0.323004 0.364601 -0.197656
C53   C     C_R   0.351913 0.364714 0.369001 -0.084800
C54   C     C_R   0.222108 0.359251 0.325950 -0.215101
H21   H     H_    0.212985 0.174396 0.102620 0.121489
H22   H     H_    0.694016 0.104628 0.170551 0.128616
H23   H     H_    0.755350 0.235235 0.349524 0.127129
H24   H     H_    0.600167 0.326508 0.397916 0.121384
H25   H     H_    0.107312 0.391313 0.328940 0.118816
H26   H     H_    0.003088 0.340913 0.236973 0.128550
H27   H     H_    0.044879 0.262601 0.154159 0.128249
C55   C     C_R   0.275152 0.115525 0.877725 -0.160746
H28   H     H_    0.143181 0.096300 0.888446 0.120976
C56   C     C_R   0.263846 0.151080 0.841586 -0.144180
H29   H     H_    0.123996 0.157598 0.825205 0.100521
C57   C     C_R   0.430925 0.176788 0.825947 0.094734
C58   C     C_R   0.609888 0.165854 0.847519 -0.141552
H30   H     H_    0.741298 0.185552 0.837031 0.099272
C59   C     C_R   0.621333 0.130094 0.883608 -0.162304
H31   H     H_    0.761468 0.122740 0.899381 0.119389
C60   C     C_R   0.454009 0.104439 0.899216 -0.054973
C61   C     C_R   0.561425 0.212056 0.748276 -0.151221
H32   H     H_    0.682229 0.182210 0.745461 0.109761
C62   C     C_R   0.548485 0.247056 0.711647 -0.152111
H33   H     H_    0.659909 0.243162 0.681761 0.107845
C63   C     C_R   0.391975 0.285585 0.712856 0.081634
C64   C     C_R   0.248732 0.288062 0.751744 -0.151054
H34   H     H_    0.127924 0.317906 0.754558 0.110080
C65   C     C_R   0.261672 0.253062 0.788371 -0.151702
H35   H     H_    0.150245 0.256958 0.818257 0.108336
C66   C     C_R   0.418163 0.214526 0.787158 0.081691
C67   C     C_R   0.200112 0.334198 0.652482 -0.142067
H36   H     H_    0.068749 0.314488 0.662986 0.099097
C68   C     C_R   0.188549 0.369943 0.616385 -0.162693
H37   H     H_    0.048373 0.377273 0.600622 0.119190
C69   C     C_R   0.355801 0.395617 0.600758 -0.055032
C70   C     C_R   0.534716 0.384557 0.622234 -0.161282
H38   H     H_    0.666634 0.403795 0.611495 0.120891
C71   C     C_R   0.546141 0.349015 0.658384 -0.144283
H39   H     H_    0.686027 0.342517 0.674755 0.100675
C72   C     C_R   0.379125 0.323297 0.674047 0.094780
O11   O     O_R   0.308350 0.060850 0.061810 -0.537101
O12   O     O_R   0.633860 0.053770 0.953650 -0.542207
O13   O     O_R   0.798960 0.939210 0.938150 -0.538660
C73   C     C_R   0.464854 0.065884 0.937141 0.689286
O14   O     O_R   0.638360 0.067800 0.062400 -0.539582
O15   O     O_R   0.803500 0.953330 0.047670 -0.540798
C74   C     C_R   0.469814 0.084763 0.082371 0.708524
O16   O     O_R   0.303810 0.046730 0.952290 -0.540828
O17   O     O_3   0.468430 0.962490 0.995010 -0.369190
V3    V     V_3+5 0.745300 0.006960 0.000930 1.398118
O18   O     O_R   0.132880 0.946160 0.046390 -0.542302
C75   C     C_R   0.963918 0.934131 0.062873 0.690475
O19   O     O_R   0.128380 0.932130 0.937650 -0.541999
C76   C     C_R   0.958516 0.915416 0.917571 0.713176
V4    V     V_3+5 0.244670 0.992930 0.999140 1.397207
O20   O     O_3   0.971670 0.037510 0.005000 -0.367881
C77   C     C_3   0.821456 0.136332 0.271940 -0.375923
C78   C     C_3   0.015480 0.145103 0.247606 -0.722294
H40   H     H_    0.997924 0.145891 0.205103 0.231711
H41   H     H_    0.082009 0.187569 0.270641 0.237062
H42   H     H_    0.113224 0.108127 0.249568 0.212570
H43   H     H_    0.846570 0.135650 0.314334 0.178672
H44   H     H_    0.759310 0.091974 0.252036 0.171839

loop_
_geom_bond_atom_site_label_1
_geom_bond_atom_site_label_2
_ccdc_geom_bond_type
C31   C32   A    
O13   C76   A    
C59   H31   S    
C11   C12   A    
C19   C20   A    
C6    H2    S    
C45   C77   S    
C1    O6    A    
C61   C62   A    
C67   H36   S    
C33   C38   A    
C18   C19   A    
C7    C16   S    
C45   C46   A    
C32   C33   A    
C12   H6    S    
C52   H24   S    
C5    C10   A    
O11   V4    S    
C6    C7    A    
C9    C10   A    
C27   C32   A    
C54   H25   S    
C64   C65   A    
C23   H13   S    
C47   C52   A    
C57   C58   A    
C62   H33   S    
O17   V4    S    
V2    O10   S    
C51   H27   S    
C50   H26   S    
C68   H37   S    
C15   H8    S    
C41   C42   A    
C69   C70   A    
C10   C75   S    
C7    C8    A    
O15   C75   A    
O8    V2    S    
C58   H30   S    
O13   V3    S    
O17   V3    S    
C13   C22   S    
C56   C57   A    
O16   V4    S    
O1    V2    S    
C40   C74   S    
C63   C64   A    
C29   H15   S    
C43   C48   A    
C49   C54   A    
C3    C24   S    
C59   C60   A    
C25   H14   S    
O9    C4    A    
C2    C69   S    
C55   H28   S    
C20   C21   A    
C44   C51   A    
C61   H32   S    
C21   C22   A    
C49   C50   A    
C70   C71   A    
C46   H23   S    
C77   C78   S    
C26   C29   A    
C42   C43   A    
C27   C28   A    
C9    H4    S    
C36   H17   S    
O19   V4    S    
V4    O20   S    
C78   H42   S    
C77   H44   S    
C18   H10   S    
O4    C2    A    
C46   C47   A    
C48   C49   A    
C57   C66   S    
C1    C53   S    
C26   C27   A    
C34   C35   A    
C53   C54   A    
C42   C45   A    
C61   C66   A    
C36   C37   A    
C14   C15   A    
O2    C1    A    
C43   C44   A    
C41   H22   S    
O14   V3    S    
C17   H9    S    
C28   C35   A    
C23   C24   A    
C29   C30   A    
C56   H29   S    
C5    H1    S    
O11   C74   A    
C65   C66   A    
C52   C53   A    
C70   H38   S    
C55   C56   A    
C71   H39   S    
O18   C75   A    
O3    C4    A    
C4    C19   S    
C39   H21   S    
C67   C72   A    
C24   C25   A    
C58   C59   A    
C55   C60   A    
C50   C51   A    
O6    V2    S    
O9    V2    S    
C8    C9    A    
C20   H11   S    
C63   C72   S    
O2    V1    S    
C60   C73   S    
C21   H12   S    
O7    V1    S    
O12   V3    S    
C30   C31   A    
O15   V3    S    
C65   H35   S    
O1    C2    A    
C13   C14   A    
C40   C41   A    
O14   C74   A    
C77   H43   S    
O18   V4    S    
C67   C68   A    
O8    C3    A    
C34   H19   S    
V3    O20   S    
C23   C28   A    
C30   H16   S    
C11   C16   A    
C38   H18   S    
C14   H7    S    
C78   H41   S    
O7    V2    S    
O4    V1    S    
C12   C13   A    
O3    V1    S    
V1    O10   S    
C78   H40   S    
O5    C3    A    
C37   C76   S    
C33   C34   A    
C39   C44   A    
C62   C63   A    
C5    C6    A    
C68   C69   A    
C15   C16   A    
C37   C38   A    
C73   O16   A    
C71   C72   A    
O5    V1    S    
C35   H20   S    
C47   C48   A    
C39   C40   A    
C17   C18   A    
C25   C26   A    
C64   H34   S    
C11   H5    S    
O12   C73   A    
C8    H3    S    
O19   C76   A    
C17   C22   A    
C31   C36   A    
