data_mof_unit_41451.cif
_audit_creation_date              2013-03-05T15:53:06-0500
_audit_creation_method            fapswitch 2.2
_symmetry_space_group_name_H-M    P1
_symmetry_Int_Tables_number       1
_space_group_crystal_system       triclinic
_cell_length_a                    9.942726
_cell_length_b                    10.595464
_cell_length_c                    15.477472
_cell_angle_alpha                 92.77902
_cell_angle_beta                  69.904405
_cell_angle_gamma                 93.083594
_cell_volume                      1528.25295142

loop_
_atom_site_label
_atom_site_type_symbol
_atom_site_description
_atom_site_fract_x
_atom_site_fract_y
_atom_site_fract_z
_atom_type_partial_charge
O1    O     O_R   0.385310 0.683220 0.500000 -0.633515
O2    O     O_R   0.614640 0.683250 0.500010 -0.652706
C1    C     C_R   0.503564 0.739428 0.500547 0.843569
O3    O     O_R   0.319840 0.499980 0.632240 -0.619932
O4    O     O_R   0.549160 0.500000 0.632250 -0.574438
C2    C     C_R   0.412095 0.496835 0.675767 0.832424
Zn1   Zn    Zn3+2 0.346880 0.499980 0.499990 1.023577
Zn2   Zn    Zn3+2 0.653120 0.500020 0.500010 0.963619
O5    O     O_R   0.385360 0.316750 0.499990 -0.514741
O6    O     O_R   0.614690 0.316780 0.500000 -0.614593
O7    O     O_R   0.450840 0.500000 0.367750 -0.589657
O8    O     O_R   0.680160 0.500020 0.367760 -0.622280
C3    C     C_R   0.492879 0.260265 0.505034 0.864712
C4    C     C_R   0.588135 0.496947 0.324756 0.864391
C5    C     C_R   0.364637 0.464826 0.773838 -0.177501
C6    C     C_R   0.637600 0.476246 0.225109 -0.086670
C7    C     C_R   0.181218 0.374013 0.905587 -0.206048
C8    C     C_R   0.221904 0.427181 0.819535 -0.207253
C9    C     C_R   0.466618 0.454236 0.818040 0.301258
C10   C     C_R   0.426869 0.393739 0.903216 -0.085013
C11   C     C_R   0.280482 0.363793 0.950363 0.026897
C12   C     C_R   0.526677 0.377019 0.947886 0.054473
C13   C     C_R   0.478407 0.376394 0.044529 0.013333
C14   C     C_R   0.331494 0.348354 0.091329 -0.335696
C15   C     C_R   0.234818 0.331732 0.043370 0.486764
C16   C     C_R   0.673250 0.363313 0.899392 -0.087753
C17   C     C_R   0.773280 0.390761 0.942163 -0.221071
C18   C     C_R   0.727495 0.421101 0.036137 0.131467
C19   C     C_R   0.579513 0.407647 0.089231 0.119312
C20   C     C_R   0.826990 0.464635 0.077718 -0.148713
C21   C     C_R   0.782609 0.490728 0.171934 -0.168094
C22   C     C_R   0.537210 0.435745 0.183692 -0.248358
H1    H     H_    0.425747 0.429350 0.226065 0.177061
H2    H     H_    0.861289 0.523014 0.202979 0.171295
H3    H     H_    0.885464 0.392094 0.900688 0.158578
H4    H     H_    0.071633 0.341515 0.937631 0.170713
H5    H     H_    0.141216 0.440129 0.788971 0.224627
H6    H     H_    0.289110 0.336688 0.164451 0.142484
H7    H     H_    0.710800 0.331543 0.828285 0.206112
H8    H     H_    0.938494 0.481560 0.037502 0.165245
H9    H     H_    0.654812 0.887212 0.367863 0.144331
C23   C     C_R   0.367983 0.872011 0.673261 -0.198844
H10   H     H_    0.396602 0.776750 0.679985 0.128948
C24   C     C_R   0.277499 0.934440 0.750913 -0.211007
H11   H     H_    0.236504 0.887366 0.815923 0.168163
C25   C     C_R   0.228781 0.052343 0.742669 -0.206429
H12   H     H_    0.144087 0.091695 0.800756 0.176080
C26   C     C_R   0.276646 0.111721 0.657448 0.285689
C27   C     C_R   0.392842 0.059859 0.583882 -0.018591
C28   C     C_R   0.423709 0.933681 0.588741 0.068326
C29   C     C_R   0.509199 0.872137 0.507872 -0.060001
C30   C     C_R   0.587184 0.936501 0.429168 -0.213141
H13   H     H_    0.643421 0.116647 0.369812 0.137113
C31   C     C_R   0.577578 0.064913 0.429483 -0.189419
C32   C     C_R   0.481110 0.126280 0.505461 -0.061420
H14   H     H_    0.906859 0.343392 0.412372 0.161694
C33   C     C_R   0.814435 0.683744 0.605865 -0.038282
H15   H     H_    0.704143 0.685436 0.613322 0.196427
C34   C     C_R   0.860381 0.772126 0.660163 -0.111702
H16   H     H_    0.787901 0.841992 0.701609 0.168264
C35   C     C_R   0.995896 0.766045 0.665543 -0.168597
H17   H     H_    0.028979 0.831428 0.710993 0.167007
C36   C     C_R   0.087309 0.673446 0.614957 -0.101459
H18   H     H_    0.186006 0.669312 0.627163 0.195720
C37   C     C_R   0.047870 0.587809 0.554385 0.072068
C38   C     C_R   0.905368 0.590504 0.551878 0.171650
N1    N     N_R   0.856800 0.501200 0.500850 -0.124203
C39   C     C_R   0.949412 0.412973 0.450267 -0.258113
C40   C     C_R   0.095578 0.412275 0.448726 0.593115
N2    N     N_R   0.142390 0.501280 0.500880 -0.141361
O9    O     O_3   0.090691 0.307839 0.091275 -0.668653
C41   C     C_3   0.066220 0.179212 0.114652 0.059213
H19   H     H_    0.965020 0.172440 0.174379 0.174499
H20   H     H_    0.151630 0.142115 0.136918 0.129823
C42   C     C_3   0.046948 0.097081 0.035035 -0.370271
H21   H     H_    0.959826 0.134271 0.014929 0.232557
H22   H     H_    0.147709 0.100493 0.974608 0.214641
C43   C     C_3   0.009104 0.959738 0.062284 -0.929141
H23   H     H_    0.096093 0.919878 0.081032 0.265532
H24   H     H_    0.995667 0.902805 0.003396 0.267188
H25   H     H_    0.907237 0.953190 0.121697 0.265340
N3    N     N_R   0.181714 0.196371 0.639740 0.216618
O10   O     O_R   0.089846 0.256578 0.707841 -0.444265
O11   O     O_R   0.152232 0.178375 0.564470 -0.392802
O12   O     O_3   0.194586 0.323018 0.399368 -0.589773
C44   C     C_3   0.148171 0.235350 0.342389 0.012593
H26   H     H_    0.245799 0.197554 0.289721 0.158344
H27   H     H_    0.091504 0.280698 0.302171 0.118715
C45   C     C_3   0.063125 0.122172 0.396948 -0.260163
H28   H     H_    0.137160 0.064695 0.417122 0.256453
H29   H     H_    0.978116 0.154803 0.460677 0.248931
C46   C     C_3   0.993392 0.037898 0.340244 -1.011745
H30   H     H_    0.912892 0.090979 0.323439 0.257590
H31   H     H_    0.937904 0.954882 0.380677 0.282350
H32   H     H_    0.075607 0.003555 0.275742 0.264505
N4    N     N_R   0.598110 0.529092 0.787616 0.192430
O13   O     O_R   0.607434 0.637229 0.829104 -0.417917
O14   O     O_R   0.712745 0.482988 0.727466 -0.412495

loop_
_geom_bond_atom_site_label_1
_geom_bond_atom_site_label_2
_geom_bond_distance
_ccdc_geom_bond_type
C5    C8    1.396443 A    
C36   C37   1.409905 A    
C9    C10   1.414796 A    
C33   C38   1.410155 A    
Zn1   N2    2.029281 S    
H13   C31   1.084900 S    
C6    C21   1.397375 A    
C5    C9    1.416033 A    
C16   C17   1.383710 A    
C13   C19   1.420849 A    
C18   C19   1.420708 A    
C8    H5    1.079407 S    
C19   C22   1.397040 A    
C41   C42   1.533889 S    
O12   C44   1.416911 S    
C20   C21   1.389049 A    
O7    C4    1.298367 A    
C43   H24   1.110915 S    
C16   H7    1.076646 S    
C33   C34   1.390463 A    
C37   N2    1.376156 A    
C35   C36   1.390739 A    
O5    C3    1.279777 A    
C2    C5    1.477219 S    
C25   H12   1.082791 S    
C30   C31   1.368714 A    
C39   C40   1.445676 A    
N4    O14   1.300421 A    
C14   H6    1.074217 S    
C13   C14   1.411996 A    
C15   O9    1.384344 S    
C7    H4    1.075442 S    
C45   H29   1.110110 S    
H9    C30   1.084659 S    
C38   N1    1.375765 A    
C34   H16   1.082823 S    
C35   H17   1.081758 S    
C23   C24   1.391159 A    
O3    Zn1   1.970764 S    
C24   C25   1.390874 A    
C7    C8    1.390269 A    
C25   C26   1.406764 A    
C34   C35   1.383285 A    
N1    C39   1.364163 A    
C14   C15   1.401909 A    
O3    C2    1.313950 A    
C1    C29   1.404842 S    
C43   H23   1.110976 S    
C17   H3    1.078696 S    
H14   C39   1.077770 S    
C44   C45   1.537704 S    
C46   H32   1.110532 S    
C7    C11   1.398172 A    
C29   C30   1.387361 A    
O1    C1    1.291590 A    
Zn1   O7    1.950333 S    
C42   H21   1.111902 S    
Zn2   O8    1.970761 S    
N4    O13   1.300699 A    
C46   H31   1.110673 S    
C28   C29   1.401336 A    
C21   H2    1.083261 S    
C20   H8    1.078860 S    
C45   C46   1.524394 S    
C42   H22   1.111402 S    
C23   C28   1.411059 A    
C41   H20   1.115603 S    
C26   C27   1.427170 A    
O8    C4    1.301709 A    
N3    O10   1.299290 A    
N3    O11   1.298693 A    
C4    C6    1.458151 S    
C23   H10   1.082582 S    
C40   O12   1.400135 S    
C24   H11   1.082725 S    
C44   H26   1.110646 S    
Zn1   O5    1.998837 S    
C11   C15   1.405506 A    
C31   C32   1.394084 A    
O1    Zn1   1.958488 S    
O2    Zn2   1.998838 S    
C10   C12   1.412953 A    
C41   H19   1.109785 S    
O6    C3    1.301203 A    
O4    Zn2   1.950333 S    
C6    C22   1.399405 A    
C22   H1    1.076887 S    
C18   C20   1.401836 A    
O2    C1    1.279838 A    
O9    C41   1.413919 S    
C27   C32   1.422364 A    
C43   H25   1.111243 S    
C33   H15   1.063536 S    
O4    C2    1.295577 A    
C46   H30   1.109173 S    
C26   N3    1.436356 S    
C44   H27   1.111277 S    
C37   C38   1.432502 A    
C40   N2    1.376480 A    
C42   C43   1.525987 S    
C36   H18   1.064623 S    
C10   C11   1.412282 A    
Zn2   N1    2.029002 S    
Zn2   O6    1.958487 S    
C27   C28   1.398900 A    
C12   C16   1.403136 A    
C17   C18   1.393378 A    
C12   C13   1.405381 A    
C45   H28   1.111234 S    
C9    N4    1.435847 S    
C3    C32   1.418308 S    
