data_mof_unit_42573.cif
_audit_creation_date              2012-12-10T18:18:15-0500
_audit_creation_method            fapswitch 2.2
_symmetry_space_group_name_H-M    P1
_symmetry_Int_Tables_number       1
_space_group_crystal_system       triclinic
_cell_length_a                    14.133965
_cell_length_b                    14.887096
_cell_length_c                    15.431926
_cell_angle_alpha                 88.299707
_cell_angle_beta                  68.356588
_cell_angle_gamma                 90.079203
_cell_volume                      3016.56565976

loop_
_atom_site_label
_atom_site_type_symbol
_atom_type_description
_atom_site_fract_x
_atom_site_fract_y
_atom_site_fract_z
_atom_type_partial_charge
C1    C     C_R   0.500448 0.672675 0.499135 0.958056
C2    C     C_R   0.501811 0.767813 0.497055 -0.150584
C3    C     C_R   0.526285 0.190221 0.417694 -0.316956
C4    C     C_R   0.476681 0.809574 0.581520 -0.298713
C5    C     C_R   0.529236 0.097328 0.415340 0.041016
C6    C     C_R   0.476286 0.902432 0.583657 0.032974
C7    C     C_R   0.502408 0.046774 0.500247 -0.041971
C8    C     C_R   0.503194 0.952971 0.498732 -0.043509
C9    C     C_R   0.474894 0.090104 0.586612 -0.022791
C10   C     C_R   0.530411 0.909591 0.412389 -0.021784
C11   C     C_R   0.559321 0.054301 0.329691 0.509425
C12   C     C_R   0.499733 0.327258 0.500611 0.952469
C13   C     C_R   0.448419 0.945350 0.669188 0.513732
C14   C     C_R   0.557816 0.960917 0.328906 -0.243455
C15   C     C_R   0.449531 0.038767 0.669955 -0.251827
C16   C     C_R   0.436371 0.498961 0.676079 0.977423
C17   C     C_R   0.563719 0.499960 0.323141 0.960092
C18   C     C_R   0.181425 0.434414 0.550142 0.498584
C19   C     C_R   0.818878 0.564942 0.449404 0.525596
C20   C     C_R   0.222155 0.563383 0.447305 0.414944
C21   C     C_R   0.777045 0.436835 0.553331 0.398046
C22   C     C_R   0.123616 0.561800 0.442843 -0.067986
C23   C     C_R   0.428967 0.368700 0.075820 0.589077
C24   C     C_R   0.876684 0.436229 0.555492 -0.080674
C25   C     C_R   0.050888 0.498724 0.498738 0.030325
C26   C     C_R   0.949792 0.498733 0.498943 0.012823
C27   C     C_R   0.078731 0.436244 0.555091 -0.099499
C28   C     C_R   0.921753 0.561990 0.443390 -0.096727
C29   C     C_R   0.095572 0.621759 0.384240 -0.100022
C30   C     C_R   0.904783 0.376211 0.614004 -0.115927
C31   C     C_R   0.996872 0.620986 0.383694 -0.189701
C32   C     C_R   0.003415 0.377342 0.614897 -0.217520
C33   C     C_R   0.398224 0.480704 0.776770 -0.276011
C34   C     C_R   0.642651 0.477524 0.883672 0.606547
C35   C     C_R   0.604556 0.492779 0.220199 -0.285447
C36   C     C_R   0.300483 0.382593 0.906985 -0.226684
C37   C     C_R   0.747463 0.488559 0.071023 -0.269782
C38   C     C_R   0.313457 0.423439 0.820657 0.525888
C39   C     C_R   0.710994 0.497055 0.168069 0.474151
C40   C     C_R   0.461780 0.503715 0.823963 0.375098
C41   C     C_R   0.537484 0.478153 0.172614 0.380833
C42   C     C_R   0.460326 0.450892 0.901335 0.055153
C43   C     C_R   0.576810 0.456538 0.078155 -0.006544
C44   C     C_R   0.373683 0.394890 0.946904 -0.048563
C45   C     C_R   0.360704 0.352185 0.032149 -0.234877
C46   C     C_R   0.680145 0.473350 0.025720 -0.017419
C47   C     C_R   0.538951 0.454407 0.937792 -0.044359
C48   C     C_R   0.513572 0.427418 0.032082 -0.091833
C49   C     C_3   0.224294 0.286855 0.548948 -0.183373
C50   C     C_3   0.776055 0.712577 0.454828 -0.269030
C51   C     C_3   0.819220 0.596476 0.194154 -0.167752
C52   C     C_3   0.161124 0.453492 0.810144 -0.246632
C53   C     C_3   0.471910 0.248601 0.146828 -0.263118
C54   C     C_3   0.750423 0.552700 0.749057 -0.196953
C55   C     C_3   0.691210 0.110952 0.205208 -0.340169
C56   C     C_R   0.713656 0.478251 0.928627 -0.318325
C57   C     C_3   0.319420 0.891041 0.797590 -0.283764
C58   C     C_R   0.473721 0.183915 0.587176 0.366524
C59   C     C_R   0.529316 0.815750 0.412037 0.359778
C60   C     C_R   0.499163 0.231998 0.502392 -0.149681
Cl1   Cl    Cl    0.308604 0.649442 0.385701 -0.490386
Cl2   Cl    Cl    0.685508 0.358169 0.623555 -0.506570
Cl3   Cl    Cl    0.407251 0.508925 0.220411 -0.488084
Cl4   Cl    Cl    0.519669 0.611860 0.799606 -0.618353
Cl5   Cl    Cl    0.439352 0.242477 0.692612 -0.582428
Cl6   Cl    Cl    0.563335 0.756817 0.306737 -0.613305
H1    H     H_    0.295801 0.307957 0.066621 0.168248
H2    H     H_    0.456597 0.768863 0.645433 0.211781
H3    H     H_    0.578430 0.929685 0.262140 0.221497
H4    H     H_    0.430090 0.070012 0.736600 0.218867
H5    H     H_    0.265882 0.238509 0.577462 0.197353
H6    H     H_    0.269065 0.296648 0.472837 0.163013
H7    H     H_    0.149851 0.255115 0.558975 0.129697
H8    H     H_    0.730682 0.701188 0.530620 0.177036
H9    H     H_    0.735311 0.762561 0.427211 0.201656
H10   H     H_    0.850784 0.743075 0.446028 0.141381
H11   H     H_    0.758102 0.645806 0.226093 0.216145
H12   H     H_    0.794150 0.487828 0.888692 0.144250
H13   H     H_    0.858477 0.612529 0.118379 0.116282
H14   H     H_    0.877018 0.603566 0.226397 0.200636
H15   H     H_    0.118873 0.440080 0.886074 0.132383
H16   H     H_    0.109418 0.436020 0.773663 0.199645
H17   H     H_    0.180630 0.526321 0.795834 0.142742
H18   H     H_    0.453497 0.212381 0.214971 0.237124
H19   H     H_    0.554538 0.265951 0.119631 0.163266
H20   H     H_    0.454420 0.202221 0.099250 0.167720
H21   H     H_    0.748561 0.576654 0.680997 0.188889
H22   H     H_    0.827369 0.525521 0.736004 0.135828
H23   H     H_    0.149443 0.669685 0.337731 0.201578
H24   H     H_    0.736812 0.612460 0.793709 0.172430
H25   H     H_    0.723480 0.144862 0.251725 0.174967
H26   H     H_    0.711181 0.152989 0.140216 0.197358
H27   H     H_    0.726652 0.044127 0.185829 0.178426
H28   H     H_    0.301352 0.848155 0.861817 0.212179
H29   H     H_    0.282621 0.859396 0.753280 0.151400
H30   H     H_    0.286851 0.958500 0.818980 0.162167
H31   H     H_    0.850719 0.328598 0.660800 0.202636
H32   H     H_    0.979807 0.667191 0.336103 0.166822
H33   H     H_    0.020014 0.331905 0.663343 0.176273
H34   H     H_    0.235627 0.338080 0.940540 0.165319
H35   H     H_    0.828416 0.495187 0.031044 0.156736
H36   H     H_    0.545861 0.230911 0.353811 0.186032
N1    N     N_R   0.249980 0.499930 0.499960 -0.176354
N2    N     N_R   0.750020 0.500070 0.500040 -0.175316
O1    O     O_R   0.419720 0.632140 0.499980 -0.568104
O2    O     O_3   0.786838 0.632988 0.404222 -0.591282
O3    O     O_3   0.779989 0.507752 0.211541 -0.589788
O4    O     O_3   0.248847 0.400298 0.775891 -0.522955
O5    O     O_3   0.412133 0.326391 0.161307 -0.593625
O6    O     O_3   0.675108 0.484517 0.786878 -0.556561
O7    O     O_3   0.584323 0.103297 0.246586 -0.635277
O8    O     O_3   0.426080 0.896071 0.751915 -0.582323
O9    O     O_R   0.580280 0.367860 0.500020 -0.565612
O10   O     O_R   0.580270 0.632160 0.499970 -0.598340
O11   O     O_R   0.419730 0.367840 0.500030 -0.600015
O12   O     O_R   0.373870 0.499980 0.632250 -0.579425
O13   O     O_R   0.626130 0.500020 0.367750 -0.558531
O14   O     O_R   0.534420 0.500000 0.632240 -0.541871
O15   O     O_R   0.465580 0.500000 0.367760 -0.535427
O16   O     O_3   0.212956 0.367853 0.597449 -0.548857
Zn1   Zn    Zn3+2 0.392800 0.499980 0.500010 1.078830
Zn2   Zn    Zn3+2 0.607200 0.500020 0.499990 1.081604

loop_
_geom_bond_atom_site_label_1
_geom_bond_atom_site_label_2
_ccdc_geom_bond_type
C37   H35   S    
C34   C56   A    
C23   C45   A    
C22   C29   A    
C2    C4    A    
C55   H27   S    
C29   H23   S    
C7    C8    A    
C20   N1    A    
C39   O3    S    
C30   H31   S    
C53   H18   S    
O11   Zn1   S    
C24   C26   A    
C54   H24   S    
C13   O8    S    
C16   O14   A    
C50   H8    S    
C59   Cl6   S    
C54   H21   S    
C11   C14   A    
C57   O8    S    
N2    Zn2   S    
C58   C60   A    
C56   H12   S    
C54   O6    S    
C9    C58   A    
O14   Zn2   S    
C31   H32   S    
C20   Cl1   S    
C51   H14   S    
C55   H25   S    
C21   N2    A    
O9    Zn2   S    
C49   H6    S    
C45   H1    S    
C53   H20   S    
C43   C48   A    
C17   O13   A    
C18   N1    A    
C12   O11   A    
C3    C60   A    
C40   C42   A    
C41   C43   A    
C42   C44   A    
C16   O12   A    
C24   C30   A    
O15   Zn1   S    
C23   O5    S    
C33   C40   A    
O12   Zn1   S    
C11   O7    S    
C4    C6    A    
C10   C14   A    
C5    C7    A    
C2    C59   A    
C6    C8    A    
C25   C26   A    
C57   H30   S    
C12   C60   S    
C52   H17   S    
C35   C39   A    
O13   Zn2   S    
C51   H11   S    
C55   H26   S    
C50   H10   S    
C16   C33   S    
C19   N2    A    
C58   Cl5   S    
C47   C48   A    
O1    Zn1   S    
C36   H34   S    
C52   H16   S    
C19   C28   A    
C21   Cl2   S    
C3    H36   S    
C8    C10   A    
C22   C25   A    
C20   C22   A    
C57   H28   S    
C13   C15   A    
C49   H5    S    
C34   O6    S    
C14   H3    S    
C49   H7    S    
C36   C44   A    
C1    O10   A    
C41   Cl3   S    
N1    Zn1   S    
C18   O16   S    
C44   C45   A    
C4    H2    S    
C12   O9    A    
C53   O5    S    
C7    C9    A    
C15   H4    S    
C23   C48   A    
C55   O7    S    
C27   C32   A    
C28   C31   A    
C18   C27   A    
C3    C5    A    
C5    C11   A    
C25   C27   A    
C26   C28   A    
C33   C38   A    
C40   Cl4   S    
C32   H33   S    
C54   H22   S    
C36   C38   A    
C10   C59   A    
C9    C15   A    
C29   C31   A    
C50   H9    S    
C6    C13   A    
C30   C32   A    
C1    C2    S    
O10   Zn2   S    
C42   C47   A    
C38   O4    S    
C52   H15   S    
C35   C41   A    
C43   C46   A    
C51   H13   S    
C17   O15   A    
C49   O16   S    
C19   O2    S    
C37   C39   A    
C52   O4    S    
C51   O3    S    
C57   H29   S    
C21   C24   A    
C46   C56   A    
C50   O2    S    
C53   H19   S    
C34   C47   A    
C17   C35   S    
C37   C46   A    
C1    O1    A    
