data_mof_unit_51760.cif
_audit_creation_date              2013-03-05T15:47:08-0500
_audit_creation_method            fapswitch 2.2
_symmetry_space_group_name_H-M    P1
_symmetry_Int_Tables_number       1
_space_group_crystal_system       triclinic
_cell_length_a                    10.31422
_cell_length_b                    10.467187
_cell_length_c                    13.370601
_cell_angle_alpha                 93.465958
_cell_angle_beta                  100.775696
_cell_angle_gamma                 96.102093
_cell_volume                      1405.23727681

loop_
_atom_site_label
_atom_site_type_symbol
_atom_site_description
_atom_site_fract_x
_atom_site_fract_y
_atom_site_fract_z
_atom_type_partial_charge
O1    O     O_R   0.935190 0.693030 0.507870 -0.585556
O2    O     O_R   0.064810 0.306970 0.492130 -0.600572
O3    O     O_R   0.142080 0.658430 0.482770 -0.545494
O4    O     O_R   0.857920 0.341570 0.517230 -0.530117
C1    C     C_R   0.051463 0.734315 0.490865 0.823624
C2    C     C_R   0.945621 0.265102 0.502749 0.826630
O5    O     O_R   0.969700 0.527180 0.651960 -0.556382
O6    O     O_R   0.030300 0.472820 0.348040 -0.566982
O7    O     O_R   0.176600 0.492580 0.626860 -0.561169
O8    O     O_R   0.823400 0.507420 0.373140 -0.534292
C3    C     C_R   0.093794 0.517442 0.686736 0.914213
C4    C     C_R   0.906587 0.485719 0.312953 0.846657
Zn1   Zn    Zn3+2 0.861850 0.523100 0.516760 1.139675
Zn2   Zn    Zn3+2 0.138150 0.476900 0.483240 1.103196
C5    C     C_R   0.142006 0.537376 0.797213 -0.191747
C6    C     C_R   0.851548 0.456981 0.203674 -0.192380
C7    C     C_R   0.156944 0.656112 0.961129 -0.183017
C8    C     C_R   0.781857 0.286425 0.068270 -0.177758
C9    C     C_R   0.091765 0.626057 0.859856 0.313778
C10   C     C_R   0.878942 0.346565 0.149364 0.297248
C11   C     C_R   0.247486 0.472562 0.839444 -0.123265
C12   C     C_R   0.739835 0.515876 0.165649 -0.158808
C13   C     C_R   0.306613 0.494859 0.943012 0.126358
C14   C     C_R   0.633521 0.447649 0.095439 0.129933
C15   C     C_R   0.267406 0.595363 0.001226 0.042047
C16   C     C_R   0.658143 0.332896 0.043845 0.029214
C17   C     C_R   0.414062 0.429456 0.986069 -0.049894
C18   C     C_R   0.505026 0.490266 0.073564 -0.064078
C19   C     C_R   0.461407 0.589848 0.133669 0.310281
C20   C     C_R   0.435273 0.307342 0.943066 0.292864
C21   C     C_R   0.341411 0.637265 0.097426 -0.187063
C22   C     C_R   0.558312 0.262853 0.970693 -0.180229
H1    H     H_    0.308115 0.711151 0.143682 0.195207
H2    H     H_    0.574956 0.170730 0.936815 0.206458
H3    H     H_    0.735446 0.611558 0.198197 0.190073
H4    H     H_    0.287607 0.409374 0.789152 0.205490
H5    H     H_    0.123596 0.729888 0.007427 0.186096
H6    H     H_    0.801083 0.200402 0.026829 0.204178
H7    H     H_    0.026199 0.110007 0.376130 0.224872
H8    H     H_    0.872899 0.860821 0.392329 0.213024
C23   C     C_2   0.072887 0.869498 0.470302 0.125364
C24   C     C_2   0.908020 0.125966 0.488891 0.153658
C25   C     C_2   0.966450 0.921065 0.421799 -0.203365
C26   C     C_2   0.964169 0.059505 0.422115 -0.175582
N1    N     N_2   0.322180 0.446120 0.460900 -0.095488
N2    N     N_2   0.677820 0.553880 0.539100 -0.078208
C27   C     C_2   0.433700 0.493106 0.524183 0.236606
C28   C     C_2   0.572261 0.467266 0.511495 0.308487
N3    N     N_R   0.002359 0.293676 0.176208 0.216234
O9    O     O_R   0.113931 0.368514 0.186629 -0.352379
O10   O     O_R   0.004178 0.169365 0.169324 -0.366163
N4    N     N_R   0.981757 0.693306 0.820508 0.211343
O11   O     O_R   0.861987 0.632423 0.801618 -0.331080
O12   O     O_R   0.997337 0.818663 0.825901 -0.302430
N5    N     N_R   0.528096 0.636380 0.235334 0.172658
O13   O     O_R   0.563324 0.555503 0.302177 -0.430206
O14   O     O_R   0.535949 0.757980 0.265647 -0.361056
N6    N     N_R   0.328639 0.220689 0.881220 0.196998
O15   O     O_R   0.210689 0.210653 0.903682 -0.317167
O16   O     O_R   0.352680 0.140040 0.810887 -0.294095
N7    N     N_R   0.821022 0.065062 0.549423 0.256511
O17   O     O_R   0.809567 0.122468 0.635881 -0.283997
O18   O     O_R   0.742723 0.959916 0.514032 -0.310132
N8    N     N_R   0.199717 0.944676 0.508854 0.244013
O19   O     O_R   0.274429 0.916493 0.592244 -0.246687
O20   O     O_R   0.244972 0.035681 0.457896 -0.336320
N9    N     N_R   0.590920 0.337803 0.481991 0.197519
O21   O     O_R   0.558358 0.245114 0.536469 -0.287505
O22   O     O_R   0.619194 0.309657 0.393018 -0.356976
N10   N     N_R   0.426168 0.569116 0.615182 0.192605
O23   O     O_R   0.489132 0.540501 0.703156 -0.380781
O24   O     O_R   0.379127 0.679246 0.608806 -0.313560
N11   N     N_3   0.659514 0.683844 0.549969 -0.265149
H9    H     H_    0.646064 0.706572 0.624151 0.274911
H10   H     H_    0.579507 0.704621 0.495180 0.244319
N12   N     N_3   0.324732 0.360277 0.377706 -0.291637
H11   H     H_    0.347639 0.271902 0.403907 0.268358
H12   H     H_    0.392268 0.398160 0.335125 0.248065

loop_
_geom_bond_atom_site_label_1
_geom_bond_atom_site_label_2
_geom_bond_distance
_ccdc_geom_bond_type
C15   C21   1.386702 A    
N5    O13   1.297254 A    
C16   C22   1.389468 A    
N11   H10   1.047041 S    
N11   H9    1.043825 S    
C8    C16   1.402430 A    
O7    Zn2   1.880161 S    
C11   H4    1.081364 S    
C5    C9    1.415001 A    
C12   H3    1.076472 S    
N1    N12   1.393027 S    
O1    C1    1.296274 A    
C18   C19   1.438172 A    
C14   C16   1.418901 A    
Zn1   N2    2.031326 S    
N6    O16   1.301605 A    
O4    Zn1   1.896643 S    
N7    O18   1.300990 A    
C3    C5    1.462462 S    
C9    N4    1.432153 S    
H8    C25   1.087375 S    
C4    C6    1.465616 S    
N3    O10   1.301261 A    
O6    Zn2   1.932789 S    
C21   H1    1.084712 S    
N10   O23   1.301301 A    
C13   C17   1.413747 A    
C6    C10   1.409812 A    
C17   C20   1.424732 A    
C23   C25   1.348775 D    
O2    C2    1.296815 A    
C24   C26   1.349216 D    
N4    O12   1.300813 A    
Zn2   N1    2.031326 S    
N1    C27   1.321504 D    
N2    C28   1.320226 D    
N9    O21   1.300874 A    
N12   H11   1.043529 S    
O4    C2    1.302715 A    
C19   N5    1.434305 S    
N6    O15   1.301736 A    
N9    O22   1.301030 A    
N8    O20   1.300899 A    
O5    C3    1.294505 A    
C25   C26   1.451524 S    
C27   N10   1.432081 S    
C10   N3    1.434812 S    
C27   C28   1.520419 S    
C5    C11   1.391484 A    
O6    C4    1.298829 A    
C7    H5    1.084496 S    
O7    C3    1.309897 A    
C24   N7    1.441864 S    
O3    Zn2   1.896643 S    
O8    C4    1.308774 A    
N5    O14   1.301660 A    
C12   C14   1.400431 A    
O1    Zn1   1.877022 S    
N4    O11   1.300953 A    
C1    C23   1.459418 S    
C6    C12   1.391403 A    
C14   C18   1.427424 A    
N12   H12   1.040894 S    
O3    C1    1.304398 A    
O8    Zn1   1.880160 S    
H7    C26   1.086875 S    
C7    C15   1.398806 A    
N8    O19   1.300317 A    
C11   C13   1.399586 A    
C8    H6    1.084345 S    
C19   C21   1.395848 A    
C20   C22   1.391028 A    
C20   N6    1.439881 S    
C7    C9    1.395568 A    
C8    C10   1.397178 A    
C13   C15   1.408967 A    
C28   N9    1.431147 S    
N7    O17   1.301340 A    
O2    Zn2   1.877022 S    
O5    Zn1   1.932789 S    
N3    O9    1.300970 A    
C2    C24   1.458140 S    
C17   C18   1.423569 A    
N10   O24   1.298780 A    
C23   N8    1.440884 S    
N2    N11   1.395815 S    
C22   H2    1.084405 S    
