data_mof_unit_52732.cif
_audit_creation_date              2012-12-10T18:46:12-0500
_audit_creation_method            fapswitch 2.2
_symmetry_space_group_name_H-M    P1
_symmetry_Int_Tables_number       1
_space_group_crystal_system       triclinic
_cell_length_a                    9.9088
_cell_length_b                    10.684479
_cell_length_c                    13.112484
_cell_angle_alpha                 90.945453
_cell_angle_beta                  71.572349
_cell_angle_gamma                 91.70944
_cell_volume                      1316.41759603

loop_
_atom_site_label
_atom_site_type_symbol
_atom_type_description
_atom_site_fract_x
_atom_site_fract_y
_atom_site_fract_z
_atom_type_partial_charge
C1    C     C_R   0.501344 0.739588 0.500653 0.851301
C2    C     C_R   0.372102 0.515938 0.822545 -0.168419
C3    C     C_R   0.625085 0.938751 0.449228 -0.166761
C4    C     C_R   0.421565 0.505020 0.704224 0.853907
C5    C     C_R   0.621438 0.066957 0.448591 -0.191641
C6    C     C_R   0.494745 0.126905 0.503040 -0.069981
C7    C     C_R   0.370879 0.058458 0.559698 -0.008572
C8    C     C_R   0.375650 0.930166 0.559395 -0.223239
C9    C     C_R   0.501827 0.871583 0.503922 -0.020679
C10   C     C_R   0.942558 0.403919 0.454319 -0.091817
C11   C     C_R   0.086981 0.404394 0.451483 0.260409
C12   C     C_R   0.433455 0.552443 0.986935 0.108870
C13   C     C_R   0.057650 0.596511 0.544799 -0.147360
C14   C     C_R   0.916176 0.598858 0.542120 0.057584
C15   C     C_R   0.497649 0.260028 0.501438 0.878985
C16   C     C_R   0.576958 0.514346 0.297758 0.892306
C17   C     C_R   0.787952 0.626232 0.018160 0.214022
C18   C     C_R   0.616502 0.558114 0.186831 -0.130047
C19   C     C_R   0.239949 0.460832 0.884249 -0.001201
C20   C     C_R   0.208780 0.448058 0.994712 -0.206731
C21   C     C_R   0.306500 0.488042 0.044729 -0.205427
C22   C     C_1   0.239039 0.115156 0.620461 0.156270
C23   C     C_R   0.463936 0.570491 0.875921 0.065533
C24   C     C_3   0.175639 0.298339 0.392607 -0.848621
C25   C     C_1   0.842382 0.713186 0.577235 0.165917
C26   C     C_3   0.936200 0.672715 0.957641 -0.922819
C27   C     C_3   0.376677 0.659036 0.214056 -0.834346
C28   C     C_1   0.134370 0.413746 0.837636 0.193618
C29   C     C_R   0.537271 0.589283 0.035261 0.020763
C30   C     C_R   0.676420 0.625431 0.971820 0.113883
C31   C     C_R   0.696889 0.661041 0.865748 -0.210943
C32   C     C_R   0.587798 0.640712 0.821100 -0.189267
C33   C     C_R   0.506912 0.589430 0.145861 0.110302
C34   C     C_R   0.758363 0.579703 0.123118 -0.255351
H1    H     H_    0.843754 0.567795 0.156926 0.167512
H2    H     H_    0.722314 0.892148 0.405477 0.153931
H3    H     H_    0.280658 0.332261 0.340545 0.265846
H4    H     H_    0.186432 0.228553 0.450570 0.259948
H5    H     H_    0.124427 0.248722 0.338782 0.189663
H6    H     H_    0.976931 0.621887 0.880162 0.246613
H7    H     H_    0.934314 0.774113 0.941167 0.242085
H8    H     H_    0.010795 0.659937 0.004274 0.249107
H9    H     H_    0.406842 0.724340 0.270507 0.243640
H10   H     H_    0.332381 0.717050 0.163260 0.226867
H11   H     H_    0.290574 0.594348 0.260762 0.248173
H12   H     H_    0.716994 0.119253 0.404567 0.148999
H13   H     H_    0.281304 0.875638 0.602837 0.147160
H14   H     H_    0.899219 0.327693 0.417924 0.140330
H15   H     H_    0.101030 0.674073 0.579802 0.142054
H16   H     H_    0.796154 0.703563 0.816744 0.164628
H17   H     H_    0.283066 0.463754 0.128173 0.159000
H18   H     H_    0.110415 0.402081 0.042110 0.149824
H19   H     H_    0.602376 0.677000 0.742368 0.184398
N1    N     N_R   0.142790 0.500030 0.500030 -0.082491
N2    N     N_R   0.857180 0.499940 0.500010 -0.113755
N3    N     N_1   0.132258 0.158921 0.668895 -0.174782
N4    N     N_1   0.787478 0.807572 0.604886 -0.220395
N5    N     N_1   0.048036 0.377583 0.801382 -0.171981
O1    O     O_R   0.385370 0.683250 0.500010 -0.634262
O2    O     O_R   0.614700 0.683220 0.500010 -0.618386
O3    O     O_R   0.328400 0.499990 0.653620 -0.597513
O4    O     O_R   0.557730 0.499960 0.653620 -0.601584
O5    O     O_R   0.385300 0.316780 0.499990 -0.609874
O6    O     O_R   0.614630 0.316750 0.499990 -0.616899
O7    O     O_R   0.442270 0.500040 0.346380 -0.617469
O8    O     O_R   0.671600 0.500010 0.346380 -0.623531
Zn1   Zn    Zn3+2 0.346870 0.500020 0.500000 0.947816
Zn2   Zn    Zn3+2 0.653130 0.499980 0.500000 0.954879

loop_
_geom_bond_atom_site_label_1
_geom_bond_atom_site_label_2
_ccdc_geom_bond_type
C24   H4    S    
C15   O6    A    
C29   C30   A    
C3    C9    A    
C28   N5    T    
C12   C29   A    
C7    C22   S    
C13   N1    A    
C5    H12   S    
O3    Zn1   S    
O8    Zn2   S    
C31   C32   A    
O7    Zn1   S    
O4    Zn2   S    
C30   C31   A    
O1    Zn1   S    
C23   C32   A    
C27   H11   S    
C14   N2    A    
C2    C19   A    
C8    H13   S    
C1    C9    S    
C7    C8    A    
C20   H18   S    
C13   C14   A    
C27   C33   S    
C10   N2    A    
C18   C34   A    
C12   C23   A    
C26   H6    S    
C6    C7    A    
C11   N1    A    
C25   N4    T    
C3    H2    S    
C13   H15   S    
C17   C26   S    
O6    Zn2   S    
C16   O7    A    
C22   N3    T    
C24   H3    S    
C1    O1    A    
C14   C25   S    
C10   H14   S    
C5    C6    A    
C18   C33   A    
O5    Zn1   S    
C17   C30   A    
C10   C11   A    
C31   H16   S    
C19   C28   S    
C12   C21   A    
C2    C4    S    
C4    O4    A    
C11   C24   S    
C21   H17   S    
C24   H5    S    
C16   O8    A    
C20   C21   A    
O2    Zn2   S    
C16   C18   S    
C34   H1    S    
C17   C34   A    
C1    O2    A    
C2    C23   A    
C26   H8    S    
C27   H9    S    
N2    Zn2   S    
C15   O5    A    
N1    Zn1   S    
C32   H19   S    
C6    C15   S    
C27   H10   S    
C4    O3    A    
C29   C33   A    
C19   C20   A    
C26   H7    S    
C8    C9    A    
C3    C5    A    
