data_mof_unit_54104.cif
_audit_creation_date              2012-12-10T16:53:11-0500
_audit_creation_method            fapswitch 2.2
_symmetry_space_group_name_H-M    P1
_symmetry_Int_Tables_number       1
_space_group_crystal_system       triclinic
_cell_length_a                    10.759773
_cell_length_b                    10.92745
_cell_length_c                    9.703592
_cell_angle_alpha                 90.154463
_cell_angle_beta                  90.019978
_cell_angle_gamma                 90.034354
_cell_volume                      1140.91366533

loop_
_atom_site_label
_atom_site_type_symbol
_atom_type_description
_atom_site_fract_x
_atom_site_fract_y
_atom_site_fract_z
_atom_type_partial_charge
C1    C     C_R   0.500983 0.265410 0.499963 0.823787
C2    C     C_R   0.065628 0.387755 0.552884 0.102499
C3    C     C_R   0.128895 0.490850 0.499800 -0.059416
C4    C     C_R   0.064129 0.589246 0.443444 -0.183983
C5    C     C_R   0.935863 0.589223 0.443596 -0.190801
C6    C     C_R   0.871167 0.490645 0.499765 -0.054531
C7    C     C_2   0.501392 0.932816 0.387151 -0.164926
C8    C     C_2   0.491954 0.866645 0.502745 -0.327301
C9    C     C_2   0.495536 0.066767 0.386991 -0.157243
C10   C     C_2   0.506192 0.133478 0.502346 -0.346445
C11   C     C_2   0.428030 0.429804 0.921881 -0.046046
C12   C     C_R   0.262630 0.497929 0.499983 0.789674
C13   C     C_2   0.429813 0.428059 0.077536 -0.054054
C14   C     C_R   0.498489 0.734633 0.500242 0.851737
C15   C     C_R   0.737384 0.497575 0.499950 0.784848
C16   C     C_R   0.129881 0.284224 0.602649 -0.367536
C17   C     C_R   0.066090 0.180835 0.650424 -0.042372
C18   C     C_R   0.935068 0.179573 0.646370 0.550720
C19   C     C_R   0.870682 0.283276 0.600524 -0.307411
C20   C     C_R   0.934591 0.387532 0.552495 0.031814
Cu1   Cu    Cu3+1 0.500020 0.500020 0.638630 0.956796
Cu2   Cu    Cu3+1 0.499980 0.499980 0.361370 0.950032
H1    H     H_    0.113294 0.667303 0.401372 0.149496
H2    H     H_    0.522206 0.092844 0.602288 0.159757
H3    H     H_    0.363499 0.368592 0.870339 0.150514
H4    H     H_    0.561755 0.555241 0.894119 0.198330
H5    H     H_    0.368634 0.363591 0.128596 0.152725
H6    H     H_    0.555162 0.561602 0.106273 0.196219
H7    H     H_    0.230428 0.282215 0.603066 0.152177
H8    H     H_    0.770216 0.279840 0.600640 0.161878
H9    H     H_    0.886653 0.667296 0.401707 0.139537
H10   H     H_    0.512122 0.887902 0.287858 0.175260
H11   H     H_    0.476382 0.907727 0.602777 0.155653
H12   H     H_    0.484404 0.111204 0.287732 0.174681
N1    N     N_2   0.498640 0.498660 0.846910 -0.277184
N2    N     N_2   0.498610 0.498630 0.153040 -0.280393
O1    O     O_R   0.500020 0.321960 0.617040 -0.586948
O2    O     O_R   0.499980 0.321920 0.382900 -0.571753
O3    O     O_R   0.319670 0.500020 0.617100 -0.569632
O4    O     O_R   0.319630 0.499980 0.382950 -0.573622
O5    O     O_R   0.500020 0.678080 0.617100 -0.571953
O6    O     O_R   0.499980 0.678040 0.382960 -0.577782
O7    O     O_R   0.680370 0.500020 0.617050 -0.571592
O8    O     O_R   0.680330 0.499980 0.382900 -0.572507
C21   C     C_2   0.139924 0.075640 0.701650 0.384856
H13   H     H_    0.240755 0.079413 0.698515 0.049385
O9    O     O_2   0.090326 0.984167 0.748220 -0.496076
O10   O     O_3   0.868799 0.079660 0.693494 -0.539160
C22   C     C_3   0.830483 0.009497 0.578835 -0.258906
H14   H     H_    0.911846 0.974181 0.520106 0.167015
H15   H     H_    0.768324 0.062541 0.509570 0.147386
H16   H     H_    0.777066 0.929388 0.616416 0.192795

loop_
_geom_bond_atom_site_label_1
_geom_bond_atom_site_label_2
_ccdc_geom_bond_type
C12   O4    A    
Cu1   N1    S    
C2    C16   A    
C9    C10   D    
C19   C20   A    
Cu1   O3    S    
C1    O1    A    
C14   O6    A    
C22   H16   S    
Cu2   O4    S    
C12   O3    A    
C11   N1    D    
C17   C18   A    
C3    C12   S    
C15   O7    A    
C7    C8    D    
Cu1   O7    S    
C21   H13   S    
C11   C13   S    
Cu2   O6    S    
C5    H9    S    
C6    C20   A    
C13   N2    D    
C14   O5    A    
Cu1   O5    S    
C1    O2    A    
O10   C22   S    
C17   C21   S    
C15   O8    A    
C2    C3    A    
C8    H11   S    
C21   O9    D    
C5    C6    A    
C6    C15   S    
C16   C17   A    
C11   H3    S    
C2    C20   A    
C3    C4    A    
Cu2   O2    S    
H4    N1    S    
Cu2   N2    S    
H6    N2    S    
Cu1   O1    S    
C22   H14   S    
C7    C9    S    
C18   C19   A    
C13   H5    S    
C8    C14   S    
C7    H10   S    
C10   H2    S    
C16   H7    S    
Cu1   Cu2   S    
C19   H8    S    
C4    H1    S    
Cu2   O8    S    
C1    C10   S    
C9    H12   S    
C4    C5    A    
C22   H15   S    
C18   O10   S    
