data_mof_unit_50037.cif
_audit_creation_date              2012-12-10T18:44:28-0500
_audit_creation_method            fapswitch 2.2
_symmetry_space_group_name_H-M    P1
_symmetry_Int_Tables_number       1
_space_group_crystal_system       triclinic
_cell_length_a                    13.07202
_cell_length_b                    19.400597
_cell_length_c                    18.122396
_cell_angle_alpha                 90.357996
_cell_angle_beta                  95.328335
_cell_angle_gamma                 90.272176
_cell_volume                      4575.91569191

loop_
_atom_site_label
_atom_site_type_symbol
_atom_type_description
_atom_site_fract_x
_atom_site_fract_y
_atom_site_fract_z
_atom_type_partial_charge
C1    C     C_R   0.498008 0.367400 0.499654 0.875425
C2    C     C_R   0.503022 0.632460 0.500453 0.816048
C3    C     C_R   0.494671 0.852210 0.503891 0.104677
C4    C     C_R   0.485975 0.147282 0.501791 0.150774
C5    C     C_R   0.545821 0.817753 0.564415 0.542599
C6    C     C_R   0.441599 0.182157 0.439049 0.394962
C7    C     C_R   0.556162 0.745802 0.561925 0.294865
C8    C     C_R   0.448990 0.254910 0.436195 0.318454
C9    C     C_R   0.506058 0.708117 0.501430 -0.196568
C10   C     C_R   0.492709 0.291591 0.499095 -0.119003
C11   C     C_R   0.406304 0.962484 0.526506 0.311785
C12   C     C_R   0.571925 0.036966 0.476281 0.325790
C13   C     C_R   0.407688 0.035181 0.530952 0.257182
C14   C     C_R   0.575955 0.964316 0.479826 0.298543
C15   C     C_R   0.488362 0.071714 0.502858 -0.081058
C16   C     C_R   0.491648 0.927753 0.502709 -0.098746
C17   C     C_R   0.445264 0.451592 0.717353 -0.061122
C18   C     C_R   0.554687 0.548900 0.283293 -0.068077
C19   C     C_R   0.444997 0.450523 0.794968 0.326780
C20   C     C_R   0.557146 0.550129 0.205475 0.348494
C21   C     C_R   0.499396 0.501718 0.838512 -0.096013
C22   C     C_R   0.499287 0.500908 0.161380 -0.091486
C23   C     C_R   0.300631 0.498773 0.486881 0.898436
C24   C     C_R   0.699366 0.501072 0.513149 0.879759
C25   C     C_R   0.553792 0.552678 0.802506 0.333372
C26   C     C_R   0.444168 0.449781 0.196600 0.323100
C27   C     C_R   0.554343 0.549333 0.724312 -0.056743
C28   C     C_R   0.444874 0.451525 0.274981 -0.048970
C29   C     C_R   0.591905 0.500083 0.967308 -0.145832
C30   C     C_R   0.406302 0.503526 0.032395 -0.128584
C31   C     C_R   0.591844 0.499792 0.044813 -0.149801
C32   C     C_R   0.406359 0.503556 0.954841 -0.141610
C33   C     C_R   0.499071 0.501599 0.078460 0.209098
C34   C     C_R   0.499184 0.501955 0.921296 0.190722
C35   C     C_R   0.811383 0.505888 0.519479 -0.253841
C36   C     C_R   0.188638 0.493538 0.480745 -0.256956
C37   C     C_R   0.031010 0.446850 0.419539 -0.250739
C38   C     C_R   0.969119 0.552151 0.580919 -0.242734
C39   C     C_R   0.136930 0.456458 0.421368 0.406766
C40   C     C_R   0.863092 0.543097 0.578758 0.402614
C41   C     C_R   0.133473 0.522241 0.536837 0.405558
C42   C     C_R   0.866583 0.476448 0.463834 0.414886
C43   C     C_R   0.025791 0.518540 0.529718 -0.072035
C44   C     C_R   0.974272 0.480268 0.470847 -0.069677
C45   C     C_R   0.454977 0.743561 0.441808 -0.241872
C46   C     C_R   0.531083 0.255683 0.562623 -0.304922
C47   C     C_R   0.450554 0.815092 0.442628 -0.214617
C48   C     C_R   0.529231 0.184085 0.563480 -0.162731
Cu1   Cu    Cu3+1 0.499970 0.500000 0.573360 0.964894
Cu2   Cu    Cu3+1 0.500030 0.500000 0.426640 0.984795
H1    H     H_    0.401884 0.413141 0.684011 0.152341
H2    H     H_    0.595144 0.587901 0.317546 0.149858
H3    H     H_    0.598269 0.586035 0.695597 0.181790
H4    H     H_    0.400468 0.414766 0.303255 0.206591
H5    H     H_    0.664563 0.497958 0.943153 0.152598
H6    H     H_    0.333617 0.505533 0.056517 0.155774
H7    H     H_    0.664486 0.497237 0.078579 0.138336
H8    H     H_    0.333745 0.505491 0.920910 0.155392
H9    H     H_    0.993673 0.413266 0.377251 0.198741
H10   H     H_    0.006609 0.585668 0.623220 0.201352
H11   H     H_    0.417457 0.715790 0.394689 0.180723
H12   H     H_    0.564993 0.283075 0.611215 0.178770
H13   H     H_    0.412580 0.841637 0.395406 0.153022
H14   H     H_    0.561985 0.157166 0.612221 0.165521
N1    N     N_R   0.499990 0.500020 0.683620 -0.214677
N2    N     N_R   0.500010 0.499980 0.316380 -0.216488
O1    O     O_R   0.499960 0.400180 0.561970 -0.617327
O2    O     O_R   0.500040 0.599820 0.438030 -0.596793
O3    O     O_R   0.500010 0.400190 0.438070 -0.521715
O4    O     O_R   0.499990 0.599810 0.561930 -0.566804
O5    O     O_R   0.348980 0.499990 0.551890 -0.559939
O6    O     O_R   0.651020 0.500010 0.448110 -0.563288
O7    O     O_R   0.349030 0.499990 0.427990 -0.555726
O8    O     O_R   0.650970 0.500010 0.572010 -0.564332
O9    O     O_3   0.815100 0.440516 0.405111 -0.559251
C49   C     C_3   0.805017 0.483550 0.342131 -0.275883
H15   H     H_    0.776789 0.535959 0.354943 0.149662
H16   H     H_    0.748098 0.459792 0.300215 0.184028
H17   H     H_    0.878571 0.488408 0.316535 0.132440
O10   O     O_3   0.184970 0.557196 0.596278 -0.567244
C50   C     C_3   0.194001 0.513257 0.658576 -0.235540
H18   H     H_    0.249758 0.536623 0.701562 0.186879
H19   H     H_    0.223095 0.461224 0.645176 0.156638
H20   H     H_    0.119756 0.507618 0.683119 0.135704
O11   O     O_3   0.388599 0.400829 0.827788 -0.578518
C51   C     C_3   0.447598 0.340214 0.835008 -0.293920
H21   H     H_    0.521506 0.349340 0.869525 0.158033
H22   H     H_    0.462137 0.318721 0.779873 0.152550
H23   H     H_    0.403839 0.300916 0.863482 0.196543
O12   O     O_3   0.605713 0.603163 0.171070 -0.554113
C52   C     C_3   0.710823 0.606219 0.197052 -0.337750
H24   H     H_    0.747226 0.554393 0.198592 0.128818
H25   H     H_    0.722037 0.631734 0.252243 0.158336
H26   H     H_    0.751301 0.638094 0.158181 0.203997
O13   O     O_3   0.609196 0.602279 0.845490 -0.583225
C53   C     C_3   0.597456 0.668547 0.814120 -0.283887
H27   H     H_    0.517116 0.678573 0.790583 0.158286
H28   H     H_    0.652306 0.676248 0.771611 0.199624
H29   H     H_    0.616520 0.707424 0.858464 0.193469
O14   O     O_3   0.386516 0.402037 0.152416 -0.582601
C54   C     C_3   0.391374 0.335372 0.183201 -0.311342
H30   H     H_    0.333253 0.329611 0.223692 0.177939
H31   H     H_    0.469702 0.322455 0.208814 0.168602
H32   H     H_    0.371735 0.297370 0.138066 0.193924
O15   O     O_3   0.808516 0.577330 0.629615 -0.571691
C55   C     C_3   0.829202 0.546516 0.699737 -0.278461
H33   H     H_    0.911098 0.552824 0.721469 0.147717
H34   H     H_    0.807153 0.490979 0.697922 0.161555
H35   H     H_    0.782630 0.572636 0.739576 0.194915
O16   O     O_3   0.191452 0.423028 0.369905 -0.552632
C56   C     C_3   0.169742 0.454478 0.300203 -0.284437
H36   H     H_    0.190955 0.510159 0.302579 0.161417
H37   H     H_    0.087805 0.447792 0.278732 0.140836
H38   H     H_    0.216314 0.429204 0.259820 0.193427
O17   O     O_3   0.595412 0.855288 0.622372 -0.542188
C57   C     C_3   0.533946 0.854467 0.682313 -0.272632
H39   H     H_    0.525336 0.801409 0.703930 0.178345
H40   H     H_    0.457111 0.877330 0.666775 0.179756
H41   H     H_    0.572214 0.886300 0.727974 0.186232
O18   O     O_3   0.397413 0.144661 0.378988 -0.620846
C58   C     C_3   0.289903 0.143735 0.381630 -0.340546
H42   H     H_    0.257042 0.196565 0.379470 0.187290
H43   H     H_    0.268090 0.116674 0.431695 0.210233
H44   H     H_    0.254718 0.114927 0.332558 0.188100
O19   O     O_3   0.618173 0.715019 0.618000 -0.720103
H45   H     H_    0.647575 0.672552 0.598264 0.348544
O20   O     O_3   0.412813 0.291110 0.373780 -0.738212
H46   H     H_    0.397632 0.258783 0.331703 0.340824
O21   O     O_3   0.325765 0.924818 0.550633 -0.585364
C59   C     C_3   0.244170 0.923737 0.493900 -0.301751
H47   H     H_    0.267655 0.899807 0.442234 0.153890
H48   H     H_    0.213482 0.976277 0.481961 0.169195
H49   H     H_    0.180737 0.892022 0.512551 0.201154
O22   O     O_3   0.653484 0.074669 0.453624 -0.573012
C60   C     C_3   0.646238 0.075285 0.375460 -0.301206
H50   H     H_    0.576260 0.102668 0.352297 0.205477
H51   H     H_    0.647495 0.022420 0.351444 0.168506
H52   H     H_    0.713556 0.103642 0.357740 0.190104
O23   O     O_3   0.332398 0.071942 0.562620 -0.738904
H53   H     H_    0.288788 0.039923 0.588448 0.363643
O24   O     O_3   0.660578 0.927522 0.461664 -0.704061
H54   H     H_    0.718899 0.959474 0.457196 0.362330

loop_
_geom_bond_atom_site_label_1
_geom_bond_atom_site_label_2
_ccdc_geom_bond_type
C60   H52   S    
C38   C40   A    
C9    C45   A    
C54   H30   S    
C59   H48   S    
C56   H36   S    
C49   H17   S    
C32   H8    S    
O9    C49   S    
C17   H1    S    
C41   O10   S    
C50   H18   S    
C18   H2    S    
C60   H50   S    
O11   C51   S    
C42   O9    S    
Cu1   N1    S    
C46   H12   S    
C13   O23   S    
C19   C21   A    
Cu2   O3    S    
C49   H16   S    
C2    O2    A    
C47   H13   S    
C51   H22   S    
C48   H14   S    
C55   H33   S    
O17   C57   S    
C53   H29   S    
C57   H39   S    
C60   H51   S    
C45   H11   S    
Cu1   Cu2   S    
C35   C42   A    
Cu2   O6    S    
O16   C56   S    
C58   H44   S    
C1    O1    A    
C39   O16   S    
O13   C53   S    
C53   H28   S    
C10   C46   A    
C31   C33   A    
C14   O24   S    
C54   H31   S    
C12   O22   S    
C5    O17   S    
C41   C43   A    
C36   C41   A    
C42   C44   A    
C23   O7    A    
C11   O21   S    
C6    O18   S    
C50   H19   S    
C45   C47   A    
C37   C39   A    
C46   C48   A    
C24   C35   S    
C23   O5    A    
C49   H15   S    
C4    C6    A    
Cu2   O7    S    
C52   H24   S    
C5    C7    A    
C28   H4    S    
C51   H21   S    
C6    C8    A    
C21   C34   S    
C29   H5    S    
C3    C5    A    
C20   O12   S    
C29   C34   A    
C1    O3    A    
C32   C34   A    
C28   N2    A    
C43   C44   A    
C27   N1    A    
C52   H25   S    
C11   C16   A    
C8    O20   S    
C12   C15   A    
C53   H27   S    
C56   H37   S    
C7    O19   S    
Cu2   N2    S    
C58   H42   S    
C37   H9    S    
C38   H10   S    
C12   C14   A    
C25   O13   S    
C54   H32   S    
Cu1   O4    S    
C13   C15   A    
Cu1   O5    S    
O19   H45   S    
C14   C16   A    
C59   H49   S    
C18   N2    A    
O20   H46   S    
C50   H20   S    
O18   C58   S    
C24   O6    A    
O21   C59   S    
C4    C48   A    
C7    C9    A    
C22   C33   S    
C21   C25   A    
Cu1   O1    S    
C30   C33   A    
C17   N1    A    
C36   C39   A    
C1    C10   S    
C20   C22   A    
O10   C50   S    
C19   O11   S    
C51   H23   S    
O23   H53   S    
C27   H3    S    
C30   H6    S    
O22   C60   S    
C25   C27   A    
O15   C55   S    
C26   C28   A    
C57   H41   S    
C31   H7    S    
C37   C44   A    
C59   H47   S    
C38   C43   A    
C29   C31   A    
O24   H54   S    
C52   H26   S    
C30   C32   A    
C11   C13   A    
C24   O8    A    
O12   C52   S    
C55   H34   S    
C4    C15   S    
C3    C47   A    
O14   C54   S    
C17   C19   A    
C57   H40   S    
C35   C40   A    
C56   H38   S    
C18   C20   A    
C58   H43   S    
C8    C10   A    
C23   C36   S    
C22   C26   A    
Cu1   O8    S    
C2    O4    A    
C2    C9    S    
Cu2   O2    S    
C3    C16   S    
C26   O14   S    
C40   O15   S    
C55   H35   S    
