data_mof_unit_47784.cif
_audit_creation_date              2012-12-10T17:51:28-0500
_audit_creation_method            fapswitch 2.2
_symmetry_space_group_name_H-M    P1
_symmetry_Int_Tables_number       1
_space_group_crystal_system       triclinic
_cell_length_a                    14.710717
_cell_length_b                    14.702463
_cell_length_c                    17.261904
_cell_angle_alpha                 105.633919
_cell_angle_beta                  73.222325
_cell_angle_gamma                 114.946267
_cell_volume                      3193.76928163

loop_
_atom_site_label
_atom_site_type_symbol
_atom_type_description
_atom_site_fract_x
_atom_site_fract_y
_atom_site_fract_z
_atom_type_partial_charge
C1    C     C_R   0.118784 0.688105 0.513200 0.802900
C2    C     C_R   0.709401 0.177544 0.483261 -0.219051
C3    C     C_R   0.361389 0.920682 0.492444 0.037241
C4    C     C_R   0.642328 0.075605 0.468955 0.036788
C5    C     C_R   0.321785 0.996433 0.500275 0.117202
C6    C     C_R   0.683068 0.998312 0.449906 0.117243
C7    C     C_R   0.469064 0.945763 0.475082 0.019192
C8    C     C_R   0.535679 0.049030 0.476036 0.018603
C9    C     C_R   0.494138 0.122290 0.481874 -0.303135
C10   C     C_R   0.512117 0.870375 0.454409 -0.299297
C11   C     C_R   0.388588 0.096854 0.493456 0.377335
C12   C     C_R   0.881283 0.311848 0.485497 0.804060
C13   C     C_R   0.617808 0.895643 0.441225 0.378691
C14   C     C_R   0.299900 0.336516 0.357540 -0.265472
C15   C     C_R   0.700808 0.664183 0.642299 -0.281085
C16   C     C_R   0.991119 0.505443 0.652826 0.812026
C17   C     C_R   0.008783 0.494429 0.347136 0.813542
C18   C     C_R   0.213043 0.360812 0.382788 0.065487
C19   C     C_R   0.787124 0.639056 0.617372 0.068009
C20   C     C_R   0.285654 0.490614 0.488154 0.073942
C21   C     C_R   0.714691 0.510235 0.511402 0.076334
C22   C     C_R   0.373026 0.464124 0.469975 -0.003582
C23   C     C_R   0.186261 0.795647 0.514340 -0.052669
C24   C     C_R   0.627893 0.537566 0.529361 0.002978
C25   C     C_R   0.380978 0.389608 0.399594 0.113058
C26   C     C_R   0.620113 0.612034 0.599785 0.105916
C27   C     C_R   0.453937 0.511012 0.515948 -0.039639
C28   C     C_R   0.547280 0.491374 0.483156 -0.040575
C29   C     C_R   0.557159 0.428251 0.404850 0.375066
C30   C     C_R   0.444473 0.574826 0.594006 0.388111
C31   C     C_R   0.471827 0.372804 0.368089 -0.287351
C32   C     C_R   0.529784 0.629817 0.630837 -0.272448
C33   C     C_R   0.992552 0.515711 0.739131 -0.092989
C34   C     C_R   0.814590 0.203697 0.473369 -0.052274
C35   C     C_R   0.006908 0.483608 0.260783 -0.070603
C36   C     C_R   0.080486 0.521864 0.760124 -0.200822
C37   C     C_R   0.923560 0.488563 0.240464 -0.259960
C38   C     C_R   0.084567 0.531835 0.841928 0.293233
C39   C     C_R   0.918651 0.476303 0.158645 0.290837
C40   C     C_R   0.997961 0.535822 0.903456 0.088386
C41   C     C_R   0.000811 0.462691 0.096410 0.147824
C42   C     C_R   0.911818 0.533621 0.882617 -0.188897
C43   C     C_R   0.082006 0.453896 0.116523 -0.224577
C44   C     C_R   0.908836 0.523277 0.800875 -0.205301
C45   C     C_R   0.215230 0.970129 0.514379 -0.142336
C46   C     C_R   0.085234 0.464388 0.198299 -0.196388
C47   C     C_2   0.992026 0.536199 0.989438 -0.204570
C48   C     C_2   0.007149 0.463304 0.010471 -0.218122
C49   C     C_3   0.761906 0.378977 0.108068 -0.686776
C50   C     C_3   0.216065 0.464299 0.826289 -0.695310
C51   C     C_R   0.789149 0.025196 0.440136 -0.141219
C52   C     C_R   0.148173 0.870305 0.520292 -0.229814
C53   C     C_R   0.854392 0.127005 0.450922 -0.230885
C54   C     C_R   0.291534 0.822095 0.503685 -0.215485
Cu1   Cu    Cu3+1 0.916740 0.524770 0.521640 0.946730
Cu2   Cu    Cu3+1 0.083260 0.475230 0.478360 0.946739
H1    H     H_    0.147288 0.521667 0.712833 0.197506
H2    H     H_    0.150439 0.320227 0.350417 0.125138
H3    H     H_    0.304494 0.277884 0.304465 0.138682
H4    H     H_    0.696343 0.722758 0.695450 0.139104
H5    H     H_    0.149567 0.458863 0.212564 0.160374
H6    H     H_    0.840746 0.520020 0.785985 0.161193
H7    H     H_    0.030337 0.406781 0.963672 0.158807
H8    H     H_    0.968701 0.592964 0.035960 0.179309
H9    H     H_    0.845531 0.536946 0.929691 0.153647
H10   H     H_    0.144668 0.442268 0.068888 0.144501
H11   H     H_    0.680937 0.238292 0.504860 0.153985
H12   H     H_    0.861009 0.500324 0.288081 0.195713
H13   H     H_    0.317047 0.764227 0.505654 0.151906
H14   H     H_    0.935702 0.145543 0.442726 0.162305
H15   H     H_    0.066783 0.851465 0.528662 0.163509
H16   H     H_    0.183216 0.026287 0.519804 0.190517
H17   H     H_    0.822226 0.967667 0.424430 0.190871
H18   H     H_    0.644860 0.380299 0.308119 0.320609
H19   H     H_    0.357466 0.624517 0.690306 0.330792
H20   H     H_    0.793356 0.518154 0.185758 0.261065
H21   H     H_    0.698268 0.387832 0.092477 0.224770
H22   H     H_    0.729413 0.328626 0.155045 0.217650
H23   H     H_    0.542443 0.199621 0.474192 0.139173
H24   H     H_    0.801825 0.342892 0.051493 0.245039
H25   H     H_    0.185582 0.576290 0.921736 0.261285
H26   H     H_    0.288700 0.484117 0.845844 0.227374
H27   H     H_    0.232221 0.452675 0.758259 0.263462
H28   H     H_    0.159658 0.392301 0.847248 0.217656
H29   H     H_    0.405900 0.236397 0.494539 0.328788
H30   H     H_    0.602583 0.752937 0.419022 0.327866
H31   H     H_    0.465654 0.790427 0.444762 0.136595
H32   H     H_    0.478685 0.320468 0.310852 0.139267
H33   H     H_    0.523162 0.682397 0.687963 0.137284
H34   H     H_    0.721274 0.445443 0.466597 0.187213
H35   H     H_    0.278819 0.555469 0.532669 0.189140
H36   H     H_    0.849522 0.679030 0.650000 0.127598
N1    N     N_R   0.208390 0.438070 0.445820 -0.199351
N2    N     N_R   0.791610 0.561930 0.554180 -0.199805
N3    N     N_2   0.831264 0.477793 0.139651 -0.442519
N4    N     N_2   0.178041 0.545883 0.861675 -0.444813
O1    O     O_R   0.020090 0.662480 0.528530 -0.585148
O2    O     O_3   0.350416 0.577713 0.637025 -0.789771
O3    O     O_3   0.349230 0.169335 0.498845 -0.744125
O4    O     O_3   0.658605 0.820980 0.421092 -0.742808
O5    O     O_R   0.979910 0.337520 0.471470 -0.584285
O6    O     O_R   0.160710 0.620650 0.491980 -0.596984
O7    O     O_R   0.839290 0.379350 0.508020 -0.597670
O8    O     O_R   0.921540 0.523360 0.633990 -0.588768
O9    O     O_R   0.078460 0.476640 0.366010 -0.590880
O10   O     O_R   0.062170 0.481520 0.597440 -0.578866
O11   O     O_R   0.937830 0.518480 0.402560 -0.577725
O12   O     O_3   0.651653 0.426761 0.361556 -0.783018

loop_
_geom_bond_atom_site_label_1
_geom_bond_atom_site_label_2
_ccdc_geom_bond_type
C25   C31   A    
C40   C47   S    
C38   C40   A    
Cu1   Cu2   S    
C26   C32   A    
C7    C10   A    
C15   H4    S    
C14   C18   A    
C4    C8    A    
C50   H28   S    
C7    C8    A    
C39   C41   A    
C15   C19   A    
C14   H3    S    
C28   C29   A    
C35   C37   A    
C24   C26   A    
Cu2   O5    S    
C5    C11   A    
C3    C7    A    
C17   O11   A    
H20   N3    S    
C3    C54   A    
C21   N2    A    
C37   H12   S    
Cu1   O7    S    
C33   C36   A    
C49   H22   S    
C11   O3    S    
C9    H23   S    
C19   H36   S    
C16   O8    A    
C47   C48   D    
C8    C9    A    
C22   C25   A    
C42   H9    S    
C29   O12   S    
C6    C51   A    
H30   O4    S    
C16   O10   A    
C2    C34   A    
C40   C42   A    
C27   C30   A    
C41   C43   A    
C42   C44   A    
Cu1   N2    S    
C53   H14   S    
C18   H2    S    
C50   H27   S    
C21   H34   S    
Cu2   N1    S    
C20   H35   S    
C10   H31   S    
C46   H5    S    
C51   H17   S    
C12   O7    A    
C4    C6    A    
C36   H1    S    
C1    O1    A    
C47   H8    S    
H25   N4    S    
C48   H7    S    
C20   N1    A    
C44   H6    S    
C5    C45   A    
Cu1   O8    S    
H19   O2    S    
Cu1   O11   S    
C51   C53   A    
C2    C4    A    
H29   O3    S    
C17   O9    A    
C16   C33   S    
C32   H33   S    
Cu2   O10   S    
Cu1   O1    S    
C49   N3    S    
C9    C11   A    
C39   N3    S    
C19   N2    A    
C20   C22   A    
C1    C23   S    
C22   C27   A    
C12   C34   S    
C3    C5    A    
C50   H26   S    
C23   C54   A    
C31   H32   S    
C33   C44   A    
C24   C28   A    
C15   C26   A    
C10   C13   A    
C30   O2    S    
C45   C52   A    
C49   H24   S    
C13   O4    S    
C36   C38   A    
Cu2   O6    S    
C12   O5    A    
C37   C39   A    
C52   H15   S    
C6    C13   A    
C30   C32   A    
C50   N4    S    
C23   C52   A    
C54   H13   S    
C43   H10   S    
C41   C48   S    
C49   H21   S    
C14   C25   A    
C43   C46   A    
Cu2   O9    S    
H18   O12   S    
C2    H11   S    
C34   C53   A    
C29   C31   A    
C21   C24   A    
C38   N4    S    
C27   C28   A    
C18   N1    A    
C17   C35   S    
C35   C46   A    
C1    O6    A    
C45   H16   S    
