data_mof_unit_34482.cif
_audit_creation_date              2013-03-05T16:32:41-0500
_audit_creation_method            fapswitch 2.2
_symmetry_space_group_name_H-M    P1
_symmetry_Int_Tables_number       1
_space_group_crystal_system       triclinic
_cell_length_a                    9.534999
_cell_length_b                    10.823953
_cell_length_c                    17.287654
_cell_angle_alpha                 90.138788
_cell_angle_beta                  86.229391
_cell_angle_gamma                 89.921545
_cell_volume                      1780.32670401

loop_
_atom_site_label
_atom_site_type_symbol
_atom_site_description
_atom_site_fract_x
_atom_site_fract_y
_atom_site_fract_z
_atom_type_partial_charge
O1    O     O_R   0.381190 0.680360 0.500000 -0.584312
O2    O     O_R   0.618770 0.680320 0.499990 -0.592550
C1    C     C_R   0.500133 0.737727 0.498657 0.802720
O3    O     O_R   0.367430 0.500040 0.613600 -0.583699
O4    O     O_R   0.605020 0.500000 0.613590 -0.580748
C2    C     C_R   0.482060 0.504306 0.649956 0.819288
Cu1   Cu    Cu3+1 0.359330 0.500020 0.500000 0.946849
Cu2   Cu    Cu3+1 0.640670 0.499980 0.500000 0.948264
O5    O     O_R   0.381230 0.319680 0.500010 -0.580050
O6    O     O_R   0.618810 0.319640 0.500000 -0.583665
O7    O     O_R   0.394980 0.500000 0.386410 -0.586898
O8    O     O_R   0.632570 0.499960 0.386400 -0.585420
C3    C     C_R   0.500301 0.262293 0.498607 0.805530
C4    C     C_R   0.517960 0.499946 0.349854 0.792255
C5    C     C_R   0.473886 0.523293 0.733918 -0.102713
C6    C     C_R   0.593268 0.564425 0.769685 -0.255618
C7    C     C_R   0.587155 0.589820 0.849024 0.365799
C8    C     C_R   0.459876 0.567919 0.893554 0.049948
C9    C     C_R   0.339625 0.531089 0.857301 -0.187151
C10   C     C_R   0.346320 0.509122 0.777873 -0.175515
C11   C     C_R   0.407639 0.507822 0.145456 -0.147787
C12   C     C_R   0.401936 0.505772 0.225779 -0.188790
C13   C     C_R   0.656435 0.496878 0.222250 -0.193799
C14   C     C_R   0.662123 0.498981 0.141538 -0.130187
C15   C     C_R   0.537964 0.506617 0.102830 0.167694
C16   C     C_2   0.451456 0.571183 0.978368 -0.152023
C17   C     C_2   0.546956 0.511498 0.017942 -0.154762
C18   C     C_R   0.526101 0.500779 0.264945 -0.033097
H1    H     H_    0.690559 0.581066 0.735362 0.191435
H2    H     H_    0.299908 0.508626 0.256992 0.145942
H3    H     H_    0.753734 0.492971 0.250975 0.143863
H4    H     H_    0.636469 0.467108 0.987053 0.166037
H5    H     H_    0.241505 0.515166 0.891057 0.167621
H6    H     H_    0.309790 0.508952 0.117121 0.127039
H7    H     H_    0.252446 0.479357 0.751127 0.172435
H8    H     H_    0.360657 0.615413 0.007826 0.150461
H9    H     H_    0.763468 0.496783 0.109295 0.142792
C19   C     C_R   0.375733 0.936649 0.488852 0.133878
C20   C     C_R   0.501383 0.870802 0.490992 -0.094199
C21   C     C_R   0.629319 0.935364 0.482085 -0.209713
H10   H     H_    0.729144 0.887121 0.478964 0.162649
C22   C     C_R   0.629425 0.064143 0.482105 -0.211479
H11   H     H_    0.729282 0.111988 0.479120 0.158914
C23   C     C_R   0.501607 0.129201 0.490963 -0.096174
C24   C     C_R   0.375864 0.063816 0.488882 0.116315
C25   C     C_3   0.245269 0.070884 0.541409 -0.453344
C26   C     C_3   0.244972 0.930611 0.541267 -0.473946
H12   H     H_    0.263959 0.111713 0.598922 0.205041
H13   H     H_    0.155632 0.111429 0.512174 0.191962
H14   H     H_    0.263194 0.889740 0.598724 0.202215
H15   H     H_    0.155335 0.890662 0.511720 0.193133
C27   C     C_R   0.929787 0.400089 0.472685 0.261246
N1    N     N_R   0.852130 0.499070 0.499500 -0.186982
C28   C     C_R   0.921245 0.592108 0.534910 -0.073592
H16   H     H_    0.862238 0.667751 0.562048 0.142721
C29   C     C_R   0.070169 0.592021 0.534996 -0.072494
H17   H     H_    0.122468 0.667329 0.562400 0.142484
N2    N     N_R   0.148040 0.499110 0.499500 -0.187176
C30   C     C_R   0.077142 0.400122 0.472686 0.258005
C31   C     C_3   0.092785 0.346875 0.393020 -0.502155
C32   C     C_3   0.933542 0.346910 0.392969 -0.506173
H18   H     H_    0.143204 0.411739 0.350127 0.212000
H19   H     H_    0.139008 0.252536 0.392400 0.194687
H20   H     H_    0.893200 0.411851 0.350059 0.212822
H21   H     H_    0.887914 0.252544 0.392260 0.190855
N3    N     N_R   0.708527 0.641056 0.882663 0.107789
O9    O     O_R   0.834211 0.616374 0.852596 -0.381324
O10   O     O_R   0.693740 0.723749 0.937379 -0.345154

loop_
_geom_bond_atom_site_label_1
_geom_bond_atom_site_label_2
_geom_bond_distance
_ccdc_geom_bond_type
Cu2   N1    2.015731 S    
C32   H20   1.109798 S    
N3    O10   1.301453 A    
C13   C14   1.393044 A    
C14   C15   1.400118 A    
C27   C30   1.405035 A    
C15   C17   1.465459 S    
Cu1   N2    2.015273 S    
C9    C10   1.390287 A    
C8    C16   1.463486 S    
Cu2   O8    1.970465 S    
C21   C22   1.393897 A    
C7    C8    1.414375 A    
C16   C17   1.340540 D    
C1    C20   1.446789 S    
C30   C31   1.490001 S    
C12   C18   1.403024 A    
N1    C28   1.369319 A    
C29   H17   1.080671 S    
C31   H18   1.109262 S    
Cu1   O7    1.970758 S    
C25   H13   1.111471 S    
C19   C26   1.493920 S    
O4    C2    1.294129 A    
C22   C23   1.406145 A    
C27   N1    1.364285 A    
O3    Cu1   1.970462 S    
O1    Cu1   1.963372 S    
O2    Cu2   1.962846 S    
C25   C26   1.518308 S    
C11   C12   1.386317 A    
C21   H10   1.083195 S    
O8    C4    1.297766 A    
O2    C1    1.291442 A    
C26   H14   1.112272 S    
C28   C29   1.420088 A    
C27   C32   1.490424 S    
C31   H19   1.111367 S    
C7    N3    1.440051 S    
C5    C10   1.399977 A    
O7    C4    1.294969 A    
C25   H12   1.112225 S    
N2    C30   1.364055 A    
O4    Cu2   1.970758 S    
C13   C18   1.403582 A    
C22   H11   1.082786 S    
C17   H4    1.087283 S    
C5    C6    1.403179 A    
C20   C21   1.406520 A    
C32   H21   1.111123 S    
Cu1   Cu2   2.682576 S    
C19   C20   1.395830 A    
C23   C24   1.395548 A    
C6    H1    1.083363 S    
Cu2   O6    1.963372 S    
O3    C2    1.296979 A    
C9    H5    1.083821 S    
C16   H8    1.085262 S    
N3    O9    1.301628 A    
Cu1   O5    1.962848 S    
C14   H9    1.083555 S    
C11   C15   1.402436 A    
C28   H16   1.081291 S    
C8    C9    1.400342 A    
C19   C24   1.376453 A    
O5    C3    1.292204 A    
C11   H6    1.081975 S    
C12   H2    1.081353 S    
C31   C32   1.518438 S    
C4    C18   1.464862 S    
C2    C5    1.462466 S    
C24   C25   1.493889 S    
C10   H7    1.083186 S    
C3    C23   1.446276 S    
C26   H15   1.111633 S    
C29   N2    1.369043 A    
C6    C7    1.395646 A    
O1    C1    1.292625 A    
O6    C3    1.291573 A    
C13   H3    1.081521 S    
