data_mof_unit_46276.cif
_audit_creation_date              2013-03-05T15:49:19-0500
_audit_creation_method            fapswitch 2.2
_symmetry_space_group_name_H-M    P1
_symmetry_Int_Tables_number       1
_space_group_crystal_system       triclinic
_cell_length_a                    10.663128
_cell_length_b                    11.973613
_cell_length_c                    12.848796
_cell_angle_alpha                 93.342931
_cell_angle_beta                  89.885224
_cell_angle_gamma                 88.831314
_cell_volume                      1637.34454559

loop_
_atom_site_label
_atom_site_type_symbol
_atom_site_description
_atom_site_fract_x
_atom_site_fract_y
_atom_site_fract_z
_atom_type_partial_charge
O1    O     O_R   0.506170 0.421690 0.658830 -0.554841
O2    O     O_R   0.491330 0.609320 0.646410 -0.576269
C1    C     C_R   0.495614 0.522074 0.700202 1.013890
O3    O     O_R   0.690660 0.406170 0.506210 -0.572728
O4    O     O_R   0.675810 0.593790 0.493790 -0.603949
C2    C     C_R   0.740336 0.502240 0.494230 0.976998
Zn1   Zn    Zn3+2 0.509910 0.374720 0.508290 1.142570
Zn2   Zn    Zn3+2 0.490090 0.625280 0.491710 1.139410
O5    O     O_R   0.508670 0.390680 0.353590 -0.568024
O6    O     O_R   0.493830 0.578310 0.341170 -0.552663
O7    O     O_R   0.324190 0.406210 0.506210 -0.578261
O8    O     O_R   0.309340 0.593830 0.493790 -0.578841
C3    C     C_R   0.500953 0.477790 0.299973 1.052696
C4    C     C_R   0.260282 0.497824 0.510667 0.938026
C5    C     C_R   0.890295 0.323694 0.387765 0.560019
C6    C     C_R   0.944237 0.215409 0.381431 0.027407
C7    C     C_R   0.051482 0.194845 0.440979 0.486057
C8    C     C_R   0.110172 0.282702 0.496612 0.585565
C9    C     C_R   0.062191 0.393919 0.493901 -0.227148
C10   C     C_R   0.942178 0.409423 0.454265 -0.190303
C11   C     C_R   0.874680 0.507586 0.487908 -0.130166
C12   C     C_R   0.934697 0.598911 0.539705 0.199769
C13   C     C_R   0.062050 0.590906 0.559506 0.219854
C14   C     C_R   0.127144 0.490957 0.529517 -0.097331
C15   C     C_R   0.489844 0.463602 0.189498 -0.359055
C16   C     C_R   0.491121 0.536795 0.811602 -0.381064
C17   C     C_R   0.581804 0.621758 0.966243 0.728998
C18   C     C_R   0.563795 0.619996 0.860285 0.530128
C19   C     C_R   0.424831 0.460616 0.868841 0.284582
C20   C     C_R   0.438736 0.463833 0.977620 -0.282309
C21   C     C_R   0.524366 0.541642 0.024763 -0.314741
C22   C     C_R   0.550890 0.538656 0.129957 0.688052
C23   C     C_R   0.402668 0.389298 0.146292 0.519957
C24   C     C_R   0.373584 0.390515 0.041031 0.279895
N1    N     N_R   0.523130 0.207800 0.519340 -0.180168
N2    N     N_R   0.476870 0.792180 0.480660 -0.193966
C25   C     C_R   0.394395 0.948984 0.392050 0.181882
C26   C     C_R   0.401831 0.833478 0.405948 0.751490
C27   C     C_R   0.545346 0.860493 0.545441 0.033520
C28   C     C_R   0.539157 0.977514 0.538227 -0.159102
C29   C     C_R   0.462139 0.022391 0.460425 -0.149844
C30   C     C_R   0.454042 0.139625 0.454822 0.079163
C31   C     C_R   0.601082 0.166125 0.591838 0.725697
C32   C     C_R   0.609607 0.050608 0.604620 0.154054
H1    H     H_    0.391964 0.178130 0.400403 0.216231
H2    H     H_    0.605160 0.822270 0.601616 0.240736
N3    N     N_R   0.866639 0.698492 0.575240 0.232084
O9    O     O_R   0.854147 0.723459 0.674659 -0.229222
O10   O     O_R   0.837171 0.772999 0.509188 -0.291232
N4    N     N_R   0.269509 0.325789 0.003614 0.274210
O11   O     O_R   0.265767 0.219677 0.020070 -0.178775
O12   O     O_R   0.168241 0.376740 0.973199 -0.254974
F1    F     F_    0.625880 0.694208 0.804091 -0.540249
N5    N     N_R   0.351644 0.376279 0.814762 0.261523
O13   O     O_R   0.257283 0.405409 0.757539 -0.283497
O14   O     O_R   0.390965 0.272472 0.809726 -0.260040
F2    F     F_    0.667907 0.237674 0.654595 -0.587492
N6    N     N_R   0.322941 0.989053 0.306504 0.250814
O15   O     O_R   0.216434 0.943971 0.281234 -0.164316
O16   O     O_R   0.373835 0.055711 0.242807 -0.264928
N7    N     N_R   0.688333 0.009712 0.685172 0.255517
O17   O     O_R   0.801621 0.046594 0.697237 -0.200728
O18   O     O_R   0.641060 0.949490 0.756042 -0.225647
F3    F     F_    0.337511 0.761350 0.341840 -0.578605
F4    F     F_    0.790171 0.346953 0.326777 -0.589729
N8    N     N_R   0.886409 0.125952 0.320087 0.287210
O19   O     O_R   0.768811 0.133089 0.293838 -0.260183
O20   O     O_R   0.949994 0.035292 0.291827 -0.168688
F5    F     F_    0.097708 0.089171 0.448257 -0.529556
F6    F     F_    0.201423 0.255205 0.564614 -0.549205
N9    N     N_R   0.124640 0.682715 0.613326 0.248308
O21   O     O_R   0.199709 0.664384 0.690509 -0.319572
O22   O     O_R   0.109127 0.784301 0.584062 -0.227986
F7    F     F_    0.635851 0.609017 0.176035 -0.536834
F8    F     F_    0.336834 0.323339 0.208568 -0.594694
F9    F     F_    0.658175 0.700540 0.010501 -0.479386

loop_
_geom_bond_atom_site_label_1
_geom_bond_atom_site_label_2
_geom_bond_distance
_ccdc_geom_bond_type
C8    F6    1.357390 S    
N8    O20   1.301133 A    
C7    F5    1.356918 S    
C29   C30   1.410647 A    
C9    C10   1.391212 A    
N3    O10   1.301091 A    
Zn1   O7    2.008885 S    
C19   C20   1.404194 A    
C22   F7    1.362408 S    
C20   C21   1.428186 A    
O7    C4    1.277881 A    
C19   N5    1.436689 S    
N6    O16   1.301319 A    
C5    C6    1.405571 A    
C5    F4    1.359462 S    
C8    C9    1.419148 A    
Zn2   N2    2.013776 S    
C4    C14   1.444507 S    
N7    O18   1.301070 A    
N1    C30   1.358061 A    
O5    C3    1.284445 A    
C23   F8    1.360472 S    
N3    O9    1.300785 A    
C6    C7    1.402774 A    
N4    O12   1.301368 A    
C13   C14   1.404894 A    
N1    C31   1.359419 A    
C25   N6    1.438333 S    
C15   C22   1.385143 A    
C12   N3    1.434118 S    
C11   C12   1.411941 A    
C3    C15   1.425194 S    
O3    Zn1   1.971755 S    
C7    C8    1.396491 A    
C26   F3    1.355805 S    
C1    C16   1.432518 S    
C5    C10   1.418657 A    
N5    O14   1.301595 A    
C24   N4    1.434261 S    
C20   C24   1.422377 A    
C17   C21   1.402482 A    
C13   N9    1.440546 S    
N8    O19   1.301601 A    
O3    C2    1.293311 A    
C27   C28   1.409814 A    
N9    O22   1.301403 A    
N4    O11   1.301515 A    
N6    O15   1.301018 A    
C2    C11   1.437605 S    
O1    C1    1.288282 A    
C30   H1    1.080113 S    
C31   C32   1.403481 A    
C25   C26   1.405455 A    
C21   C22   1.383790 A    
Zn2   O8    1.971752 S    
C23   C24   1.389018 A    
C27   H2    1.079677 S    
C28   C29   1.417895 A    
O8    C4    1.302022 A    
C6    N8    1.441954 S    
C17   F9    1.359046 S    
Zn1   O5    2.007978 S    
N5    O13   1.301232 A    
O1    Zn1   1.982712 S    
Zn1   N1    2.014013 S    
N2    C27   1.357356 A    
O2    Zn2   2.007979 S    
O6    C3    1.287005 A    
O4    Zn2   2.008885 S    
C18   F1    1.358704 S    
C32   N7    1.435811 S    
C16   C18   1.394637 A    
N2    C26   1.359629 A    
O2    C1    1.285871 A    
N9    O21   1.301471 A    
O4    C2    1.282589 A    
C9    C14   1.418164 A    
C25   C29   1.415832 A    
N7    O17   1.301093 A    
C31   F2    1.355923 S    
C28   C32   1.414339 A    
C10   C11   1.411155 A    
C16   C19   1.405352 A    
Zn2   O6    1.982713 S    
C17   C18   1.374283 A    
C12   C13   1.384546 A    
C15   C23   1.393570 A    
