data_mof_unit_25371.cif
_audit_creation_date              2012-12-10T17:38:19-0500
_audit_creation_method            fapswitch 2.2
_symmetry_space_group_name_H-M    P1
_symmetry_Int_Tables_number       1
_space_group_crystal_system       triclinic
_cell_length_a                    12.30755
_cell_length_b                    13.165807
_cell_length_c                    19.386839
_cell_angle_alpha                 78.335209
_cell_angle_beta                  101.309412
_cell_angle_gamma                 116.423899
_cell_volume                      2734.87582177

loop_
_atom_site_label
_atom_site_type_symbol
_atom_type_description
_atom_site_fract_x
_atom_site_fract_y
_atom_site_fract_z
_atom_type_partial_charge
C1    C     C_R   0.854840 0.286534 0.502324 0.864958
C2    C     C_R   0.017718 0.521911 0.144232 -0.221442
C3    C     C_R   0.265893 0.018059 0.406208 -0.129250
C4    C     C_R   0.999194 0.499547 0.632300 0.808920
C5    C     C_R   0.226789 0.834280 0.475791 -0.146624
C6    C     C_R   0.819383 0.079485 0.520438 0.453452
C7    C     C_R   0.738328 0.963272 0.523278 -0.232137
C8    C     C_R   0.613416 0.929840 0.510189 -0.062903
C9    C     C_R   0.564614 0.011035 0.486155 0.013274
C10   C     C_R   0.646441 0.126796 0.468876 -0.160853
C11   C     C_R   0.436711 0.978155 0.471776 -0.090016
C12   C     C_R   0.997087 0.498909 0.707913 -0.078684
C13   C     C_R   0.392236 0.053957 0.426701 -0.108382
C14   C     C_R   0.474475 0.163453 0.401001 0.360722
C15   C     C_R   0.600062 0.198775 0.420828 0.523470
C16   C     C_R   0.145079 0.713366 0.490615 0.833681
C17   C     C_R   0.351278 0.871799 0.500676 0.589655
C18   C     C_R   0.184173 0.908393 0.429470 -0.304044
C19   C     C_R   0.772930 0.163373 0.495933 -0.149249
C20   C     C_R   0.362180 0.353076 0.624084 0.384543
C21   C     C_R   0.769438 0.654737 0.411061 -0.102451
C22   C     C_R   0.683357 0.701619 0.396415 0.278968
C23   C     C_R   0.012829 0.517713 0.068134 0.527586
C24   C     C_R   0.574551 0.644669 0.428900 0.388408
C25   C     C_R   0.557933 0.546703 0.480993 -0.164537
C26   C     C_R   0.655233 0.510793 0.497466 0.114344
C27   C     C_R   0.452614 0.485117 0.519973 -0.117442
C28   C     C_R   0.001465 0.502160 0.367128 0.877490
C29   C     C_R   0.458254 0.405948 0.581188 -0.070508
C30   C     C_R   0.558537 0.378713 0.597853 0.505660
C31   C     C_R   0.650598 0.425879 0.554956 -0.236849
C32   C     C_R   0.340541 0.496012 0.500862 0.082167
C33   C     C_R   0.256388 0.370766 0.602246 -0.018634
C34   C     C_R   0.001185 0.508052 0.928272 0.429332
C35   C     C_R   0.090267 0.486918 0.758474 -0.175836
C36   C     C_R   0.090154 0.489857 0.829702 -0.225659
C37   C     C_R   0.995819 0.502824 0.852271 -0.014901
C38   C     C_R   0.898559 0.510534 0.802074 0.455599
C39   C     C_R   0.902221 0.511504 0.729872 -0.268114
C40   C     C_3   0.404711 0.299089 0.392221 0.043886
C41   C     C_3   0.311327 0.338246 0.347099 -0.782339
C42   C     C_3   0.982026 0.054745 0.594737 0.056313
C43   C     C_3   0.040212 0.983981 0.576688 -0.791640
C44   C     C_3   0.309688 0.177717 0.693334 0.124390
C45   C     C_R   0.100421 0.492173 0.195781 0.397829
C46   C     C_3   0.226729 0.133615 0.751636 -0.850329
C47   C     C_3   0.433322 0.689262 0.349330 0.060710
C48   C     C_3   0.348097 0.748067 0.338454 -0.767355
C49   C     C_3   0.778362 0.837275 0.302972 0.038307
C50   C     C_3   0.760810 0.932827 0.250156 -0.735102
C51   C     C_3   0.690390 0.449666 0.798592 0.110217
C52   C     C_3   0.598357 0.440493 0.844329 -0.698019
C53   C     C_3   0.296254 0.550221 0.174815 0.076265
C54   C     C_3   0.374522 0.523095 0.136174 -0.737712
C55   C     C_3   0.718532 0.475560 0.238784 0.167248
C56   C     C_R   0.093839 0.486361 0.267977 -0.360382
C57   C     C_3   0.622353 0.488634 0.269950 -0.740852
C58   C     C_R   0.005831 0.509492 0.290075 -0.250096
C59   C     C_R   0.923588 0.540253 0.237852 0.342896
C60   C     C_R   0.934837 0.551897 0.165752 0.458327
Cu1   Cu    Cu3+1 0.098280 0.475420 0.516260 0.983664
Cu2   Cu    Cu3+1 0.901720 0.524580 0.483740 0.977023
F1    F     F_    0.386277 0.806846 0.556157 -0.672076
F2    F     F_    0.675378 0.296691 0.384844 -0.667855
F3    F     F_    0.566471 0.301048 0.654209 -0.685226
F4    F     F_    0.865084 0.594167 0.116488 -0.644106
H1    H     H_    0.164494 0.476882 0.742977 0.173404
H2    H     H_    0.831763 0.523760 0.690756 0.162502
H3    H     H_    0.156373 0.461297 0.306759 0.196031
H4    H     H_    0.088080 0.880694 0.409680 0.173820
H5    H     H_    0.489073 0.375204 0.405079 0.171709
H6    H     H_    0.366102 0.250046 0.442568 0.133565
H7    H     H_    0.226198 0.263368 0.332046 0.260432
H8    H     H_    0.289191 0.387426 0.377890 0.189558
H9    H     H_    0.348605 0.393376 0.298387 0.251700
H10   H     H_    0.908781 0.000046 0.629281 0.130528
H11   H     H_    0.051482 0.120406 0.627054 0.159409
H12   H     H_    0.229720 0.073004 0.370154 0.193446
H13   H     H_    0.117322 0.039695 0.545352 0.251361
H14   H     H_    0.075335 0.943314 0.626284 0.207955
H15   H     H_    0.972295 0.915972 0.545079 0.248094
H16   H     H_    0.374124 0.136641 0.706642 0.220835
H17   H     H_    0.254584 0.149699 0.642226 0.108027
H18   H     H_    0.163986 0.176244 0.741719 0.233997
H19   H     H_    0.171821 0.039821 0.753074 0.218227
H20   H     H_    0.282612 0.151603 0.803877 0.265347
H21   H     H_    0.377527 0.597967 0.342054 0.095640
H22   H     H_    0.495679 0.730307 0.307598 0.184191
H23   H     H_    0.557105 0.839067 0.513382 0.245784
H24   H     H_    0.401440 0.839622 0.345911 0.260233
H25   H     H_    0.298651 0.742243 0.283905 0.195005
H26   H     H_    0.280108 0.706085 0.376955 0.239189
H27   H     H_    0.750490 0.762842 0.274046 0.158255
H28   H     H_    0.876885 0.868650 0.324077 0.153401
H29   H     H_    0.789287 0.009430 0.276890 0.259182
H30   H     H_    0.817082 0.956114 0.206298 0.212958
H31   H     H_    0.663177 0.904263 0.227677 0.235135
H32   H     H_    0.685847 0.362385 0.801288 0.173073
H33   H     H_    0.663059 0.480216 0.743108 0.181099
H34   H     H_    0.771576 0.897427 0.536585 0.159771
H35   H     H_    0.598054 0.525425 0.841704 0.250866
H36   H     H_    0.505406 0.379154 0.824994 0.230152
H37   H     H_    0.622471 0.409677 0.900319 0.253194
H38   H     H_    0.341510 0.563261 0.229544 0.110665
H39   H     H_    0.291884 0.631495 0.146998 0.151257
H40   H     H_    0.334937 0.515296 0.079852 0.270996
H41   H     H_    0.468533 0.592683 0.138060 0.198297
H42   H     H_    0.378772 0.441251 0.161546 0.246833
H43   H     H_    0.715687 0.389204 0.259682 0.185271
H44   H     H_    0.693097 0.480617 0.180373 0.185263
H45   H     H_    0.183332 0.333353 0.635414 0.136885
H46   H     H_    0.619553 0.572258 0.248394 0.205334
H47   H     H_    0.531728 0.419224 0.255967 0.233696
H48   H     H_    0.642973 0.482480 0.328389 0.283700
H49   H     H_    0.164364 0.481600 0.867330 0.176934
H50   H     H_    0.323648 0.547660 0.453959 0.183690
H51   H     H_    0.853598 0.696723 0.387384 0.164293
H52   H     H_    0.719132 0.394894 0.570680 0.224636
N1    N     N_R   0.899138 0.484435 0.956919 -0.173824
N2    N     N_R   0.904852 0.489195 0.025449 -0.167649
N3    N     N_R   0.114702 0.540735 0.039596 -0.217413
N4    N     N_R   0.109051 0.535966 0.971061 -0.258010
N5    N     N_R   0.246290 0.438200 0.540910 -0.215681
N6    N     N_R   0.754310 0.561190 0.459520 -0.193077
O1    O     O_R   0.972510 0.318130 0.520450 -0.546451
O2    O     O_3   0.944936 0.112871 0.531639 -0.563614
O3    O     O_3   0.378145 0.297383 0.691391 -0.554809
O4    O     O_3   0.496947 0.698236 0.418705 -0.568793
O5    O     O_3   0.707500 0.810137 0.358802 -0.559677
O6    O     O_3   0.808079 0.528762 0.823531 -0.580655
O7    O     O_3   0.179467 0.457583 0.176014 -0.548503
O8    O     O_3   0.834892 0.563254 0.257002 -0.557177
O9    O     O_R   0.806530 0.359650 0.492990 -0.554593
O10   O     O_R   0.083010 0.479220 0.613590 -0.582393
O11   O     O_R   0.917030 0.520740 0.586130 -0.604245
O12   O     O_R   0.193470 0.640350 0.507010 -0.526713
O13   O     O_R   0.027490 0.681870 0.479550 -0.606832
O14   O     O_R   0.082970 0.479260 0.413870 -0.616560
O15   O     O_R   0.916990 0.520780 0.386410 -0.503576
O16   O     O_3   0.432139 0.235130 0.353496 -0.562287

loop_
_geom_bond_atom_site_label_1
_geom_bond_atom_site_label_2
_ccdc_geom_bond_type
C18   H4    S    
C52   H37   S    
C40   H5    S    
C27   C29   A    
C34   C37   S    
C39   H2    S    
C16   O13   A    
C44   H17   S    
Cu2   N6    S    
C7    C8    A    
C23   N3    A    
C53   C54   S    
C6    C19   A    
C52   H36   S    
C29   C30   A    
C54   H41   S    
C38   O6    S    
Cu2   O9    S    
C36   C37   A    
C1    O1    A    
C44   H16   S    
C10   C15   A    
C30   C31   A    
C2    C60   A    
Cu1   O14   S    
C57   H46   S    
C5    C17   A    
C53   H38   S    
C43   H13   S    
C3    C18   A    
C49   C50   S    
C5    C16   S    
C21   H51   S    
C41   H8    S    
C35   C36   A    
C45   C56   A    
C24   O4    S    
C8    C9    A    
C48   H25   S    
C15   F2    S    
C53   O7    S    
C49   H28   S    
C4    C12   S    
C9    C10   A    
C3    C13   A    
C46   H19   S    
C51   H32   S    
C60   F4    S    
C59   C60   A    
C34   N4    A    
C48   H24   S    
C21   C22   A    
C55   H43   S    
C32   N5    A    
C28   O15   A    
C26   N6    A    
C1    O9    A    
C51   O6    S    
C44   C46   S    
Cu1   O10   S    
C20   C29   A    
C2    C45   A    
C51   H33   S    
C52   H35   S    
C59   O8    S    
C1    C19   S    
C7    H34   S    
C54   H40   S    
C51   C52   S    
C47   O4    S    
C28   O14   A    
C24   C25   A    
C6    O2    S    
C20   O3    S    
C23   N2    A    
C57   H47   S    
C5    C18   A    
C25   C26   A    
C44   O3    S    
C49   O5    S    
C47   H21   S    
Cu2   O11   S    
C31   H52   S    
C37   C38   A    
C41   H9    S    
C47   C48   S    
C35   H1    S    
C10   C19   A    
C32   H50   S    
C12   C35   A    
C9    C11   A    
N3    N4    A    
C57   H48   S    
C4    O11   A    
C33   H45   S    
C20   C33   A    
C40   C41   S    
C14   O16   S    
C55   O8    S    
C55   C57   S    
C22   O5    S    
Cu2   O15   S    
C46   H18   S    
C42   C43   S    
C16   O12   A    
C4    O10   A    
C36   H49   S    
C34   N1    A    
C11   C17   A    
C50   H31   S    
C40   H6    S    
C27   C32   A    
N1    N2    A    
C45   O7    S    
C6    C7    A    
C28   C58   S    
C25   C27   A    
C42   H10   S    
C54   H42   S    
Cu1   N5    S    
C47   H22   S    
C12   C39   A    
C58   C59   A    
C55   H44   S    
C17   F1    S    
C11   C13   A    
C50   H30   S    
C38   C39   A    
C21   N6    A    
C43   H15   S    
C40   O16   S    
C43   H14   S    
C56   C58   A    
C22   C24   A    
Cu2   O13   S    
Cu1   Cu2   S    
C50   H29   S    
C30   F3    S    
C42   O2    S    
C41   H7    S    
C53   H39   S    
C26   C31   A    
C42   H11   S    
C56   H3    S    
C48   H26   S    
C2    C23   S    
C33   N5    A    
C14   C15   A    
Cu1   O1    S    
C8    H23   S    
C49   H27   S    
C13   C14   A    
C3    H12   S    
Cu1   O12   S    
C46   H20   S    
