data_mof_unit_29500.cif
_audit_creation_date              2012-12-11T16:21:56-0500
_audit_creation_method            fapswitch 2.2
_symmetry_space_group_name_H-M    P1
_symmetry_Int_Tables_number       1
_space_group_crystal_system       triclinic
_cell_length_a                    13.458921
_cell_length_b                    14.018021
_cell_length_c                    30.093213
_cell_angle_alpha                 97.859688
_cell_angle_beta                  90.301154
_cell_angle_gamma                 118.701064
_cell_volume                      4916.79613891

loop_
_atom_site_label
_atom_site_type_symbol
_atom_type_description
_atom_site_fract_x
_atom_site_fract_y
_atom_site_fract_z
_atom_type_partial_charge
C1    C     C_R   0.721169 0.098998 0.569146 0.544611
C2    C     C_R   0.332276 0.669359 0.675841 0.024655
C3    C     C_R   0.235380 0.639519 0.647033 0.030926
C4    C     C_R   0.250131 0.662618 0.602311 0.002078
C5    C     C_R   0.227878 0.640385 0.831319 -0.007392
C6    C     C_R   0.217816 0.617749 0.875149 -0.120244
C7    C     C_R   0.403487 0.626796 0.877620 -0.030259
C8    C     C_R   0.413366 0.648533 0.832763 0.006016
C9    C     C_R   0.323337 0.650374 0.809394 0.023042
C10   C     C_1   0.325731 0.656922 0.762178 -0.022713
C11   C     C_1   0.326966 0.661114 0.722699 -0.027250
C12   C     C_R   0.383064 0.786218 0.550445 0.530510
C13   C     C_R   0.300272 0.603051 0.897617 0.003841
C14   C     C_3   0.242449 0.173438 0.725166 -0.090600
C15   C     C_3   0.220616 0.081077 0.752753 0.028399
C16   C     C_1   0.297026 0.197346 0.876663 -0.016745
C17   C     C_1   0.365583 0.135265 0.614075 -0.009329
C18   C     C_3   0.337319 0.257569 0.761590 -0.105494
C19   C     C_3   0.314304 0.164154 0.788591 0.059251
C20   C     C_3   0.426352 0.235234 0.736750 -0.104919
C21   C     C_3   0.331425 0.151194 0.701096 0.040846
C22   C     C_3   0.403074 0.141968 0.764315 -0.115655
C23   C     C_R   0.397497 0.118588 0.569676 0.547047
C24   C     C_3   0.308380 0.057418 0.727864 -0.089068
C25   C     C_1   0.305457 0.177663 0.837153 -0.057012
C26   C     C_1   0.346402 0.144104 0.652955 -0.054835
C27   C     C_3   0.914931 0.263157 0.733213 -0.106833
C28   C     C_3   0.828027 0.263416 0.766607 0.014472
C29   C     C_1   0.894106 0.203697 0.878772 -0.015202
C30   C     C_1   0.769133 0.131322 0.614598 -0.007096
C31   C     C_3   0.930504 0.180686 0.758340 -0.109161
C32   C     C_3   0.843229 0.181984 0.791328 0.061224
C33   C     C_3   0.831746 0.083286 0.727557 0.029945
C34   C     C_R   0.719278 0.094942 0.442492 0.539208
C35   C     C_3   0.816475 0.164863 0.702939 0.040153
C36   C     C_3   0.745847 0.084879 0.760695 0.024676
C37   C     C_3   0.728861 0.166175 0.735722 -0.088017
C38   C     C_1   0.865062 0.192413 0.839761 -0.055435
C39   C     C_1   0.796224 0.150435 0.654224 -0.055200
C40   C     C_3   0.251462 0.597040 0.258049 -0.003377
C41   C     C_3   0.260164 0.682242 0.229013 0.012613
C42   C     C_1   0.310457 0.608361 0.111105 -0.002075
C43   C     C_1   0.366485 0.735990 0.378268 0.001916
C44   C     C_3   0.332998 0.572158 0.228935 -0.124843
C45   C     C_R   0.382092 0.784163 0.424435 0.543198
C46   C     C_3   0.342255 0.659084 0.200199 0.014851
C47   C     C_3   0.436113 0.664076 0.260544 -0.119551
C48   C     C_3   0.353030 0.687210 0.289211 0.035136
C49   C     C_3   0.445394 0.750498 0.230931 -0.096203
C50   C     C_3   0.362223 0.772929 0.260119 0.005425
C51   C     C_1   0.329865 0.637015 0.151101 -0.044152
C52   C     C_1   0.358812 0.708310 0.338284 -0.038122
C53   C     C_R   0.351910 0.136624 0.401840 -0.037189
C54   C     C_R   0.412712 0.240845 0.387386 -0.014883
C55   C     C_R   0.400192 0.250644 0.341974 -0.015692
C56   C     C_R   0.394590 0.115334 0.443297 0.536073
C57   C     C_R   0.323070 0.156787 0.311784 0.016275
C58   C     C_R   0.247625 0.059527 0.327622 -0.041122
C59   C     C_R   0.260959 0.049188 0.372729 -0.060699
C60   C     C_R   0.226409 0.101459 0.150021 -0.018180
C61   C     C_R   0.220597 0.121566 0.106467 -0.147057
C62   C     C_R   0.421597 0.257997 0.115035 -0.036023
C63   C     C_R   0.427994 0.237332 0.159268 -0.028821
C64   C     C_R   0.328652 0.163207 0.177249 -0.005475
C65   C     C_1   0.327978 0.158795 0.224555 -0.005417
C66   C     C_1   0.325191 0.157632 0.264208 -0.002182
C67   C     C_R   0.362092 0.723504 0.588761 0.005020
C68   C     C_R   0.315004 0.204594 0.089497 -0.023818
C69   C     C_R   0.774509 0.131201 0.401300 0.003443
C70   C     C_R   0.797055 0.060228 0.370740 -0.127270
C71   C     C_R   0.820401 0.081391 0.326991 -0.129252
C72   C     C_R   0.821535 0.173448 0.313421 0.026713
C73   C     C_R   0.807551 0.249428 0.344638 0.002656
C74   C     C_R   0.785253 0.228473 0.388531 -0.131753
C75   C     C_R   0.878583 0.298142 0.165831 -0.089164
C76   C     C_R   0.905944 0.308028 0.121458 -0.120388
C77   C     C_R   0.850696 0.113638 0.106339 -0.121856
C78   C     C_R   0.455338 0.737649 0.616612 -0.041921
C79   C     C_R   0.823104 0.103958 0.150603 -0.112558
C80   C     C_R   0.840989 0.196968 0.180659 0.036454
C81   C     C_1   0.832620 0.190581 0.227482 0.008106
C82   C     C_1   0.828302 0.183793 0.266743 0.010391
C83   C     C_R   0.896954 0.216793 0.091924 0.016444
C84   C     C_R   0.284011 0.232533 0.922043 0.546920
C85   C     C_R   0.266891 0.548597 0.938204 0.539930
C86   C     C_R   0.944731 0.221964 0.923037 0.546810
C87   C     C_R   0.293293 0.242592 0.048793 0.544271
C88   C     C_R   0.275625 0.558940 0.065102 0.545517
C89   C     C_R   0.439230 0.711474 0.659732 -0.142306
C90   C     C_R   0.953684 0.232904 0.049833 0.541902
Cr1   Cr    Cr6+3 0.583430 0.162610 0.509470 1.043113
Cr2   Cr    Cr6+3 0.584210 0.916680 0.495400 1.061882
Cr3   Cr    Cr6+3 0.332380 0.920740 0.495100 1.054495
Cr4   Cr    Cr6+3 0.086810 0.177030 0.983130 1.025098
Cr5   Cr    Cr6+3 0.337180 0.419300 0.994610 1.035771
Cr6   Cr    Cr6+3 0.084840 0.422330 0.995830 1.035430
H1    H     H_    0.140649 0.604374 0.890659 0.143040
H2    H     H_    0.176246 0.185743 0.708784 0.105700
H3    H     H_    0.295592 0.974677 0.713437 0.110280
H4    H     H_    0.468897 0.129200 0.780736 0.104132
H5    H     H_    0.511493 0.299257 0.729587 0.117182
H6    H     H_    0.349714 0.340171 0.776019 0.119217
H7    H     H_    0.984111 0.336841 0.721646 0.105601
H8    H     H_    0.646286 0.160788 0.726169 0.104150
H9    H     H_    0.013063 0.186087 0.767889 0.104614
H10   H     H_    0.524901 0.814129 0.219416 0.118864
H11   H     H_    0.508201 0.656032 0.274027 0.126975
H12   H     H_    0.320776 0.489027 0.215595 0.123414
H13   H     H_    0.138875 0.077097 0.087004 0.147059
H14   H     H_    0.941685 0.388570 0.111329 0.149125
H15   H     H_    0.892582 0.370462 0.189104 0.157559
H16   H     H_    0.768849 0.284639 0.411778 0.140775
H17   H     H_    0.789362 0.984806 0.379640 0.147144
H18   H     H_    0.793774 0.025342 0.161995 0.123470
H19   H     H_    0.842427 0.041931 0.084265 0.136096
H20   H     H_    0.831798 0.022878 0.303075 0.131276
H21   H     H_    0.511958 0.728469 0.681785 0.125548
O1    O     O_R   0.493980 0.188910 0.559650 -0.501270
O2    O     O_R   0.480180 0.824400 0.444640 -0.496712
O3    O     O_R   0.308310 0.808540 0.439800 -0.489099
O4    O     O_R   0.340740 0.020600 0.455570 -0.486771
O5    O     O_3   0.500010 0.000010 0.499990 -0.257215
O6    O     O_R   0.969650 0.150960 0.933380 -0.506131
O7    O     O_R   0.187740 0.180870 0.937580 -0.493318
O8    O     O_R   0.358510 0.327410 0.940870 -0.512336
O9    O     O_R   0.324180 0.507870 0.953930 -0.503495
O10   O     O_R   0.170560 0.527890 0.952050 -0.519144
O11   O     O_R   0.987620 0.318470 0.945550 -0.493542
O12   O     O_R   0.678640 0.153520 0.554450 -0.500659
O13   O     O_R   0.976400 0.159270 0.031530 -0.520116
O14   O     O_R   0.194000 0.188570 0.028560 -0.506177
O15   O     O_R   0.365260 0.335720 0.039020 -0.490946
O16   O     O_R   0.330440 0.515580 0.044910 -0.492475
O17   O     O_R   0.177310 0.536200 0.050190 -0.503539
O18   O     O_R   0.993870 0.326170 0.036530 -0.498355
O19   O     O_3   0.169610 0.339550 0.991190 -0.247203
O20   O     O_R   0.698130 0.004030 0.549500 -0.480148
O21   O     O_R   0.481060 0.827210 0.535360 -0.484942
O22   O     O_R   0.309260 0.811560 0.537660 -0.515147
O23   O     O_R   0.341620 0.023400 0.546290 -0.493156
O24   O     O_R   0.493030 0.185890 0.461780 -0.496489
O25   O     O_R   0.677760 0.150720 0.463730 -0.504386
O26   O     O_R   0.697180 0.001010 0.451640 -0.510258
C91   C     C_3   0.825540 0.365933 0.789220 -0.408270
H22   H     H_    0.815263 0.410234 0.763217 0.130919
H23   H     H_    0.753287 0.342057 0.810772 0.137396
H24   H     H_    0.906216 0.420889 0.810326 0.137343
C92   C     C_3   0.649783 0.984107 0.776134 -0.398354
H25   H     H_    0.591913 0.927517 0.746602 0.135366
H26   H     H_    0.685365 0.940554 0.793248 0.156594
H27   H     H_    0.601234 0.010018 0.799882 0.129205
C93   C     C_3   0.834700 0.980659 0.705281 -0.391923
H28   H     H_    0.847330 0.938132 0.731495 0.133076
H29   H     H_    0.753127 0.924149 0.685006 0.156331
H30   H     H_    0.905650 0.004108 0.683078 0.138828
C94   C     C_3   0.133075 0.647420 0.807568 -0.402736
H31   H     H_    0.066537 0.642154 0.830340 0.122911
H32   H     H_    0.167615 0.726998 0.794667 0.138174
H33   H     H_    0.092224 0.578449 0.779049 0.126922
C95   C     C_1   0.164253 0.692473 0.211457 0.211181
N1    N     N_1   0.088686 0.700407 0.197562 -0.240831
C96   C     C_1   0.146055 0.512424 0.272846 0.204606
N2    N     N_1   0.062989 0.445653 0.284506 -0.282135
C97   C     C_3   0.379537 0.887103 0.278302 -0.386509
H34   H     H_    0.377330 0.929298 0.249979 0.146123
H35   H     H_    0.311046 0.879397 0.300280 0.152521
H36   H     H_    0.462907 0.936421 0.298258 0.136230
C98   C     C_1   0.123747 0.022248 0.167007 0.211299
N3    N     N_1   0.041375 0.958939 0.180474 -0.255968
C99   C     C_1   0.158981 0.968165 0.296969 0.198458
N4    N     N_1   0.088321 0.895205 0.272680 -0.230184
C100  C     C_3   0.117319 0.585286 0.663510 -0.397246
H37   H     H_    0.066418 0.500427 0.644819 0.128898
H38   H     H_    0.117672 0.578395 0.699689 0.126307
H39   H     H_    0.074393 0.634072 0.658394 0.131912
C101  C     C_1   0.182118 0.947179 0.387963 0.235826
N5    N     N_1   0.118883 0.865695 0.399905 -0.252743
C102  C     C_1   0.488980 0.338615 0.418737 0.227467
N6    N     N_1   0.549776 0.416782 0.443646 -0.279779
C103  C     C_1   0.535163 0.295299 0.186871 0.199450
N7    N     N_1   0.620559 0.341373 0.208906 -0.276027
C104  C     C_1   0.523658 0.334938 0.096727 0.238628
N8    N     N_1   0.605329 0.396327 0.082189 -0.272511
C105  C     C_3   0.472265 0.360628 0.326255 -0.369594
H40   H     H_    0.453296 0.360110 0.290322 0.144897
H41   H     H_    0.457150 0.424716 0.346031 0.139212
H42   H     H_    0.563581 0.384723 0.331328 0.168480
C106  C     C_1   0.808643 0.345442 0.331674 0.223267
N9    N     N_1   0.809406 0.422257 0.321266 -0.252880
C107  C     C_3   0.146661 0.620963 0.569568 -0.367438
H43   H     H_    0.085097 0.533993 0.571779 0.121486
H44   H     H_    0.104946 0.672402 0.577136 0.148918
H45   H     H_    0.168184 0.620090 0.534052 0.154959
C108  C     C_1   0.570054 0.781240 0.603151 0.218423
N10   N     N_1   0.662087 0.815290 0.592655 -0.275968
C109  C     C_1   0.513209 0.664028 0.809681 0.177111
N11   N     N_1   0.592732 0.676439 0.791182 -0.329170
C110  C     C_3   0.500773 0.627267 0.903419 -0.367499
H46   H     H_    0.511848 0.669380 0.938578 0.138213
H47   H     H_    0.483674 0.541464 0.903244 0.166441
H48   H     H_    0.583385 0.672968 0.889097 0.135222
C111  C     C_3   0.103839 0.993041 0.762142 -0.407068
H49   H     H_    0.053675 0.944860 0.729863 0.129470
H50   H     H_    0.113023 0.936971 0.782476 0.136419
H51   H     H_    0.058822 0.032378 0.780971 0.135204

loop_
_geom_bond_atom_site_label_1
_geom_bond_atom_site_label_2
_ccdc_geom_bond_type
C7    C13   A    
C21   C26   S    
C40   C41   S    
C107  H43   S    
C16   C25   T    
C24   H3    S    
C73   C74   A    
C14   C18   S    
C94   H33   S    
C92   H27   S    
C16   C84   S    
C57   C66   S    
Cr2   O21   S    
C15   C111  S    
C23   O1    A    
C81   C82   T    
C53   C59   A    
C7    C8    A    
Cr6   O19   S    
C53   C54   A    
C100  H37   S    
C15   C19   S    
C46   C49   S    
C17   C23   S    
C111  H50   S    
C18   H6    S    
C17   C26   T    
C32   C36   S    
C14   C21   S    
C97   H34   S    
C58   C99   S    
Cr2   O2    S    
C92   H26   S    
C88   O16   A    
C1    O12   A    
C74   H16   S    
C5    C6    A    
C3    C100  S    
C109  N11   T    
C99   N4    T    
C77   C83   A    
Cr5   O16   S    
C33   C36   S    
C105  H40   S    
Cr6   O11   S    
C18   C19   S    
C78   C108  S    
C87   O14   A    
Cr2   O26   S    
C104  N8    T    
C1    C30   S    
C107  H45   S    
C98   N3    T    
C36   C92   S    
C34   O25   A    
C31   C32   S    
C44   C46   S    
C8    C9    A    
Cr1   O5    S    
C29   C38   T    
C30   C39   T    
C36   C37   S    
Cr4   O19   S    
C41   C46   S    
C31   C33   S    
C86   O11   A    
C110  H46   S    
C28   C91   S    
Cr3   O3    S    
C32   C38   S    
C75   C80   A    
C44   C47   S    
C42   C51   T    
Cr1   O25   S    
Cr3   O4    S    
Cr4   O6    S    
C45   O2    A    
C22   C24   S    
C48   C50   S    
C108  N10   T    
C61   H13   S    
C78   C89   A    
C31   H9    S    
C85   O9    A    
C67   C78   A    
C91   H24   S    
C19   C25   S    
Cr2   O20   S    
C76   C83   A    
C100  H38   S    
C60   C64   A    
C14   H2    S    
Cr6   O18   S    
C44   H12   S    
C70   H17   S    
C12   C67   S    
C34   O26   A    
C12   O22   A    
C22   H4    S    
C111  H49   S    
C50   C97   S    
C6    H1    S    
C4    C107  S    
C23   O23   A    
C28   C32   S    
C19   C22   S    
C92   H25   S    
C91   H23   S    
C59   C101  S    
C80   C81   S    
Cr6   O17   S    
C20   H5    S    
C27   C35   S    
C58   C59   A    
C63   C64   A    
C27   C31   S    
C46   C51   S    
C111  H51   S    
C63   C103  S    
C54   C102  S    
Cr6   O10   S    
C60   C61   A    
C94   H31   S    
C87   O15   A    
C2    C89   A    
C35   C39   S    
C75   C76   A    
C5    C9    A    
C62   C63   A    
Cr3   O22   S    
Cr2   O5    S    
C62   C104  S    
C41   C95   S    
Cr5   O8    S    
C47   C48   S    
C93   H30   S    
C40   C44   S    
C55   C105  S    
C110  H48   S    
C77   C79   A    
C69   C74   A    
C60   C98   S    
C20   C21   S    
C43   C45   S    
C34   C69   S    
C29   C86   S    
C70   C71   A    
C56   O24   A    
C45   O3    A    
C101  N5    T    
C93   H29   S    
C65   C66   T    
C47   H11   S    
C37   H8    S    
C55   C57   A    
Cr5   O15   S    
C12   O21   A    
C21   C24   S    
C85   O10   A    
C42   C88   S    
C20   C22   S    
C3    C4    A    
Cr4   O13   S    
C41   C50   S    
C86   O6    A    
C73   C106  S    
C1    O20   A    
C103  N7    T    
C96   N2    T    
C9    C10   S    
C53   C56   S    
C84   O8    A    
C40   C48   S    
C83   C90   S    
C61   C68   A    
C54   C55   A    
C15   C24   S    
C107  H44   S    
C35   C37   S    
C84   O7    A    
C97   H36   S    
C89   H21   S    
C72   C73   A    
C33   C93   S    
C4    C67   A    
C110  H47   S    
C100  H39   S    
C49   H10   S    
Cr1   O12   S    
C47   C49   S    
C5    C94   S    
C75   H15   S    
Cr4   O14   S    
C105  H42   S    
C62   C68   A    
C91   H22   S    
C56   O4    A    
C27   H7    S    
C7    C110  S    
C94   H32   S    
C2    C3    A    
C88   O17   A    
C71   C72   A    
Cr3   O23   S    
C64   C65   S    
C6    C13   A    
C90   O18   A    
Cr5   O9    S    
C57   C58   A    
C28   C37   S    
C97   H35   S    
Cr5   O19   S    
C33   C35   S    
C105  H41   S    
C71   H20   S    
C8    C109  S    
C18   C20   S    
C69   C70   A    
C43   C52   T    
C95   N1    T    
Cr1   O1    S    
C10   C11   T    
C79   C80   A    
C90   O13   A    
C48   C52   S    
C93   H28   S    
C76   H14   S    
C49   C50   S    
C79   H18   S    
C13   C85   S    
C27   C28   S    
C68   C87   S    
C14   C15   S    
C106  N9    T    
C2    C11   S    
Cr1   O24   S    
C77   H19   S    
Cr3   O5    S    
C72   C82   S    
C102  N6    T    
C40   C96   S    
Cr4   O7    S    
