data_mof_unit_66807.cif
_audit_creation_date              2013-03-05T15:41:24-0500
_audit_creation_method            fapswitch 2.2
_symmetry_space_group_name_H-M    P1
_symmetry_Int_Tables_number       1
_space_group_crystal_system       triclinic
_cell_length_a                    8.349782
_cell_length_b                    15.045918
_cell_length_c                    15.150704
_cell_angle_alpha                 97.108589
_cell_angle_beta                  100.097498
_cell_angle_gamma                 97.929286
_cell_volume                      1834.50274026

loop_
_atom_site_label
_atom_site_type_symbol
_atom_site_description
_atom_site_fract_x
_atom_site_fract_y
_atom_site_fract_z
_atom_type_partial_charge
P1    P     P_3+3 0.004160 0.709210 0.580280 0.500035
O1    O     O_2   0.174040 0.723040 0.553850 -0.347188
O2    O     O_3   0.901550 0.609570 0.550800 -0.386135
O3    O     O_3   0.370320 0.665070 0.388210 -0.374019
O4    O     O_2   0.280573 0.825654 0.434521 -0.378810
O5    O     O_3   0.061123 0.738322 0.698603 -0.584146
O6    O     O_3   0.382902 0.804177 0.278861 -0.539220
H1    H     H_    0.566356 0.723752 0.268621 0.087317
C1    C     C_3   0.453679 0.738665 0.137618 -0.708303
H2    H     H_    0.359236 0.677538 0.132184 0.199286
P2    P     P_3+3 0.305010 0.425580 0.290930 0.522880
P3    P     P_3+3 0.886019 0.590358 0.221363 0.520675
O7    O     O_2   0.134800 0.452800 0.278160 -0.329114
O8    O     O_3   0.937630 0.618610 0.340820 -0.343159
O9    O     O_2   0.032361 0.559683 0.182422 -0.385793
O10   O     O_3   0.251672 0.307812 0.285164 -0.560574
O11   O     O_3   0.858640 0.690628 0.176923 -0.577553
C2    C     C_3   0.010324 0.747646 0.185723 0.500022
H3    H     H_    0.102049 0.711872 0.157741 0.120474
H4    H     H_    0.059715 0.775150 0.258328 0.144356
C3    C     C_3   0.983287 0.825566 0.132028 -0.756352
H5    H     H_    0.072300 0.887507 0.164518 0.251733
H6    H     H_    0.999086 0.806619 0.061192 0.255912
C4    C     C_3   0.853295 0.260366 0.252132 0.198355
H7    H     H_    0.973811 0.299421 0.286867 0.167242
C5    C     C_3   0.863574 0.158465 0.239555 -0.943600
H8    H     H_    0.740756 0.117294 0.235078 0.304410
H9    H     H_    0.909391 0.137493 0.177004 0.245988
H10   H     H_    0.950798 0.142188 0.296866 0.255559
Ba1   Ba    Ba6+2 0.154720 0.543770 0.458160 1.668601
C6    C     C_3   0.056394 0.663477 0.745486 0.185051
H11   H     H_    0.180847 0.644085 0.757169 0.119095
H12   H     H_    0.965710 0.603585 0.709816 0.147620
C7    C     C_3   0.011235 0.694707 0.836594 0.067998
H13   H     H_    0.082995 0.762749 0.866572 0.190641
H14   H     H_    0.878323 0.699696 0.826250 0.163858
C8    C     C_3   0.331194 0.259551 0.225036 0.379563
H15   H     H_    0.457474 0.294900 0.226955 0.061097
C9    C     C_3   0.231854 0.246373 0.127853 -0.996980
H16   H     H_    0.134271 0.185558 0.113633 0.262324
H17   H     H_    0.315909 0.239213 0.079416 0.294776
H18   H     H_    0.171409 0.305567 0.115072 0.271384
P4    P     P_3+3 0.806120 0.290780 0.419650 0.523527
O12   O     O_2   0.636250 0.276900 0.446120 -0.329508
O13   O     O_3   0.908740 0.390420 0.449120 -0.340475
O14   O     O_3   0.439970 0.334920 0.611710 -0.345697
O15   O     O_3   0.732472 0.279534 0.302166 -0.609921
P5    P     P_3+3 0.918041 0.374697 0.776114 0.583160
O16   O     O_3   0.402050 0.547860 0.609740 -0.329294
O17   O     O_3   0.872650 0.381380 0.659100 -0.253301
O18   O     O_2   0.820714 0.444435 0.816578 -0.323916
O19   O     O_3   0.803402 0.270865 0.790775 -0.530126
Ba2   Ba    Ba6+2 0.655440 0.456220 0.541760 1.707232
P6    P     P_3+3 0.415260 0.784303 0.392488 0.454560
C10   C     C_3   0.514800 0.779756 0.238440 0.184383
H19   H     H_    0.559209 0.714749 0.111865 0.221887
O20   O     O_3   0.408230 0.452130 0.390190 -0.380065
C11   C     C_3   0.584235 0.739549 0.692817 0.312135
H20   H     H_    0.698691 0.718128 0.675747 0.072878
H21   H     H_    0.483410 0.727559 0.632235 0.156780
C12   C     C_3   0.619478 0.841729 0.726030 -0.811639
H22   H     H_    0.648373 0.877227 0.669228 0.159440
H23   H     H_    0.507670 0.864832 0.745198 0.257892
P7    P     P_3+3 0.500399 0.575285 0.724235 0.579111
O21   O     O_2   0.675480 0.547140 0.721810 -0.351988
O22   O     O_3   0.533037 0.693145 0.760207 -0.497665
H24   H     H_    0.857150 0.841807 0.128986 0.271682
C13   C     C_3   0.893342 0.200392 0.813579 0.325321
C14   C     C_3   0.012507 0.227968 0.905622 -1.037196
H25   H     H_    0.042795 0.167718 0.936342 0.312874
H26   H     H_    0.131344 0.264055 0.897138 0.213359
H27   H     H_    0.957086 0.270141 0.953769 0.294503
P8    P     P_3+3 0.398297 0.216680 0.599768 0.566605
C15   C     C_3   0.411134 0.252000 0.773643 0.327845
H28   H     H_    0.280009 0.260124 0.760244 0.032259
O23   O     O_2   0.530903 0.179863 0.553077 -0.335616
O24   O     O_3   0.441307 0.184864 0.707932 -0.463081
H29   H     H_    0.487875 0.318401 0.773208 0.132569
H30   H     H_    0.418731 0.276813 0.918785 0.158588
C16   C     C_3   0.457847 0.227369 0.869498 -0.719446
H31   H     H_    0.593507 0.235752 0.889603 0.227052
C17   C     C_R   0.632058 0.833289 0.454592 0.037189
H32   H     H_    0.482127 0.969539 0.397463 0.176710
C18   C     C_R   0.895058 0.797004 0.527976 0.215645
C19   C     C_R   0.090332 0.228578 0.497741 -0.267229
C20   C     C_R   0.188364 0.169531 0.534969 0.289296
C21   C     C_R   0.121383 0.078523 0.531974 -0.314509
C22   C     C_R   0.950574 0.046431 0.499373 0.108152
C23   C     C_R   0.850994 0.108709 0.462506 0.012015
C24   C     C_R   0.876073 0.954396 0.501314 0.105896
C25   C     C_R   0.704075 0.926041 0.463297 0.046807
C26   C     C_R   0.611578 0.988808 0.427558 -0.127121
C27   C     C_R   0.684467 0.076776 0.424635 -0.074006
C28   C     C_R   0.966477 0.888899 0.538408 -0.265423
C29   C     C_R   0.733745 0.771101 0.481649 -0.467557
C30   C     C_R   0.921749 0.201227 0.463647 0.183688
H33   H     H_    0.092145 0.906765 0.574790 0.163797
H34   H     H_    0.146011 0.297443 0.496362 0.184380
H35   H     H_    0.204640 0.035606 0.559246 0.155754
H36   H     H_    0.607558 0.118954 0.390703 0.177141
C31   C     C_R   0.244705 0.452431 0.766282 0.040354
C32   C     C_R   0.142988 0.420188 0.824108 0.162989
C33   C     C_R   0.206837 0.435865 0.918098 -0.319321
C34   C     C_R   0.367377 0.485298 0.955061 -0.005567
C35   C     C_R   0.450577 0.532323 0.896021 0.341360
C36   C     C_R   0.393746 0.512175 0.801414 0.069166
C37   C     C_R   0.618956 0.504673 0.083696 -0.173696
C38   C     C_R   0.689975 0.513765 0.175832 0.301393
C39   C     C_R   0.422987 0.467778 0.209298 0.232718
C40   C     C_R   0.348154 0.472008 0.119773 -0.293574
C41   C     C_R   0.445076 0.488200 0.053847 0.100086
C42   C     C_R   0.593557 0.486860 0.236133 -0.386052
H37   H     H_    0.701712 0.513356 0.037126 0.206979
H38   H     H_    0.128617 0.410133 0.961657 0.187977
H39   H     H_    0.215449 0.460550 0.102564 0.197072
H40   H     H_    0.651500 0.483720 0.305081 0.198350
Cl1   Cl    Cl    0.052158 0.619850 0.916407 -0.603647
C43   C     C_2   0.345930 0.168094 0.253914 0.996378
O25   O     O_2   0.299676 0.149106 0.322602 -0.648395
O26   O     O_R   0.410467 0.104341 0.201327 -0.806843
H41   H     H_    0.411883 0.045457 0.227224 0.368410
C44   C     C_2   0.652518 0.860262 0.250447 0.979848
O27   O     O_2   0.625304 0.929892 0.221490 -0.573846
O28   O     O_R   0.811798 0.857551 0.296226 -0.796698
H42   H     H_    0.823194 0.798410 0.320030 0.290243
C45   C     C_2   0.761212 0.866502 0.806022 1.171046
O29   O     O_2   0.740309 0.850437 0.880603 -0.530236
O30   O     O_R   0.916579 0.907952 0.796801 -0.755971
H43   H     H_    0.922602 0.915815 0.731991 0.309922
C46   C     C_2   0.384562 0.800902 0.075434 1.222688
O31   O     O_2   0.368065 0.779161 0.993526 -0.572690
O32   O     O_R   0.338752 0.882095 0.109595 -0.767640
H44   H     H_    0.295540 0.917141 0.060008 0.326715
C47   C     C_2   0.768411 0.118661 0.819359 1.044889
O33   O     O_2   0.677471 0.076916 0.750083 -0.589915
O34   O     O_R   0.758331 0.089284 0.902772 -0.784595
H45   H     H_    0.675080 0.032072 0.896762 0.350707
C48   C     C_2   0.983192 0.168025 0.741178 0.881184
O35   O     O_2   0.976031 0.201559 0.671626 -0.626773
O36   O     O_R   0.066077 0.094529 0.752570 -0.803896
H46   H     H_    0.121964 0.076858 0.700777 0.339604
C49   C     C_2   0.385635 0.132180 0.879118 1.267367
O37   O     O_2   0.390202 0.067665 0.822569 -0.578497
O38   O     O_R   0.320154 0.117103 0.955567 -0.804899
H47   H     H_    0.277012 0.050646 0.955169 0.342778
C50   C     C_2   0.669419 0.676175 0.460028 1.116173
O39   O     O_2   0.669345 0.634662 0.385993 -0.673867
O40   O     O_R   0.590303 0.636284 0.520819 -0.803553
H48   H     H_    0.511924 0.581050 0.488724 0.395629
Cl2   Cl    Cl    0.607225 0.627702 0.939136 -0.542818
Cl3   Cl    Cl    0.181773 0.421049 0.648964 -0.578840
C51   C     C_2   0.808061 0.290294 0.160365 1.012610
O41   O     O_2   0.897326 0.352114 0.139429 -0.632776
O42   O     O_R   0.665077 0.249032 0.098297 -0.776612
H49   H     H_    0.600587 0.197316 0.120419 0.343947

loop_
_geom_bond_atom_site_label_1
_geom_bond_atom_site_label_2
_geom_bond_distance
_ccdc_geom_bond_type
C21   C22   1.419565 A    
C31   C32   1.405942 A    
P2    C39   1.830881 S    
C2    C3    1.527057 S    
P2    O7    1.519475 D    
Ba1   O13   2.841911 S    
C13   C48   1.503456 S    
O6    C10   1.419650 S    
O30   H43   1.012485 S    
C9    H17   1.106626 S    
C1    C46   1.508093 S    
P1    C18   1.881670 S    
H32   C26   1.080875 S    
C5    H8    1.109022 S    
C45   O29   1.220981 D    
C26   C27   1.387773 A    
C4    C5    1.537563 S    
C7    H13   1.110693 S    
C16   H31   1.105375 S    
C19   C30   1.396498 A    
C42   H40   1.081116 S    
C11   H21   1.109020 S    
Ba1   O20   2.942858 S    
C2    H4    1.110200 S    
C12   H23   1.111910 S    
P1    O1    1.534286 D    
C14   H26   1.099671 S    
C43   O25   1.223865 D    
C37   H37   1.077606 S    
C19   H34   1.079815 S    
C4    C51   1.515328 S    
C32   C33   1.408412 A    
C13   C14   1.537278 S    
O12   Ba2   2.869917 S    
C11   O22   1.399919 S    
P5    O18   1.545306 D    
C8    C43   1.508964 S    
P2    Ba1   3.431012 S    
O32   H44   1.013961 S    
C15   O24   1.408629 S    
P3    O11   1.753344 S    
C37   C38   1.399671 A    
C6    H12   1.106869 S    
C4    H7    1.099761 S    
C12   C45   1.507267 S    
C1    C10   1.543331 S    
Ba2   O21   2.862498 S    
C1    H2    1.110357 S    
C50   O40   1.373203 S    
O19   C13   1.423752 S    
O10   C8    1.406916 S    
C7    Cl1   1.773668 S    
P5    O17   1.765149 S    
O5    C6    1.403483 S    
C10   C44   1.520007 S    
O13   Ba2   2.949247 S    
O16   P7    1.756022 S    
C15   C16   1.540464 S    
C3    H5    1.109203 S    
C3    H24   1.108096 S    
C12   H22   1.111355 S    
C29   C50   1.430573 S    
O8    Ba1   2.764566 S    
H1    C10   1.109442 S    
C34   C35   1.422058 A    
P4    Ba2   3.426689 S    
C24   C28   1.431912 A    
C9    H18   1.103569 S    
C21   H35   1.077087 S    
Ba1   Ba2   4.633397 S    
O17   Ba2   2.765168 S    
C15   H28   1.104540 S    
P1    O5    1.755263 S    
O7    Ba1   2.862271 S    
C33   H38   1.075458 S    
O40   H48   0.996863 S    
C39   C42   1.389748 A    
C9    H16   1.109747 S    
P3    C38   1.835832 S    
Ba2   O20   2.793885 S    
C20   C21   1.397943 A    
C2    H3    1.107768 S    
C47   O34   1.401730 S    
C28   H33   1.076953 S    
C11   H20   1.111344 S    
C19   C20   1.392919 A    
C31   Cl3   1.747772 S    
C17   C25   1.421840 A    
C38   C42   1.380655 A    
P1    O2    1.589587 S    
C18   C29   1.383730 A    
P7    O22   1.758211 S    
O2    Ba1   2.948325 S    
C46   O32   1.395854 S    
P4    O12   1.534503 D    
C8    H15   1.107338 S    
C35   Cl2   1.774095 S    
P4    C30   1.883485 S    
P2    O10   1.753858 S    
O4    P6    1.550328 D    
C6    H11   1.108258 S    
P3    O9    1.547634 D    
P5    C32   1.888991 S    
O11   C2    1.403762 S    
C6    C7    1.529445 S    
C40   C41   1.414635 A    
C1    H19   1.109701 S    
C18   C28   1.406297 A    
O36   H46   1.007567 S    
P4    O13   1.589605 S    
C27   H36   1.075551 S    
O42   H49   1.009952 S    
C48   O36   1.395749 S    
Ba1   O16   2.794582 S    
C22   C24   1.443670 A    
C16   C49   1.510051 S    
C3    H6    1.111205 S    
P8    O23   1.542761 D    
C49   O38   1.394572 S    
C44   O28   1.396436 S    
P6    C17   1.889036 S    
C14   H27   1.110728 S    
O26   H41   1.013077 S    
C50   O39   1.214316 D    
C31   C36   1.407376 A    
C45   O30   1.397600 S    
C17   C29   1.398755 A    
O3    P6    1.772088 S    
C4    O15   1.403528 S    
C37   C41   1.420063 A    
C51   O42   1.397292 S    
O34   H45   1.012823 S    
C34   C41   1.516045 S    
P7    C36   1.862424 S    
C47   O33   1.224134 D    
C35   C36   1.409205 A    
C5    H9    1.109270 S    
O1    Ba1   2.869372 S    
P7    O21   1.582276 D    
C23   C30   1.431994 A    
C13   C47   1.520779 S    
C46   O31   1.221926 D    
P3    O8    1.768488 S    
C8    C9    1.532771 S    
C39   C40   1.403344 A    
O2    Ba2   2.842563 S    
C24   C25   1.434006 A    
C11   C12   1.528127 S    
O16   Ba2   2.942071 S    
O14   Ba2   2.816426 S    
P1    Ba1   3.426202 S    
C7    H14   1.107579 S    
C23   C27   1.400404 A    
C14   H25   1.108493 S    
C43   O26   1.396155 S    
P8    C20   1.849551 S    
C48   O35   1.219166 D    
H30   C16   1.110302 S    
O38   H47   1.013890 S    
P5    O19   1.775968 S    
C22   C23   1.436326 A    
C5    H10   1.106548 S    
C15   H29   1.111412 S    
C33   C34   1.422073 A    
P8    O24   1.754674 S    
C49   O37   1.222110 D    
C51   O41   1.218990 D    
O6    P6    1.764280 S    
C44   O27   1.219075 D    
P2    O20   1.570292 S    
P4    O15   1.757271 S    
C40   H39   1.077204 S    
O14   P8    1.745349 S    
O3    Ba1   2.817094 S    
C25   C26   1.400953 A    
O28   H42   1.010776 S    
