data_mof_unit_19941.cif
_audit_creation_date              2012-12-11T17:16:05-0500
_audit_creation_method            fapswitch 2.2
_symmetry_space_group_name_H-M    P1
_symmetry_Int_Tables_number       1
_space_group_crystal_system       triclinic
_cell_length_a                    14.609291
_cell_length_b                    7.231452
_cell_length_c                    13.462388
_cell_angle_alpha                 89.999933
_cell_angle_beta                  99.376932
_cell_angle_gamma                 90.0
_cell_volume                      1403.24827824

loop_
_atom_site_label
_atom_site_type_symbol
_atom_type_description
_atom_site_fract_x
_atom_site_fract_y
_atom_site_fract_z
_atom_type_partial_charge
O1    O     O_R   0.398210 0.494340 0.401550 -0.530997
O2    O     O_R   0.601790 0.994340 0.598450 -0.530997
O3    O     O_R   0.586310 0.821730 0.403360 -0.544417
O4    O     O_R   0.413690 0.321730 0.596640 -0.544416
C1    C     C_R   0.615315 0.655717 0.381662 0.647904
C2    C     C_R   0.384684 0.155717 0.618337 0.647902
O5    O     O_R   0.397970 0.823900 0.389580 -0.534619
O6    O     O_R   0.602030 0.323900 0.610420 -0.534619
O7    O     O_R   0.412100 0.996500 0.584560 -0.539085
O8    O     O_R   0.587900 0.496500 0.415440 -0.539084
C3    C     C_R   0.365027 0.655234 0.363045 0.720500
C4    C     C_R   0.634973 0.155233 0.636955 0.720501
O9    O     O_3   0.504860 0.661550 0.563990 -0.374926
O10   O     O_3   0.495140 0.161550 0.436010 -0.374926
V1    V     V_3+5 0.499100 0.935510 0.488130 1.387868
V2    V     V_3+5 0.500900 0.435510 0.511870 1.387868
C5    C     C_1   0.716047 0.144657 0.716832 -0.191376
C6    C     C_1   0.283953 0.644657 0.283168 -0.191375
C7    C     C_1   0.783943 0.134144 0.783188 -0.191171
C8    C     C_1   0.216057 0.634143 0.216812 -0.191171
C9    C     C_3   0.214950 0.337753 0.793018 -0.311430
C10   C     C_3   0.785034 0.837754 0.206965 -0.311432
H1    H     H_    0.152753 0.418620 0.759275 0.139691
H2    H     H_    0.847226 0.918650 0.240696 0.139695
H3    H     H_    0.243923 0.404703 0.865842 0.135171
H4    H     H_    0.756054 0.904677 0.134135 0.135166
C11   C     C_3   0.287876 0.345601 0.722025 -0.314026
C12   C     C_3   0.712113 0.845603 0.277961 -0.314032
H5    H     H_    0.351259 0.416373 0.761308 0.137094
H6    H     H_    0.648725 0.916362 0.238678 0.137089
H7    H     H_    0.260081 0.430245 0.654765 0.135722
H8    H     H_    0.739905 0.930266 0.345214 0.135726
H9    H     H_    0.084739 0.122357 0.672648 0.120654
H10   H     H_    0.915260 0.622417 0.327355 0.120659
H11   H     H_    0.193333 0.133815 0.566927 0.122930
H12   H     H_    0.806665 0.633845 0.433076 0.122926
C13   C     C_3   0.148444 0.047490 0.707625 -0.325874
C14   C     C_3   0.851562 0.547522 0.292382 -0.325884
C15   C     C_3   0.276322 0.027986 0.856844 -0.320340
C16   C     C_3   0.723685 0.527951 0.143165 -0.320330
C17   C     C_3   0.186826 0.134634 0.811526 0.122968
C18   C     C_3   0.813173 0.634634 0.188474 0.122977
H13   H     H_    0.259353 0.880929 0.870101 0.139203
H14   H     H_    0.740664 0.380890 0.129925 0.139205
C19   C     C_3   0.312936 0.148175 0.688781 0.122112
C20   C     C_3   0.687063 0.648175 0.311217 0.122125
C21   C     C_3   0.221936 0.055298 0.636135 -0.320526
C22   C     C_3   0.778067 0.555319 0.363870 -0.320517
C23   C     C_3   0.349786 0.035892 0.785327 -0.325951
C24   C     C_3   0.650219 0.535865 0.214679 -0.325956
H15   H     H_    0.414630 0.100289 0.825342 0.120536
H16   H     H_    0.585374 0.600242 0.174656 0.120539
H17   H     H_    0.128496 0.900941 0.717515 0.141005
H18   H     H_    0.871525 0.400977 0.282506 0.140995
H19   H     H_    0.236667 0.912446 0.612340 0.137803
H20   H     H_    0.763348 0.412463 0.387670 0.137798
O11   O     O_R   0.912140 0.786650 0.084610 -0.539285
O12   O     O_R   0.087860 0.286650 0.915390 -0.539286
O13   O     O_R   0.102040 0.454810 0.110430 -0.534437
O14   O     O_R   0.897960 0.954810 0.889570 -0.534437
C25   C     C_R   0.134981 0.623568 0.136937 0.720181
C26   C     C_R   0.865019 0.123568 0.863063 0.720181
O15   O     O_R   0.913690 0.457060 0.096650 -0.543201
O16   O     O_R   0.086310 0.957060 0.903350 -0.543202
O17   O     O_R   0.898200 0.284560 0.901540 -0.530977
O18   O     O_R   0.101800 0.784560 0.098460 -0.530977
C27   C     C_R   0.884952 0.625620 0.118102 0.641999
C28   C     C_R   0.115047 0.125620 0.881898 0.642003
O19   O     O_3   0.995160 0.617270 0.936040 -0.374420
O20   O     O_3   0.004840 0.117270 0.063960 -0.374420
V3    V     V_3+5 0.000900 0.343280 0.011870 1.388485
V4    V     V_3+5 0.999100 0.843280 0.988130 1.388485
H21   H     H_    0.367378 0.892649 0.764801 0.142534
H22   H     H_    0.632629 0.392621 0.235208 0.142533
H23   H     H_    0.306074 0.088488 0.931104 0.122697
H24   H     H_    0.693930 0.588415 0.068895 0.122689

loop_
_geom_bond_atom_site_label_1
_geom_bond_atom_site_label_2
_ccdc_geom_bond_type
C3    C6    S    
C2    C19   S    
C11   H5    S    
O1    C3    A    
H11   C21   S    
C2    O7    A    
C15   C17   S    
O5    C3    A    
C12   C20   S    
O16   C28   A    
C14   C18   S    
C24   H22   S    
O12   V3    S    
O14   V4    S    
C7    C26   S    
C6    C8    T    
O14   C26   A    
C8    C25   S    
C25   O18   A    
O18   V4    S    
C23   H15   S    
C4    C5    S    
C24   H16   S    
O20   V3    S    
C15   H23   S    
C13   C21   S    
C14   C22   S    
C13   H17   S    
C11   C19   S    
C16   C18   S    
C9    C11   S    
O2    C4    A    
O6    V2    S    
C10   C12   S    
O11   C27   A    
C17   C28   S    
C20   C22   S    
C19   C21   S    
O15   C27   A    
O13   C25   A    
C11   H7    S    
C12   H8    S    
O4    C2    A    
C15   H13   S    
O17   V3    S    
H9    C13   S    
C16   H24   S    
O4    V2    S    
O19   V4    S    
C14   H18   S    
C19   C23   S    
O6    C4    A    
O1    V2    S    
O2    V1    S    
C9    C17   S    
O12   C28   A    
C15   C23   S    
O15   V3    S    
C9    H1    S    
C18   C27   S    
C23   H21   S    
O3    V1    S    
C21   H19   S    
C22   H20   S    
C9    H3    S    
C26   O17   A    
H10   C14   S    
O3    C1    A    
C1    C20   S    
C20   C24   S    
C12   H6    S    
O7    V1    S    
C1    O8    A    
O8    V2    S    
C10   C18   S    
C16   C24   S    
O5    V1    S    
C5    C7    T    
H12   C22   S    
C10   H2    S    
O16   V4    S    
O11   V4    S    
C13   C17   S    
C16   H14   S    
C10   H4    S    
O9    V2    S    
O10   V1    S    
O13   V3    S    
