data_mof_unit_26653.cif
_audit_creation_date              2013-03-05T15:50:50-0500
_audit_creation_method            fapswitch 2.2
_symmetry_space_group_name_H-M    P1
_symmetry_Int_Tables_number       1
_space_group_crystal_system       triclinic
_cell_length_a                    9.676098
_cell_length_b                    10.808399
_cell_length_c                    15.620334
_cell_angle_alpha                 83.302409
_cell_angle_beta                  73.447239
_cell_angle_gamma                 90.696167
_cell_volume                      1553.4681888

loop_
_atom_site_label
_atom_site_type_symbol
_atom_site_description
_atom_site_fract_x
_atom_site_fract_y
_atom_site_fract_z
_atom_type_partial_charge
O1    O     O_R   0.118810 0.319640 0.500010 -0.591971
O2    O     O_R   0.881240 0.319660 0.500000 -0.576931
C1    C     C_R   0.000576 0.261917 0.499123 0.778029
O3    O     O_R   0.055570 0.499980 0.629840 -0.585561
O4    O     O_R   0.818000 0.500010 0.629830 -0.588804
C2    C     C_R   0.917350 0.499714 0.671710 0.773788
Cu1   Cu    Cu3+1 0.140660 0.499990 0.500010 0.941466
Cu2   Cu    Cu3+1 0.859340 0.500010 0.499990 0.933470
O5    O     O_R   0.118760 0.680340 0.500000 -0.544215
O6    O     O_R   0.881190 0.680360 0.499990 -0.598259
O7    O     O_R   0.182000 0.499990 0.370170 -0.587029
O8    O     O_R   0.944430 0.500020 0.370160 -0.590388
C3    C     C_R   0.995929 0.734317 0.512150 0.790896
C4    C     C_R   0.082177 0.497582 0.328651 0.784261
C5    C     C_R   0.869935 0.488553 0.770600 -0.093472
C6    C     C_R   0.130296 0.511346 0.230148 -0.086930
C7    C     C_R   0.887335 0.373267 0.908964 -0.220670
C8    C     C_R   0.946813 0.412836 0.817929 -0.240617
C9    C     C_R   0.738526 0.537537 0.817267 0.171043
C10   C     C_R   0.681322 0.503677 0.912234 0.062518
C11   C     C_R   0.752365 0.412618 0.955102 0.107053
C12   C     C_R   0.550450 0.549294 0.964909 0.031415
C13   C     C_R   0.477134 0.484739 0.050719 0.082626
C14   C     C_R   0.548060 0.388723 0.088315 -0.205589
C15   C     C_R   0.686301 0.358375 0.043031 -0.227921
C16   C     C_R   0.493795 0.660581 0.936585 -0.257241
C17   C     C_R   0.351704 0.689316 0.975670 0.239844
C18   C     C_R   0.266951 0.612708 0.052580 0.113607
C19   C     C_R   0.335873 0.519355 0.095988 0.050006
C20   C     C_R   0.119429 0.634055 0.092661 0.264832
C21   C     C_R   0.052729 0.581750 0.181119 -0.290707
C22   C     C_R   0.266316 0.472898 0.186337 -0.204058
H1    H     H_    0.738646 0.286637 0.075315 0.144445
H2    H     H_    0.320439 0.416062 0.226975 0.136286
H3    H     H_    0.943708 0.603752 0.213572 0.161819
H4    H     H_    0.944400 0.307391 0.942580 0.145348
H5    H     H_    0.047819 0.375406 0.782936 0.160548
H6    H     H_    0.499747 0.334359 0.152566 0.131423
H7    H     H_    0.559970 0.728785 0.884617 0.183066
H8    H     H_    0.768096 0.103355 0.543824 0.170772
C23   C     C_R   0.270166 0.117304 0.459881 -0.198415
H9    H     H_    0.284991 0.204771 0.416953 0.180060
C24   C     C_R   0.392944 0.057792 0.471611 0.181160
C25   C     C_R   0.374311 0.938842 0.522563 -0.016457
C26   C     C_R   0.237438 0.877815 0.551844 -0.154717
H10   H     H_    0.225405 0.785081 0.588441 0.203137
C27   C     C_R   0.118972 0.933189 0.530105 0.043850
C28   C     C_R   0.130329 0.060853 0.498440 0.036542
C29   C     C_R   0.001198 0.125317 0.504668 -0.088128
C30   C     C_R   0.868662 0.056934 0.531339 -0.207824
H11   H     H_    0.763928 0.875645 0.556241 0.184768
C31   C     C_R   0.865225 0.927538 0.540896 -0.218387
C32   C     C_R   0.992363 0.864692 0.532119 -0.118034
C33   C     C_R   0.712692 0.655681 0.370713 -0.133506
H12   H     H_    0.818059 0.674092 0.375214 0.217332
C34   C     C_R   0.692025 0.703499 0.290459 -0.391623
H13   H     H_    0.780948 0.753676 0.239009 0.141976
C35   C     C_R   0.559695 0.689269 0.275941 -0.000216
C36   C     C_R   0.437867 0.651998 0.351587 0.270863
C37   C     C_R   0.459504 0.577466 0.431576 0.120385
C38   C     C_R   0.607111 0.578399 0.435778 0.152983
N1    N     N_R   0.648320 0.501210 0.499140 -0.223419
C39   C     C_R   0.545222 0.415359 0.556542 0.339122
H14   H     H_    0.314479 0.359802 0.606514 0.152845
C40   C     C_R   0.396357 0.421774 0.558890 -0.067264
N2    N     N_R   0.352470 0.501290 0.499110 -0.211519
N3    N     N_2   0.039068 0.711912 0.046457 -0.405760
H15   H     H_    0.959945 0.758784 0.087832 0.233049
C41   C     C_3   0.985424 0.650818 0.984038 -0.650138
H16   H     H_    0.930402 0.718858 0.947577 0.224613
H17   H     H_    0.906608 0.573896 0.021482 0.225761
H18   H     H_    0.075602 0.613134 0.933800 0.237109
N4    N     N_2   0.534941 0.114577 0.433112 -0.445262
H19   H     H_    0.592751 0.120076 0.478546 0.257899
C42   C     C_3   0.561111 0.219461 0.362890 -0.670061
H20   H     H_    0.679172 0.240099 0.334712 0.234176
H21   H     H_    0.511195 0.303615 0.390624 0.224821
H22   H     H_    0.518128 0.196901 0.307454 0.216733
C43   C     C_2   0.500210 0.867981 0.530583 0.308600
H23   H     H_    0.604155 0.891585 0.481602 0.089588
O9    O     O_2   0.488315 0.780518 0.589630 -0.578715
N5    N     N_2   0.589038 0.315240 0.610266 -0.423869
H24   H     H_    0.677416 0.330765 0.631575 0.306107
C44   C     C_3   0.484644 0.223371 0.669989 -0.806056
H25   H     H_    0.541670 0.150993 0.701489 0.241499
H26   H     H_    0.423804 0.175831 0.631726 0.249409
H27   H     H_    0.409777 0.268302 0.724257 0.227868
C45   C     C_2   0.552513 0.733928 0.183561 0.340591
H28   H     H_    0.649284 0.772635 0.132181 0.073721
O10   O     O_2   0.441228 0.726589 0.162476 -0.590491
N6    N     N_2   0.310254 0.717261 0.351962 -0.346357
H29   H     H_    0.261497 0.691992 0.305916 0.291286
C46   C     C_3   0.328438 0.852513 0.335855 -0.667452
H30   H     H_    0.225053 0.893826 0.366104 0.225884
H31   H     H_    0.356563 0.887160 0.263064 0.229306
H32   H     H_    0.415823 0.886236 0.361071 0.234389
N7    N     N_2   0.300200 0.801702 0.941245 -0.401014
H33   H     H_    0.340322 0.823379 0.872335 0.250292
C47   C     C_3   0.313320 0.906979 0.988240 -0.615481
H34   H     H_    0.263837 0.988649 0.960686 0.210439
H35   H     H_    0.428957 0.931419 0.979219 0.214603
H36   H     H_    0.256413 0.885397 0.061235 0.248217
N8    N     N_2   0.660866 0.613464 0.767545 -0.452063
H37   H     H_    0.720341 0.677038 0.715126 0.261771
C48   C     C_3   0.532954 0.557065 0.754248 -0.558884
H38   H     H_    0.546735 0.558195 0.681496 0.261265
H39   H     H_    0.438370 0.612661 0.781305 0.221709
H40   H     H_    0.510423 0.459384 0.787769 0.207190

loop_
_geom_bond_atom_site_label_1
_geom_bond_atom_site_label_2
_geom_bond_distance
_ccdc_geom_bond_type
C24   N4    1.431350 S    
C5    C8    1.398813 A    
C39   C40   1.433149 A    
C46   H30   1.101866 S    
N4    C42   1.448146 S    
N4    H19   1.027299 S    
C9    C10   1.428785 A    
C44   H27   1.110787 S    
C42   H20   1.110360 S    
N7    H33   1.032041 S    
C1    C29   1.469029 S    
Cu1   Cu2   2.722171 S    
C26   H10   1.081931 S    
C25   C26   1.400554 A    
C6    C21   1.390809 A    
Cu1   O7    1.952207 S    
C48   H39   1.108828 S    
C16   C17   1.391344 A    
C13   C19   1.425374 A    
C18   C19   1.427233 A    
C8    H5    1.083708 S    
C44   H26   1.110212 S    
C19   C22   1.407872 A    
C20   C21   1.395054 A    
O7    C4    1.309386 A    
C16   H7    1.079421 S    
C34   H13   1.083200 S    
C23   H9    1.076093 S    
C41   H17   1.109933 S    
O5    C3    1.305033 A    
C2    C5    1.470536 S    
C9    N8    1.428363 S    
C27   C28   1.402437 A    
C30   C31   1.388065 A    
C13   C14   1.413380 A    
C7    H4    1.084026 S    
C20   N3    1.423958 S    
C27   C32   1.414386 A    
C37   N2    1.420385 A    
C36   C37   1.473867 A    
C46   H31   1.108602 S    
C23   C24   1.404915 A    
C41   H16   1.110508 S    
O3    Cu1   1.959379 S    
N7    C47   1.447131 S    
C3    C32   1.477079 S    
C26   C27   1.406606 A    
C48   H40   1.112102 S    
C33   C34   1.368523 A    
C39   N5    1.434243 S    
N3    H15   1.031685 S    
C14   C15   1.386668 A    
O3    C2    1.310548 A    
N6    H29   1.024941 S    
C43   O9    1.221106 D    
C35   C36   1.425435 A    
C7    C11   1.398063 A    
H11   C31   1.074329 S    
C37   C38   1.448290 A    
O1    C1    1.300760 A    
C22   H2    1.077437 S    
C41   H18   1.111810 S    
C5    C9    1.416575 A    
C24   C25   1.411656 A    
N1    C39   1.390653 A    
N6    C46   1.453966 S    
C14   H6    1.076790 S    
C47   H34   1.110303 S    
Cu2   O8    1.959379 S    
C10   C11   1.419362 A    
C7    C8    1.386391 A    
N8    C48   1.450614 S    
C36   N6    1.428403 S    
C44   H25   1.110835 S    
C42   H21   1.109801 S    
C28   C29   1.422623 A    
C47   H35   1.111709 S    
C45   O10   1.216699 D    
N5    H24   1.020767 S    
C46   H32   1.103957 S    
N5    C44   1.448861 S    
C21   H3    1.075106 S    
C17   C18   1.411205 A    
C31   C32   1.392657 A    
Cu1   O5    1.963324 S    
C11   C15   1.393411 A    
C33   H12   1.059800 S    
C17   N7    1.424099 S    
O1    Cu1   1.958171 S    
C25   C43   1.474309 S    
O2    Cu2   1.963323 S    
C10   C12   1.428216 A    
O6    C3    1.318737 A    
C35   C45   1.488477 S    
O4    Cu2   1.952207 S    
C33   C38   1.401414 A    
C6    C22   1.392717 A    
C48   H38   1.104412 S    
H14   C40   1.079251 S    
C18   C20   1.419598 A    
O2    C1    1.316642 A    
O8    C4    1.307677 A    
Cu1   N2    2.045399 S    
O4    C2    1.307685 A    
H8    C30   1.078533 S    
C23   C28   1.412701 A    
C34   C35   1.372375 A    
C4    C6    1.463930 S    
C40   N2    1.355933 A    
C38   N1    1.369292 A    
C42   H22   1.110973 S    
C43   H23   1.082503 S    
C47   H36   1.111211 S    
C45   H28   1.086232 S    
Cu2   O6    1.958171 S    
C29   C30   1.401854 A    
C12   C16   1.404701 A    
Cu2   N1    2.045861 S    
N8    H37   1.031707 S    
C12   C13   1.419415 A    
N3    C41   1.444398 S    
C15   H1    1.084393 S    
