data_mof_unit_49507.cif
_audit_creation_date              2012-12-10T19:08:07-0500
_audit_creation_method            fapswitch 2.2
_symmetry_space_group_name_H-M    P1
_symmetry_Int_Tables_number       1
_space_group_crystal_system       triclinic
_cell_length_a                    9.081395
_cell_length_b                    10.868031
_cell_length_c                    9.627339
_cell_angle_alpha                 89.515262
_cell_angle_beta                  90.61265
_cell_angle_gamma                 88.774034
_cell_volume                      949.880650715

loop_
_atom_site_label
_atom_site_type_symbol
_atom_type_description
_atom_site_fract_x
_atom_site_fract_y
_atom_site_fract_z
_atom_type_partial_charge
C1    C     C_R   0.505456 0.262785 0.500327 0.849094
C2    C     C_R   0.595681 0.932754 0.398250 0.342796
C3    C     C_R   0.508420 0.870051 0.495509 -0.164131
C4    C     C_R   0.419130 0.937582 0.583503 -0.075903
C5    C     C_3   0.380624 0.922462 0.733300 0.085949
C6    C     C_3   0.398480 0.063167 0.743840 0.490159
C7    C     C_R   0.625242 0.520585 0.074023 0.121044
C8    C     C_R   0.381764 0.458958 0.074823 0.463409
C9    C     C_R   0.381942 0.458914 0.925880 0.321161
C10   C     C_R   0.626712 0.516131 0.928487 0.085604
C11   C     C_3   0.733555 0.617698 0.919877 0.035993
C12   C     C_R   0.220925 0.500056 0.499527 0.838849
C13   C     C_3   0.722147 0.629238 0.077379 -0.420701
C14   C     C_R   0.504211 0.736974 0.499262 0.861468
C15   C     C_R   0.779085 0.499680 0.500442 0.840647
C16   C     C_1   0.065605 0.499706 0.499286 -0.160521
C17   C     C_1   0.934426 0.499536 0.500466 -0.187182
C18   C     C_R   0.424893 0.063163 0.589097 -0.083540
C19   C     C_R   0.511866 0.129332 0.498530 -0.163692
C20   C     C_R   0.593765 0.064297 0.396692 0.133792
Cu1   Cu    Cu3+1 0.499990 0.499980 0.640670 0.933140
Cu2   Cu    Cu3+1 0.500010 0.500020 0.359330 1.011774
H1    H     H_    0.692157 0.698743 0.858252 0.152669
H2    H     H_    0.827066 0.610062 0.134982 0.228452
H3    H     H_    0.661417 0.714056 0.108776 0.211301
H4    H     H_    0.461972 0.866447 0.795051 0.113542
N1    N     N_R   0.500920 0.500930 0.147930 -0.221642
N2    N     N_R   0.500930 0.500890 0.852020 -0.256615
O1    O     O_R   0.500000 0.319640 0.618810 -0.614876
O2    O     O_R   0.500020 0.319680 0.381230 -0.531401
O3    O     O_R   0.288380 0.499980 0.618770 -0.567178
O4    O     O_R   0.288400 0.500020 0.381190 -0.515280
O5    O     O_R   0.499980 0.680320 0.618770 -0.607088
O6    O     O_R   0.500000 0.680360 0.381190 -0.540409
O7    O     O_R   0.711600 0.499980 0.618810 -0.590475
O8    O     O_R   0.711620 0.500020 0.381230 -0.563680
N3    N     N_2   0.681157 0.131437 0.301570 -0.427274
H5    H     H_    0.791941 0.108697 0.304541 0.234738
C21   C     C_3   0.620029 0.142673 0.162501 -0.631998
H6    H     H_    0.616525 0.051382 0.111930 0.228472
H7    H     H_    0.689063 0.204684 0.099642 0.214718
H8    H     H_    0.506667 0.182725 0.165125 0.251806
O9    O     O_3   0.685274 0.862859 0.312852 -0.757174
H9    H     H_    0.748768 0.915933 0.256765 0.321358
N4    N     N_2   0.229863 0.882491 0.754382 -0.423971
H10   H     H_    0.222038 0.809819 0.822975 0.250437
C22   C     C_3   0.124563 0.881285 0.639540 -0.672966
H11   H     H_    0.011225 0.886193 0.680951 0.219205
H12   H     H_    0.140124 0.795793 0.578504 0.223210
H13   H     H_    0.135347 0.962325 0.569932 0.226170
N5    N     N_2   0.264220 0.130823 0.781009 -0.439362
H14   H     H_    0.178139 0.128643 0.710497 0.256841
C23   C     C_3   0.219464 0.125206 0.925074 -0.633246
H15   H     H_    0.193780 0.029741 0.956488 0.234576
H16   H     H_    0.119297 0.183968 0.939175 0.230402
H17   H     H_    0.307185 0.160332 0.994158 0.232987
N6    N     N_2   0.525979 0.100407 0.827303 -0.436267
H18   H     H_    0.523717 0.192243 0.853477 0.272504
C24   C     C_3   0.673571 0.056908 0.792794 -0.755477
H19   H     H_    0.748812 0.072484 0.882156 0.230163
H20   H     H_    0.715916 0.109060 0.702684 0.236143
H21   H     H_    0.677275 0.957207 0.769869 0.220868
O10   O     O_3   0.266397 0.410011 0.147399 -0.701651
H22   H     H_    0.183646 0.391169 0.084003 0.345413
O11   O     O_3   0.264321 0.408442 0.859252 -0.745766
H23   H     H_    0.306920 0.353118 0.789164 0.384770
N7    N     N_2   0.878351 0.570774 0.881515 -0.389768
H24   H     H_    0.881722 0.487965 0.829885 0.290105
C25   C     C_3   0.974466 0.660849 0.824071 -0.662977
H25   H     H_    0.086869 0.620031 0.814323 0.269842
H26   H     H_    0.979388 0.742182 0.893025 0.227970
H27   H     H_    0.933050 0.688918 0.719466 0.218668

loop_
_geom_bond_atom_site_label_1
_geom_bond_atom_site_label_2
_ccdc_geom_bond_type
C14   O6    A    
C7    C10   A    
O9    H9    S    
N3    H5    S    
Cu1   O7    S    
C6    N5    S    
C22   H13   S    
Cu2   O8    S    
C19   C20   A    
C2    O9    S    
C22   H11   S    
C4    C18   A    
C14   O5    A    
N4    C22   S    
C2    C3    A    
C9    N2    A    
C7    N1    A    
C24   H19   S    
C22   H12   S    
C5    N4    S    
C23   H15   S    
C12   O4    A    
C20   N3    S    
Cu1   O3    S    
C6    N6    S    
C13   H3    S    
N6    H18   S    
C25   H25   S    
C3    C14   S    
Cu2   O4    S    
O10   H22   S    
C6    C18   S    
C15   O7    A    
C1    O2    A    
C11   H1    S    
Cu1   N2    S    
C11   N7    S    
C18   C19   A    
C21   H8    S    
Cu2   N1    S    
C23   H16   S    
C12   O3    A    
C5    C6    S    
Cu2   O6    S    
C16   C17   T    
C9    O11   S    
C24   H20   S    
C11   C13   S    
N6    C24   S    
C10   C11   S    
C1    O1    A    
C8    O10   S    
C2    C20   A    
N5    H14   S    
C5    H4    S    
C12   C16   S    
C15   O8    A    
C7    C13   S    
C25   H27   S    
Cu1   O5    S    
C21   H7    S    
N3    C21   S    
O11   H23   S    
C23   H17   S    
C10   N2    A    
C21   H6    S    
C15   C17   S    
C8    N1    A    
C8    C9    A    
C24   H21   S    
Cu2   O2    S    
N7    C25   S    
Cu1   Cu2   S    
C1    C19   S    
Cu1   O1    S    
C3    C4    A    
N7    H24   S    
C13   H2    S    
C25   H26   S    
C4    C5    S    
N5    C23   S    
N4    H10   S    
