data_mof_unit_22226.cif
_audit_creation_date              2012-12-11T15:14:46-0500
_audit_creation_method            fapswitch 2.2
_symmetry_space_group_name_H-M    P1
_symmetry_Int_Tables_number       1
_space_group_crystal_system       triclinic
_cell_length_a                    22.199861
_cell_length_b                    7.230094
_cell_length_c                    19.367544
_cell_angle_alpha                 90.002114
_cell_angle_beta                  99.06225
_cell_angle_gamma                 90.000979
_cell_volume                      3069.82544029

loop_
_atom_site_label
_atom_site_type_symbol
_atom_type_description
_atom_site_fract_x
_atom_site_fract_y
_atom_site_fract_z
_atom_type_partial_charge
O1    O     O_R   0.448470 0.506130 0.415700 -0.533161
O2    O     O_R   0.551530 0.006130 0.584300 -0.533157
O3    O     O_R   0.436320 0.174490 0.555800 -0.530825
O4    O     O_R   0.563680 0.674490 0.444200 -0.530828
C1    C     C_R   0.421914 0.344173 0.576056 0.701603
C2    C     C_R   0.578084 0.844171 0.423942 0.701598
O5    O     O_R   0.441350 0.176340 0.414480 -0.534290
O6    O     O_R   0.558650 0.676340 0.585520 -0.534289
O7    O     O_R   0.556600 0.007100 0.441970 -0.533866
O8    O     O_R   0.443400 0.507100 0.558030 -0.533872
C3    C     C_R   0.426818 0.344734 0.389397 0.670435
C4    C     C_R   0.573182 0.844743 0.610602 0.670440
O9    O     O_3   0.537810 0.339550 0.509190 -0.371946
O10   O     O_3   0.462190 0.839550 0.490810 -0.371950
V1    V     V_3+5 0.492990 0.064280 0.498300 1.436253
V2    V     V_3+5 0.507010 0.564280 0.501700 1.436235
C5    C     C_R   0.870236 0.013186 0.696990 0.345840
C6    C     C_R   0.129795 0.513556 0.302990 0.345823
H1    H     H_    0.955345 0.046145 0.767178 0.102139
H2    H     H_    0.044687 0.546521 0.232802 0.102154
C7    C     C_R   0.885856 0.944706 0.821465 -0.073183
C8    C     C_R   0.114146 0.444754 0.178536 -0.073202
C9    C     C_R   0.591665 0.814145 0.738485 -0.156207
C10   C     C_R   0.408321 0.313901 0.261520 -0.156200
C11   C     C_R   0.628928 0.811579 0.803125 -0.123980
C12   C     C_R   0.371053 0.311241 0.196884 -0.123976
C13   C     C_R   0.691369 0.843359 0.808436 -0.139523
C14   C     C_R   0.308617 0.343110 0.191571 -0.139519
C15   C     C_R   0.718849 0.878422 0.748410 0.095919
C16   C     C_R   0.281149 0.378364 0.251590 0.095916
C17   C     C_R   0.680034 0.883890 0.682320 0.025199
C18   C     C_R   0.319970 0.383937 0.317676 0.025206
C19   C     C_R   0.783121 0.911655 0.752471 0.000547
C20   C     C_R   0.216882 0.411688 0.247528 0.000544
C21   C     C_R   0.807375 0.959712 0.690374 0.039306
C22   C     C_R   0.192643 0.459951 0.309614 0.039330
C23   C     C_R   0.768205 0.952720 0.624062 0.115287
C24   C     C_R   0.231814 0.453033 0.375925 0.115297
C25   C     C_R   0.705517 0.918746 0.622039 -0.201274
C26   C     C_R   0.294498 0.418973 0.377951 -0.201291
C27   C     C_R   0.824132 0.899306 0.816890 -0.209404
C28   C     C_R   0.175863 0.399238 0.183117 -0.209406
C29   C     C_R   0.907939 0.004404 0.762261 -0.229297
C30   C     C_R   0.092083 0.504674 0.237726 -0.229287
C31   C     C_R   0.616016 0.850802 0.677679 -0.068677
C32   C     C_R   0.383983 0.350756 0.322320 -0.068691
H3    H     H_    0.809690 0.856550 0.864942 0.105762
H4    H     H_    0.190292 0.356323 0.135076 0.105786
H5    H     H_    0.543307 0.787540 0.735842 0.106722
H6    H     H_    0.456675 0.287210 0.264166 0.106727
H7    H     H_    0.716464 0.841782 0.860694 0.108432
H8    H     H_    0.283517 0.341447 0.139316 0.108436
H9    H     H_    0.609195 0.784671 0.849820 0.121536
H10   H     H_    0.390778 0.284181 0.150194 0.121540
H11   H     H_    0.675428 0.920000 0.572575 0.126730
H12   H     H_    0.324589 0.420297 0.427413 0.126756
C33   C     C_3   0.753398 0.737234 0.279475 0.419316
C34   C     C_3   0.246583 0.237264 0.720495 0.419302
C35   C     C_3   0.803946 0.885318 0.285608 -0.256178
C36   C     C_3   0.196048 0.385377 0.714385 -0.256032
H13   H     H_    0.849959 0.871889 0.317301 0.138794
H14   H     H_    0.150033 0.371988 0.682690 0.138795
H15   H     H_    0.761013 0.150892 0.333085 0.160139
H16   H     H_    0.239001 0.650966 0.666946 0.160129
C37   C     C_1   0.874662 0.940145 0.120284 -0.177106
C38   C     C_1   0.125337 0.440137 0.879715 -0.177099
C39   C     C_1   0.622419 0.853483 0.376366 -0.181593
C40   C     C_1   0.377575 0.353493 0.623626 -0.181593
C41   C     C_3   0.739813 0.758909 0.199306 -0.244222
C42   C     C_3   0.260171 0.258873 0.800667 -0.244377
C43   C     C_3   0.789654 0.910837 0.205218 0.094043
C44   C     C_3   0.210342 0.410827 0.794778 0.094050
C45   C     C_3   0.691133 0.908770 0.208695 -0.250156
C46   C     C_3   0.308863 0.408718 0.791300 -0.249996
C47   C     C_3   0.705462 0.883203 0.289062 0.092187
C48   C     C_3   0.294530 0.383218 0.710928 0.092205
C49   C     C_3   0.741723 0.056877 0.214817 0.425416
C50   C     C_3   0.258284 0.556852 0.785200 0.425406
C51   C     C_3   0.755296 0.035147 0.294958 -0.256451
C52   C     C_3   0.244709 0.535190 0.705055 -0.256629
C53   C     C_1   0.836223 0.928336 0.158384 0.015016
C54   C     C_1   0.163775 0.428324 0.841615 0.015023
C55   C     C_1   0.659550 0.865287 0.336657 0.016255
C56   C     C_1   0.340442 0.365303 0.663333 0.016262
H17   H     H_    0.645072 0.922247 0.177120 0.134251
H18   H     H_    0.354924 0.422155 0.822875 0.134258
H19   H     H_    0.734063 0.643312 0.161122 0.157165
H20   H     H_    0.265912 0.143248 0.838836 0.157168
O11   O     O_R   0.056650 0.288730 0.942060 -0.534504
O12   O     O_R   0.943350 0.788730 0.057940 -0.534503
O13   O     O_R   0.058660 0.616870 0.085540 -0.536211
O14   O     O_R   0.941340 0.116870 0.914460 -0.536207
C57   C     C_R   0.072905 0.448896 0.110801 0.700008
C58   C     C_R   0.927095 0.948887 0.889200 0.700008
O15   O     O_R   0.063700 0.618520 0.944220 -0.531950
O16   O     O_R   0.936300 0.118520 0.055780 -0.531951
O17   O     O_R   0.948460 0.787610 0.915680 -0.534157
O18   O     O_R   0.051540 0.287610 0.084320 -0.534157
C59   C     C_R   0.079001 0.450021 0.924832 0.708572
C60   C     C_R   0.920999 0.950023 0.075168 0.708560
O19   O     O_3   0.962230 0.453430 0.990860 -0.373767
O20   O     O_3   0.037770 0.953430 0.009140 -0.373769
V3    V     V_3+5 0.007010 0.728750 0.001700 1.436343
V4    V     V_3+5 0.992990 0.228750 0.998300 1.436341
O21   O     O_3   0.758833 0.567551 0.314492 -0.645727
H21   H     H_    0.792700 0.502182 0.297064 0.291725
O22   O     O_3   0.241133 0.067615 0.685450 -0.645738
H22   H     H_    0.207297 0.002180 0.702914 0.291674
O23   O     O_3   0.736292 0.226685 0.179893 -0.646622
H23   H     H_    0.702629 0.292348 0.197621 0.289874
O24   O     O_3   0.263728 0.726627 0.820153 -0.646629
H24   H     H_    0.297338 0.792403 0.802362 0.289845
C61   C     C_3   0.793439 0.975431 0.555388 -0.282389
C62   C     C_3   0.750899 0.926029 0.488056 -0.793547
H25   H     H_    0.732385 0.784026 0.491158 0.240938
H26   H     H_    0.713339 0.028572 0.477481 0.226093
H27   H     H_    0.776955 0.930201 0.443651 0.238111
H28   H     H_    0.807625 0.121513 0.550300 0.225987
H29   H     H_    0.833597 0.882829 0.556907 0.219298
C63   C     C_3   0.206587 0.475906 0.444597 -0.282371
C64   C     C_3   0.249114 0.426455 0.511932 -0.793524
H30   H     H_    0.267593 0.284409 0.508832 0.240939
H31   H     H_    0.286699 0.528919 0.522509 0.226099
H32   H     H_    0.223057 0.430712 0.556334 0.238090
H33   H     H_    0.192443 0.622033 0.449670 0.225988
H34   H     H_    0.166401 0.383416 0.443086 0.219283
O25   O     O_3   0.894161 0.082300 0.640541 -0.670112
H35   H     H_    0.937979 0.112418 0.654463 0.289109
O26   O     O_3   0.105897 0.582920 0.359419 -0.670101
H36   H     H_    0.062086 0.613125 0.345491 0.289106

loop_
_geom_bond_atom_site_label_1
_geom_bond_atom_site_label_2
_ccdc_geom_bond_type
C33   O21   S    
C39   C55   T    
C9    C31   A    
C13   C15   A    
H16   C52   S    
O24   H24   S    
O1    C3    A    
C42   H20   S    
C3    C32   S    
C48   C56   S    
C2    O7    A    
C62   H25   S    
C34   C48   S    
H15   C51   S    
O5    C3    A    
C46   C48   S    
O11   C59   A    
C21   C23   A    
C11   H9    S    
C61   C62   S    
O15   C59   A    
C9    H5    S    
C23   C61   S    
C7    C58   S    
C36   C44   S    
C34   C36   S    
C15   C19   A    
C36   H14   S    
C34   O22   S    
C41   C43   S    
C64   H32   S    
C44   C50   S    
C19   C21   A    
C61   H29   S    
C25   H11   S    
H1    C29   S    
C26   H12   S    
C20   C28   A    
C42   C46   S    
O22   H22   S    
C41   C45   S    
C50   O24   S    
C16   C18   A    
O13   V3    S    
C20   C22   A    
C41   H19   S    
C24   C63   S    
O5    V1    S    
O2    C4    A    
O6    V2    S    
C7    C29   A    
C45   C47   S    
C1    C40   S    
C12   H10   S    
O12   C60   A    
H2    C30   S    
O15   V3    S    
C49   C51   S    
C10   H6    S    
C8    C30   A    
C35   H13   S    
C16   C20   A    
C40   C56   T    
O4    C2    A    
C35   C51   S    
C63   H33   S    
C34   C42   S    
C58   O17   A    
C38   C59   S    
O4    V2    S    
C5    C29   A    
C6    C30   A    
O13   C57   A    
C37   C53   T    
O6    C4    A    
O14   C58   A    
C27   H3    S    
C50   C52   S    
O1    V2    S    
C28   H4    S    
C46   H18   S    
C49   O23   S    
O2    V1    S    
C45   H17   S    
C64   H30   S    
O17   V3    S    
C7    C27   A    
C2    C39   S    
O19   V4    S    
O16   V4    S    
O11   V4    S    
C17   C31   A    
C8    C57   S    
O25   H35   S    
C43   C49   S    
C18   C26   A    
O3    V1    S    
C63   C64   S    
O26   H36   S    
C36   C52   S    
C18   C32   A    
C5    O25   S    
C48   C52   S    
C37   C60   S    
C10   C12   A    
C4    C31   S    
O3    C1    A    
C62   H26   S    
C11   C13   A    
O21   H21   S    
C12   C14   A    
C19   C27   A    
C33   C47   S    
C14   C16   A    
O7    V1    S    
C10   C32   A    
C1    O8    A    
C23   C25   A    
O8    V2    S    
O23   H23   S    
C24   C26   A    
C14   H8    S    
C47   C55   S    
C8    C28   A    
C6    C22   A    
O18   V4    S    
O16   C60   A    
C22   C24   A    
C13   H7    S    
C17   C25   A    
C63   H34   S    
C9    C11   A    
O20   V3    S    
O12   V3    S    
C64   H31   S    
C62   H27   S    
C33   C35   S    
O14   V4    S    
C61   H28   S    
C15   C17   A    
C46   C50   S    
O9    V2    S    
C45   C49   S    
O10   V1    S    
C6    O26   S    
C42   C44   S    
C5    C21   A    
C33   C41   S    
C47   C51   S    
C57   O18   A    
C44   C54   S    
C38   C54   T    
C35   C43   S    
C43   C53   S    
