data_mof_unit_64613.cif
_audit_creation_date              2013-03-05T16:04:01-0500
_audit_creation_method            fapswitch 2.2
_symmetry_space_group_name_H-M    P1
_symmetry_Int_Tables_number       1
_space_group_crystal_system       triclinic
_cell_length_a                    30.43852
_cell_length_b                    30.291364
_cell_length_c                    24.828966
_cell_angle_alpha                 89.877503
_cell_angle_beta                  128.675548
_cell_angle_gamma                 89.986431
_cell_volume                      17872.352708

loop_
_atom_site_label
_atom_site_type_symbol
_atom_site_description
_atom_site_fract_x
_atom_site_fract_y
_atom_site_fract_z
_atom_type_partial_charge
O1    O     O_R   0.822450 0.770150 0.500010 -0.612350
O2    O     O_R   0.177550 0.770150 0.499990 -0.601944
O3    O     O_R   0.322450 0.270150 0.500010 -0.612353
O4    O     O_R   0.677550 0.270150 0.499990 -0.602029
O5    O     O_R   0.770150 0.822430 0.500030 -0.644442
O6    O     O_R   0.229850 0.822430 0.499970 -0.642707
O7    O     O_R   0.270150 0.322430 0.500030 -0.644440
O8    O     O_R   0.729850 0.322430 0.499970 -0.642739
C1    C     C_R   0.810526 0.810754 0.499973 0.882608
C2    C     C_R   0.189894 0.810735 0.500845 0.883868
C3    C     C_R   0.310526 0.310754 0.499973 0.882607
C4    C     C_R   0.689883 0.310736 0.500824 0.883967
O9    O     O_R   0.725220 0.723850 0.398140 -0.573089
O10   O     O_R   0.274780 0.723850 0.601860 -0.623745
O11   O     O_R   0.225220 0.223850 0.398140 -0.573089
O12   O     O_R   0.774780 0.223850 0.601860 -0.623791
O13   O     O_R   0.672910 0.776140 0.398150 -0.637578
O14   O     O_R   0.327090 0.776140 0.601850 -0.574565
O15   O     O_R   0.172910 0.276140 0.398150 -0.637577
O16   O     O_R   0.827090 0.276140 0.601850 -0.574578
C5    C     C_R   0.682694 0.750487 0.365128 0.936030
C6    C     C_R   0.317318 0.750270 0.634627 0.930220
C7    C     C_R   0.182694 0.250487 0.365128 0.936031
C8    C     C_R   0.817318 0.250271 0.634627 0.930365
Zn1   Zn    Zn3+2 0.784920 0.715080 0.500000 1.080893
Zn2   Zn    Zn3+2 0.215080 0.715080 0.500000 1.079742
Zn3   Zn    Zn3+2 0.284920 0.215080 0.500000 1.080888
Zn4   Zn    Zn3+2 0.715080 0.215080 0.500000 1.079645
Zn5   Zn    Zn3+2 0.715070 0.784900 0.500020 0.973195
Zn6   Zn    Zn3+2 0.284930 0.784900 0.499980 0.999584
Zn7   Zn    Zn3+2 0.215070 0.284900 0.500020 0.973199
Zn8   Zn    Zn3+2 0.784930 0.284900 0.499980 0.999557
O17   O     O_R   0.729840 0.677550 0.499990 -0.606852
O18   O     O_R   0.270160 0.677550 0.500010 -0.599945
O19   O     O_R   0.229840 0.177550 0.499990 -0.606853
O20   O     O_R   0.770160 0.177550 0.500010 -0.599973
O21   O     O_R   0.677530 0.729830 0.500000 -0.634141
O22   O     O_R   0.322470 0.729830 0.500000 -0.637889
O23   O     O_R   0.177530 0.229830 0.500000 -0.634141
O24   O     O_R   0.822470 0.229830 0.500000 -0.637887
O25   O     O_R   0.827070 0.723850 0.601870 -0.553812
O26   O     O_R   0.172930 0.723850 0.398130 -0.548675
O27   O     O_R   0.327070 0.223850 0.601870 -0.553813
O28   O     O_R   0.672930 0.223850 0.398130 -0.548689
O29   O     O_R   0.774770 0.776130 0.601880 -0.637267
O30   O     O_R   0.225230 0.776130 0.398120 -0.638229
O31   O     O_R   0.274770 0.276130 0.601880 -0.637268
O32   O     O_R   0.725230 0.276130 0.398120 -0.638232
C9    C     C_R   0.688419 0.689238 0.498025 0.863041
C10   C     C_R   0.311922 0.689267 0.502601 0.838611
C11   C     C_R   0.188419 0.189238 0.498025 0.863040
C12   C     C_R   0.811922 0.189267 0.502601 0.838646
C13   C     C_R   0.818408 0.750700 0.634524 0.986846
C14   C     C_R   0.181973 0.750453 0.365505 0.980048
C15   C     C_R   0.318408 0.250700 0.634524 0.986844
C16   C     C_R   0.681972 0.250454 0.365505 0.980075
C17   C     C_R   0.599485 0.781837 0.254882 -0.328640
C18   C     C_R   0.331932 0.739432 0.743393 -0.290184
C19   C     C_R   0.099483 0.281835 0.254882 -0.328638
C20   C     C_R   0.831935 0.239425 0.743394 -0.289913
H1    H     H_    0.593547 0.803746 0.284286 0.226451
H2    H     H_    0.288418 0.729098 0.713113 0.237261
H3    H     H_    0.093543 0.303743 0.284286 0.226453
H4    H     H_    0.788423 0.229085 0.713114 0.237196
C21   C     C_R   0.560591 0.783366 0.183050 0.300884
C22   C     C_R   0.364425 0.741858 0.814990 0.291349
C23   C     C_R   0.060589 0.283363 0.183051 0.300884
C24   C     C_R   0.864427 0.241850 0.814991 0.291385
C25   C     C_R   0.567037 0.754256 0.144107 -0.240496
C26   C     C_R   0.420748 0.756433 0.854386 -0.247505
C27   C     C_R   0.067037 0.254255 0.144108 -0.240494
C28   C     C_R   0.920747 0.256434 0.854386 -0.247536
C29   C     C_R   0.612543 0.724154 0.177522 0.187498
C30   C     C_R   0.443549 0.769071 0.821514 0.186958
C31   C     C_R   0.112544 0.224155 0.177523 0.187500
C32   C     C_R   0.943544 0.269080 0.821514 0.186964
C33   C     C_R   0.651967 0.723662 0.250005 0.434890
C34   C     C_R   0.410184 0.766181 0.749371 0.441827
C35   C     C_R   0.151968 0.223663 0.250005 0.434890
C36   C     C_R   0.910180 0.266191 0.749371 0.441749
C37   C     C_R   0.644449 0.751791 0.288998 -0.254604
C38   C     C_R   0.353945 0.751882 0.710234 -0.272886
C39   C     C_R   0.144449 0.251791 0.288998 -0.254607
C40   C     C_R   0.853944 0.251883 0.710235 -0.272873
N1    N     N_R   0.499179 0.718317 0.032815 -0.099550
N2    N     N_R   0.464475 0.718906 0.964270 -0.104040
N3    N     N_R   0.999183 0.218315 0.032815 -0.099548
N4    N     N_R   0.964479 0.218905 0.964270 -0.104051
C41   C     C_R   0.456572 0.756610 0.929673 0.454329
C42   C     C_R   0.526985 0.755425 0.068783 0.452214
C43   C     C_R   0.956571 0.256610 0.929673 0.454327
C44   C     C_R   0.026984 0.255424 0.068783 0.452206
N5    N     N_R   0.484089 0.793812 0.965633 -0.096178
N6    N     N_R   0.518761 0.793236 0.034210 -0.100919
N7    N     N_R   0.984083 0.293813 0.965634 -0.096165
N8    N     N_R   0.018755 0.293237 0.034211 -0.100916
C45   C     C_3   0.842931 0.838143 0.435571 0.401176
C46   C     C_3   0.152162 0.835123 0.560700 0.408797
C47   C     C_3   0.342931 0.338142 0.435572 0.401177
C48   C     C_3   0.652292 0.335189 0.560809 0.408673
H5    H     H_    0.868562 0.807959 0.447488 0.121357
H6    H     H_    0.124419 0.805661 0.543281 0.132255
H7    H     H_    0.368563 0.307959 0.447489 0.121353
H8    H     H_    0.624595 0.305710 0.543526 0.132219
C49   C     C_3   0.875353 0.875616 0.432245 -0.439213
C50   C     C_3   0.119473 0.872409 0.563994 -0.449047
C51   C     C_3   0.375354 0.375615 0.432245 -0.439213
C52   C     C_3   0.619616 0.372482 0.564112 -0.448875
H9    H     H_    0.906784 0.861288 0.427981 0.139278
H10   H     H_    0.084982 0.858030 0.562391 0.139747
H11   H     H_    0.406785 0.361288 0.427982 0.139271
H12   H     H_    0.585205 0.358104 0.562671 0.139846
H13   H     H_    0.846731 0.896407 0.385600 0.208105
H14   H     H_    0.147043 0.890774 0.613338 0.210514
H15   H     H_    0.346732 0.396406 0.385600 0.208106
H16   H     H_    0.647225 0.390909 0.613389 0.210502
H17   H     H_    0.780665 0.898837 0.461123 0.180490
H18   H     H_    0.223389 0.896508 0.550370 0.177666
H19   H     H_    0.280665 0.398837 0.461122 0.180494
H20   H     H_    0.723292 0.396570 0.550089 0.177722
H21   H     H_    0.833507 0.948232 0.453599 0.173433
H22   H     H_    0.169982 0.945347 0.557908 0.177103
H23   H     H_    0.333506 0.448231 0.453598 0.173439
H24   H     H_    0.669896 0.445427 0.557614 0.176978
C53   C     C_3   0.825960 0.892281 0.502510 -0.378682
C54   C     C_3   0.178327 0.892193 0.505959 -0.377324
C55   C     C_3   0.325960 0.392281 0.502509 -0.378679
C56   C     C_3   0.678221 0.392199 0.505746 -0.377372
C57   C     C_3   0.906472 0.839434 0.564982 -0.449615
C58   C     C_3   0.095439 0.842574 0.432512 -0.453697
C59   C     C_3   0.406471 0.339435 0.564983 -0.449621
C60   C     C_3   0.595385 0.342496 0.432573 -0.453476
C61   C     C_3   0.844273 0.844740 0.499314 0.024250
C62   C     C_3   0.156191 0.844686 0.501637 0.012674
C63   C     C_3   0.344273 0.344740 0.499314 0.024251
C64   C     C_3   0.656180 0.344686 0.501616 0.012631
H25   H     H_    0.910222 0.844292 0.612160 0.212412
H26   H     H_    0.095404 0.849235 0.388346 0.212654
H27   H     H_    0.410221 0.344292 0.612161 0.212411
H28   H     H_    0.595253 0.349123 0.388326 0.212770
H29   H     H_    0.922466 0.805666 0.568333 0.226071
H30   H     H_    0.076989 0.809173 0.424316 0.227487
H31   H     H_    0.422466 0.305666 0.568333 0.226063
H32   H     H_    0.576999 0.309082 0.424496 0.227430
C65   C     C_3   0.905923 0.903990 0.498879 0.091905
C66   C     C_3   0.094269 0.904000 0.501432 0.090462
C67   C     C_3   0.405923 0.403990 0.498879 0.091913
C68   C     C_3   0.594264 0.403997 0.501431 0.090481
C69   C     C_3   0.861360 0.927039 0.500187 -0.420159
C70   C     C_3   0.142924 0.926862 0.508430 -0.420314
C71   C     C_3   0.361359 0.427039 0.500187 -0.420152
C72   C     C_3   0.642814 0.426870 0.508207 -0.420307
C73   C     C_3   0.943181 0.873411 0.563364 -0.406658
C74   C     C_3   0.058503 0.876794 0.433188 -0.401206
C75   C     C_3   0.443181 0.373412 0.563365 -0.406662
C76   C     C_3   0.558451 0.376704 0.433277 -0.401438
H33   H     H_    0.974786 0.856020 0.562166 0.171342
H34   H     H_    0.023637 0.859762 0.428035 0.173344
H35   H     H_    0.474787 0.356020 0.562167 0.171327
H36   H     H_    0.523673 0.359654 0.428297 0.173228
H37   H     H_    0.966584 0.893045 0.611767 0.215418
H38   H     H_    0.039281 0.898849 0.387589 0.214352
H39   H     H_    0.466583 0.393046 0.611767 0.215418
H40   H     H_    0.539110 0.398701 0.387594 0.214410
H41   H     H_    0.832370 0.896211 0.551586 0.189784
H42   H     H_    0.175222 0.898575 0.459481 0.196807
H43   H     H_    0.332369 0.396212 0.551586 0.189786
H44   H     H_    0.675033 0.398524 0.459199 0.196734
H45   H     H_    0.882133 0.948888 0.546120 0.178983
H46   H     H_    0.125995 0.951204 0.465897 0.176137
H47   H     H_    0.382132 0.448888 0.546119 0.178983
H48   H     H_    0.625780 0.451151 0.465574 0.176263
C77   C     C_R   0.837470 0.763384 0.745290 -0.254268
C78   C     C_R   0.166768 0.758064 0.256389 -0.272438
C79   C     C_R   0.337467 0.263383 0.745289 -0.254264
C80   C     C_R   0.666763 0.258068 0.256388 -0.272350
H49   H     H_    0.793883 0.773087 0.717063 0.197748
H50   H     H_    0.210693 0.766973 0.285801 0.183925
H51   H     H_    0.293879 0.273087 0.717060 0.197748
H52   H     H_    0.710688 0.266975 0.285798 0.183932
C81   C     C_R   0.872476 0.762404 0.817172 0.564586
C82   C     C_R   0.133741 0.754199 0.184823 0.555680
C83   C     C_R   0.372471 0.262403 0.817170 0.564585
C84   C     C_R   0.633735 0.254204 0.184822 0.555663
C85   C     C_R   0.928444 0.747502 0.854594 -0.092076
C86   C     C_R   0.076098 0.743767 0.145842 -0.089000
C87   C     C_R   0.428439 0.247501 0.854594 -0.092073
C88   C     C_R   0.576092 0.243774 0.145842 -0.088998
C89   C     C_R   0.948965 0.735937 0.819331 -0.269861
C90   C     C_R   0.053674 0.735232 0.179929 -0.271454
C91   C     C_R   0.448961 0.235936 0.819332 -0.269861
C92   C     C_R   0.553668 0.235240 0.179930 -0.271457
H53   H     H_    0.992322 0.725544 0.847741 0.214773
H54   H     H_    0.009545 0.727193 0.150755 0.216236
H55   H     H_    0.492318 0.225542 0.847744 0.214773
H56   H     H_    0.509539 0.227204 0.150757 0.216237
C93   C     C_R   0.914697 0.738413 0.747596 0.316310
C94   C     C_R   0.086764 0.738440 0.251433 0.322593
C95   C     C_R   0.414695 0.238411 0.747598 0.316310
C96   C     C_R   0.586760 0.238448 0.251435 0.322557
C97   C     C_R   0.857814 0.751285 0.710035 -0.219821
C98   C     C_R   0.144136 0.749687 0.290104 -0.202417
C99   C     C_R   0.357813 0.251284 0.710035 -0.219818
C100  C     C_R   0.644133 0.249691 0.290105 -0.202423
N9    N     N_R   0.023236 0.746052 0.965875 -0.167464
N10   N     N_R   0.981432 0.741741 0.034107 -0.163242
N11   N     N_R   0.523230 0.246049 0.965876 -0.167464
N12   N     N_R   0.481425 0.241748 0.034107 -0.163245
N13   N     N_R   0.058149 0.745025 0.034359 -0.099149
N14   N     N_R   0.946500 0.742736 0.965642 -0.082200
N15   N     N_R   0.558143 0.245024 0.034359 -0.099152
N16   N     N_R   0.446493 0.242742 0.965641 -0.082203
C101  C     C_R   0.037960 0.743108 0.069880 0.334972
C102  C     C_R   0.966737 0.745267 0.930246 0.330101
C103  C     C_R   0.537953 0.243113 0.069880 0.334977
C104  C     C_R   0.466731 0.245267 0.930246 0.330102
C105  C     C_3   0.662188 0.609501 0.476347 -0.330205
C106  C     C_3   0.348061 0.612510 0.538789 -0.346019
C107  C     C_3   0.162189 0.109501 0.476349 -0.330200
C108  C     C_3   0.848035 0.112501 0.538754 -0.346000
H57   H     H_    0.706915 0.598939 0.509454 0.234279
H58   H     H_    0.305568 0.599875 0.516478 0.234035
H59   H     H_    0.206916 0.098939 0.509456 0.234280
H60   H     H_    0.805535 0.099869 0.516414 0.234038
H61   H     H_    0.648136 0.612010 0.422897 0.172709
H62   H     H_    0.369055 0.620120 0.593853 0.155316
H63   H     H_    0.148138 0.112009 0.422899 0.172710
H64   H     H_    0.869013 0.120098 0.593818 0.155330
C109  C     C_3   0.627097 0.574245 0.478407 -0.408984
C110  C     C_3   0.381365 0.576420 0.534945 -0.400067
C111  C     C_3   0.127098 0.074245 0.478409 -0.408994
C112  C     C_3   0.881344 0.076413 0.534915 -0.400090
H65   H     H_    0.597349 0.558985 0.426468 0.183689
H66   H     H_    0.416324 0.564889 0.588122 0.185923
H67   H     H_    0.097351 0.058984 0.426471 0.183689
H68   H     H_    0.916292 0.064873 0.588092 0.185914
H69   H     H_    0.655250 0.547554 0.515183 0.177787
H70   H     H_    0.353621 0.547542 0.505915 0.176029
H71   H     H_    0.155252 0.047555 0.515187 0.177791
H72   H     H_    0.853599 0.047539 0.505866 0.176022
H73   H     H_    0.666057 0.589225 0.611360 0.226397
H74   H     H_    0.327386 0.579443 0.394603 0.217141
H75   H     H_    0.166056 0.089227 0.611361 0.226398
H76   H     H_    0.827398 0.079466 0.394585 0.217160
C113  C     C_3   0.671460 0.652432 0.572344 0.159970
C114  C     C_3   0.319655 0.645273 0.425219 0.162493
C115  C     C_3   0.171459 0.152433 0.572343 0.159969
C116  C     C_3   0.819675 0.145292 0.425222 0.162495
C117  C     C_3   0.591446 0.667574 0.446928 -0.457682
C118  C     C_3   0.406764 0.671349 0.540215 -0.452230
C119  C     C_3   0.091446 0.167574 0.446927 -0.457682
C120  C     C_3   0.906772 0.171341 0.540250 -0.452286
C121  C     C_3   0.654829 0.655094 0.498912 0.035906
C122  C     C_3   0.345267 0.655031 0.501398 0.053255
C123  C     C_3   0.154828 0.155094 0.498912 0.035904
C124  C     C_3   0.845268 0.155031 0.501398 0.053261
H77   H     H_    0.583446 0.700418 0.459342 0.197673
H78   H     H_    0.407689 0.701984 0.516095 0.197641
H79   H     H_    0.083445 0.200418 0.459340 0.197672
H80   H     H_    0.907716 0.201984 0.516160 0.197643
H81   H     H_    0.577983 0.669741 0.393728 0.190158
H82   H     H_    0.426326 0.679272 0.594679 0.172334
H83   H     H_    0.077984 0.169740 0.393727 0.190158
H84   H     H_    0.926321 0.179247 0.594714 0.172327
C125  C     C_3   0.594548 0.595414 0.500765 0.106837
C126  C     C_3   0.404564 0.594709 0.498869 0.114053
C127  C     C_3   0.094547 0.095414 0.500765 0.106844
C128  C     C_3   0.904567 0.094710 0.498869 0.114054
C129  C     C_3   0.637528 0.615529 0.574010 -0.414494
C130  C     C_3   0.354149 0.608666 0.423918 -0.420224
C131  C     C_3   0.137527 0.115530 0.574009 -0.414492
C132  C     C_3   0.854167 0.108684 0.423919 -0.420225
C133  C     C_3   0.555984 0.632799 0.449379 -0.402518
C134  C     C_3   0.441671 0.635648 0.538521 -0.410823
C135  C     C_3   0.055984 0.132799 0.449378 -0.402515
C136  C     C_3   0.941679 0.135642 0.538551 -0.410798
H85   H     H_    0.524145 0.619337 0.396573 0.205338
H86   H     H_    0.478148 0.626570 0.592390 0.199698
H87   H     H_    0.024146 0.119336 0.396572 0.205340
H88   H     H_    0.978147 0.126553 0.592418 0.199708
H89   H     H_    0.532782 0.648547 0.465488 0.157325
H90   H     H_    0.458776 0.648939 0.513122 0.156291
H91   H     H_    0.032780 0.148547 0.465485 0.157324
H92   H     H_    0.958797 0.148941 0.513171 0.156290
H93   H     H_    0.659149 0.684279 0.582140 0.114399
H94   H     H_    0.323860 0.675842 0.403623 0.095378
H95   H     H_    0.159148 0.184280 0.582138 0.114398
H96   H     H_    0.823901 0.175865 0.403654 0.095412
H97   H     H_    0.614914 0.629438 0.592108 0.151165
H98   H     H_    0.369922 0.621229 0.396618 0.154990
H99   H     H_    0.114912 0.129439 0.592106 0.151160
H100  H     H_    0.869956 0.121249 0.396640 0.154973
O33   O     O_R   0.075080 0.953700 0.557570 -0.622675
O34   O     O_R   0.924920 0.953700 0.442430 -0.625532
O35   O     O_R   0.575080 0.453700 0.557570 -0.622677
O36   O     O_R   0.424920 0.453700 0.442430 -0.625537
O37   O     O_R   0.017620 0.953670 0.442560 -0.627800
O38   O     O_R   0.982380 0.953670 0.557440 -0.627000
O39   O     O_R   0.517620 0.453670 0.442560 -0.627787
O40   O     O_R   0.482380 0.453670 0.557440 -0.627005
C137  C     C_R   0.059646 0.937971 0.500451 0.859308
C138  C     C_R   0.940469 0.937916 0.499645 0.856668
C139  C     C_R   0.559642 0.437967 0.500452 0.859292
C140  C     C_R   0.440469 0.437916 0.499645 0.856644
Zn9   Zn    Zn3+2 0.538360 0.500010 0.576800 0.970636
Zn10  Zn    Zn3+2 0.461640 0.500010 0.423200 0.962946
Zn11  Zn    Zn3+2 0.038360 0.000010 0.576800 0.970626
Zn12  Zn    Zn3+2 0.961640 0.000010 0.423200 0.962950
O41   O     O_R   0.482370 0.546310 0.557450 -0.626235
O42   O     O_R   0.517630 0.546310 0.442550 -0.625991
O43   O     O_R   0.982370 0.046310 0.557450 -0.626236
O44   O     O_R   0.017630 0.046310 0.442550 -0.625994
O45   O     O_R   0.424900 0.546280 0.442440 -0.625807
O46   O     O_R   0.575100 0.546280 0.557560 -0.622550
O47   O     O_R   0.924900 0.046280 0.442440 -0.625806
O48   O     O_R   0.075100 0.046280 0.557560 -0.622556
C141  C     C_R   0.438926 0.560710 0.499422 0.849544
C142  C     C_R   0.560269 0.561416 0.500396 0.852115
C143  C     C_R   0.938927 0.060712 0.499422 0.849544
C144  C     C_R   0.060268 0.061416 0.500396 0.852099
O49   O     O_3   0.850831 0.774105 0.850231 -0.577220
C145  C     C_3   0.851602 0.820517 0.854935 -0.262010
H101  H     H_    0.822965 0.836098 0.802980 0.154759
H102  H     H_    0.895072 0.833716 0.883754 0.156316
H103  H     H_    0.836379 0.829876 0.883917 0.215425
O50   O     O_3   0.156971 0.764079 0.152973 -0.596580
C146  C     C_3   0.191625 0.728601 0.163435 -0.213236
H104  H     H_    0.167996 0.696874 0.144778 0.171619
H105  H     H_    0.229423 0.725655 0.218581 0.158532
H106  H     H_    0.206525 0.735030 0.133234 0.205054
O51   O     O_3   0.350825 0.274104 0.850227 -0.577221
C147  C     C_3   0.351593 0.320516 0.854929 -0.262012
H107  H     H_    0.395063 0.333717 0.883748 0.156316
H108  H     H_    0.336370 0.329876 0.883910 0.215425
H109  H     H_    0.322957 0.336096 0.802973 0.154761
O52   O     O_3   0.656963 0.264082 0.152970 -0.596596
C148  C     C_3   0.691619 0.228606 0.163433 -0.213184
H110  H     H_    0.706515 0.235033 0.133228 0.205042
H111  H     H_    0.667991 0.196877 0.144780 0.171627
H112  H     H_    0.729418 0.225661 0.218578 0.158564
N17   N     N_R   0.513760 0.813469 0.150828 0.228231
O53   O     O_R   0.463510 0.801102 0.098081 -0.332343
O54   O     O_R   0.519761 0.851260 0.179571 -0.354362
N18   N     N_R   0.339013 0.730774 0.846444 0.231457
O55   O     O_R   0.350014 0.753862 0.897732 -0.331429
O56   O     O_R   0.299334 0.701276 0.818322 -0.343489
N19   N     N_R   0.013756 0.313464 0.150828 0.228232
O57   O     O_R   0.963506 0.301096 0.098083 -0.332340
O58   O     O_R   0.019754 0.351256 0.179571 -0.354355
N20   N     N_R   0.839018 0.230758 0.846445 0.231473
O59   O     O_R   0.850013 0.253843 0.897732 -0.331383
O60   O     O_R   0.799347 0.201252 0.818325 -0.343536
N21   N     N_R   0.939006 0.729409 0.714405 0.228310
O61   O     O_R   0.932004 0.757218 0.669604 -0.424248
O62   O     O_R   0.975917 0.697917 0.737441 -0.341007
N22   N     N_R   0.060662 0.732391 0.283127 0.226803
O63   O     O_R   0.068798 0.761086 0.327451 -0.428590
O64   O     O_R   0.021657 0.702719 0.259449 -0.342322
N23   N     N_R   0.439005 0.229408 0.714409 0.228308
O65   O     O_R   0.432006 0.257217 0.669609 -0.424249
O66   O     O_R   0.475917 0.197915 0.737445 -0.341012
N24   N     N_R   0.560660 0.232400 0.283131 0.226799
O67   O     O_R   0.568803 0.261093 0.327463 -0.428615
O68   O     O_R   0.521650 0.202732 0.259450 -0.342334
N25   N     N_R   0.732224 0.646265 0.627113 0.211536
O69   O     O_R   0.757226 0.609687 0.632678 -0.381280
O70   O     O_R   0.760938 0.676448 0.674097 -0.394799
N26   N     N_R   0.259633 0.633779 0.381505 0.217266
O71   O     O_R   0.242860 0.596813 0.390030 -0.382403
O72   O     O_R   0.222808 0.659336 0.330098 -0.417573
N27   N     N_R   0.232223 0.146266 0.627114 0.211534
O73   O     O_R   0.257225 0.109688 0.632680 -0.381274
O74   O     O_R   0.260936 0.176449 0.674097 -0.394801
N28   N     N_R   0.759648 0.133811 0.381476 0.217247
O75   O     O_R   0.742852 0.096845 0.389967 -0.382403
O76   O     O_R   0.722843 0.159379 0.330074 -0.417640
N29   N     N_R   0.619972 0.694746 0.138314 0.222978
O77   O     O_R   0.618806 0.709883 0.088338 -0.344832
O78   O     O_R   0.632633 0.653455 0.156147 -0.304423
N30   N     N_R   0.501190 0.783005 0.860992 0.226258
O79   O     O_R   0.514020 0.817257 0.841622 -0.299756
O80   O     O_R   0.541467 0.759073 0.912244 -0.345569
N31   N     N_R   0.119975 0.194748 0.138314 0.222978
O81   O     O_R   0.118809 0.209888 0.088339 -0.344839
O82   O     O_R   0.132638 0.153457 0.156146 -0.304424
N32   N     N_R   0.001183 0.283023 0.860992 0.226263
O83   O     O_R   0.014004 0.317281 0.841623 -0.299766
O84   O     O_R   0.041465 0.259094 0.912242 -0.345579
O85   O     O_3   0.696931 0.694622 0.282433 -0.560639
C149  C     C_3   0.741028 0.714769 0.287152 -0.147440
H113  H     H_    0.777685 0.692047 0.314995 0.189443
H114  H     H_    0.754738 0.746052 0.316981 0.177817
H115  H     H_    0.728917 0.721016 0.235256 0.181165
O86   O     O_3   0.432996 0.777077 0.717312 -0.545976
C150  C     C_3   0.456558 0.738626 0.712590 -0.196968
H116  H     H_    0.424555 0.712126 0.683316 0.100521
H117  H     H_    0.492605 0.726312 0.764615 0.185292
H118  H     H_    0.472754 0.746851 0.684305 0.188564
O87   O     O_3   0.196933 0.194624 0.282433 -0.560639
C151  C     C_3   0.241029 0.214773 0.287152 -0.147442
H119  H     H_    0.277687 0.192052 0.314995 0.189441
H120  H     H_    0.254738 0.246055 0.316983 0.177822
H121  H     H_    0.228918 0.221021 0.235257 0.181165
O88   O     O_3   0.932990 0.277094 0.717312 -0.545982
C152  C     C_3   0.956562 0.238649 0.712593 -0.196954
H122  H     H_    0.924568 0.212142 0.683329 0.100506
H123  H     H_    0.992616 0.226343 0.764619 0.185305
H124  H     H_    0.972749 0.246878 0.684299 0.188565
O89   O     O_3   0.790221 0.827884 0.370843 -0.636715
C153  C     C_3   0.747212 0.859022 0.347395 -0.277567
H125  H     H_    0.761619 0.893748 0.355946 0.163670
H126  H     H_    0.726316 0.852091 0.370419 0.174944
H127  H     H_    0.714635 0.854864 0.290873 0.206206
O90   O     O_3   0.202168 0.821673 0.626296 -0.602219
C154  C     C_3   0.247478 0.851387 0.656333 -0.243157
H128  H     H_    0.234849 0.886478 0.650671 0.154180
H129  H     H_    0.270625 0.845456 0.635966 0.161056
H130  H     H_    0.277505 0.844418 0.712501 0.210386
O91   O     O_3   0.290222 0.327884 0.370843 -0.636719
C155  C     C_3   0.247212 0.359022 0.347395 -0.277568
H131  H     H_    0.261620 0.393747 0.355946 0.163673
H132  H     H_    0.226316 0.352091 0.370419 0.174945
H133  H     H_    0.214636 0.354864 0.290873 0.206205
O92   O     O_3   0.702372 0.321808 0.626388 -0.602299
C156  C     C_3   0.747633 0.351555 0.656259 -0.243164
H134  H     H_    0.734966 0.386640 0.650534 0.154156
H135  H     H_    0.770713 0.345603 0.635810 0.161251
H136  H     H_    0.777733 0.344645 0.712440 0.210350

loop_
_geom_bond_atom_site_label_1
_geom_bond_atom_site_label_2
_geom_bond_distance
_ccdc_geom_bond_type
O46   C142  1.274686 A    
C145  H102  1.113922 S    
C118  C122  1.557171 S    
C156  H134  1.108609 S    
C47   H7    1.114534 S    
C134  H90   1.113689 S    
C23   N19   1.440285 S    
C148  H110  1.109228 S    
C117  C121  1.554435 S    
C127  C135  1.552264 S    
Zn10  O42   2.020632 S    
C47   O91   1.425931 S    
C6    C38   1.467677 S    
C155  H131  1.108458 S    
C74   H34   1.113405 S    
C18   C38   1.399005 A    
O33   Zn11  2.028337 S    
C68   C139  1.461991 S    
O34   Zn12  2.027290 S    
C48   H8    1.114500 S    
C85   C102  1.467811 S    
Zn6   O22   2.021578 S    
C77   C97   1.400991 A    
O38   C138  1.276568 A    
C66   C70   1.543541 S    
C136  H88   1.113354 S    
N14   C102  1.354258 A    
C26   C30   1.414570 A    
O50   C146  1.410967 S    
O4    C4    1.281946 A    
C67   C75   1.559281 S    
O37   Zn12  2.019206 S    
C31   N31   1.439156 S    
C45   C49   1.539896 S    
C11   C123  1.464290 S    
C58   C62   1.550230 S    
C131  H99   1.113782 S    
N26   O71   1.301391 A    
N21   O62   1.301324 A    
C88   C103  1.472745 S    
C105  H57   1.109751 S    
C113  H93   1.115761 S    
Zn1   O25   2.015286 S    
C128  C143  1.461574 S    
C149  H114  1.112456 S    
Zn3   O19   2.025734 S    
C46   H6    1.114511 S    
C113  C121  1.559729 S    
Zn4   O28   2.013782 S    
N13   C101  1.355017 A    
Zn9   O46   2.027021 S    
C112  C128  1.548074 S    
Zn5   O29   2.005477 S    
C86   C90   1.403636 A    
O15   C7    1.293263 A    
C130  H98   1.113767 S    
C81   O49   1.382180 S    
C34   C38   1.409052 A    
O11   Zn3   2.005478 S    
C66   C74   1.560874 S    
C24   C28   1.413222 A    
C83   O51   1.382180 S    
O9    C5    1.291930 A    
O2    Zn2   2.021493 S    
C147  H107  1.113923 S    
C53   C69   1.533240 S    
C57   C61   1.552202 S    
C151  H120  1.112457 S    
O6    Zn6   2.025289 S    
N9    C102  1.356223 A    
O19   C11   1.280701 A    
O85   C149  1.411353 S    
C156  H136  1.109218 S    
C109  H69   1.113712 S    
N31   O81   1.301428 A    
C58   H26   1.113928 S    
H22   C70   1.113396 S    
C148  H112  1.112189 S    
C59   H31   1.113127 S    
C120  H80   1.113234 S    
C79   C83   1.394456 A    
C89   C93   1.394050 A    
C80   C84   1.396460 A    
H76   C132  1.113126 S    
C13   C97   1.464116 S    
C155  H133  1.109136 S    
C46   O90   1.426163 S    
C55   C63   1.564053 S    
O52   C148  1.410965 S    
C114  C130  1.541105 S    
N1    C42   1.355529 A    
C17   H1    1.083076 S    
C45   O89   1.425931 S    
C19   H3    1.083077 S    
C46   C50   1.540775 S    
C20   H4    1.083603 S    
C20   C24   1.395312 A    
C14   C98   1.461914 S    
C152  H122  1.113333 S    
C70   H46   1.113918 S    
C33   O85   1.383619 S    
C34   O86   1.383630 S    
N11   C104  1.356225 A    
H21   C69   1.113458 S    
C110  H66   1.113332 S    
C118  C134  1.534834 S    
N20   O59   1.301469 A    
O3    C3    1.282145 A    
O86   C150  1.410660 S    
C145  H103  1.109231 S    
C66   C137  1.461985 S    
C57   H25   1.113747 S    
C54   C62   1.564342 S    
O49   C145  1.409966 S    
N23   O65   1.300765 A    
C95   N23   1.436656 S    
O89   C153  1.409585 S    
N25   O69   1.301310 A    
C31   C35   1.407054 A    
C106  H62   1.113644 S    
C119  H83   1.113593 S    
N30   O79   1.301177 A    
C52   C68   1.556028 S    
C1    C61   1.461743 S    
O40   Zn9   2.021193 S    
O23   C11   1.282373 A    
C67   C71   1.543766 S    
O91   C155  1.409585 S    
C45   C61   1.570654 S    
C78   C82   1.396464 A    
C22   C26   1.413223 A    
N1    N2    1.328755 A    
C129  H97   1.113779 S    
C107  C123  1.559308 S    
C69   H45   1.113842 S    
C49   H13   1.110187 S    
C72   H48   1.113915 S    
N24   O67   1.300611 A    
O87   C151  1.411351 S    
C56   H44   1.113859 S    
C44   N8    1.355891 A    
C71   H47   1.113842 S    
N28   O75   1.301389 A    
C118  H82   1.111723 S    
C55   C71   1.533239 S    
C56   C72   1.533048 S    
C27   C44   1.461277 S    
C128  C132  1.556908 S    
C93   N21   1.436655 S    
C94   C98   1.411970 A    
C154  H129  1.109060 S    
C77   H49   1.083802 S    
C135  H91   1.113546 S    
C23   C27   1.411258 A    
O20   C12   1.282220 A    
O8    C4    1.279954 A    
O38   Zn11  2.021193 S    
C48   O92   1.426162 S    
C92   C96   1.393478 A    
O29   C13   1.290715 A    
N11   N15   1.327746 A    
C109  H65   1.113531 S    
N28   O76   1.300807 A    
N17   O54   1.301474 A    
C48   C52   1.540776 S    
C75   H35   1.113332 S    
C125  C142  1.462171 S    
C76   H36   1.113376 S    
O88   C152  1.410662 S    
C127  C144  1.462166 S    
C152  H124  1.109217 S    
C146  H105  1.112189 S    
C109  C125  1.545809 S    
C30   N30   1.438754 S    
C136  H92   1.113686 S    
C75   H39   1.112990 S    
C53   H41   1.113800 S    
O5    C1    1.279621 A    
Zn12  O47   2.028065 S    
N10   N14   1.327374 A    
N4    C43   1.355566 A    
C60   C64   1.550267 S    
C17   C21   1.394738 A    
C128  C136  1.548849 S    
N22   O64   1.301343 A    
C106  C122  1.557008 S    
C58   C74   1.536831 S    
C21   N17   1.440286 S    
C120  C136  1.534839 S    
O25   C13   1.287731 A    
C153  H125  1.108458 S    
C156  H135  1.109050 S    
C125  C133  1.552263 S    
O92   C156  1.409407 S    
N12   C103  1.356956 A    
C114  H94   1.115824 S    
C26   C41   1.461458 S    
O33   C137  1.276434 A    
C119  C135  1.536501 S    
Zn2   O26   2.013782 S    
O35   C139  1.276422 A    
O16   Zn8   2.013696 S    
O27   C15   1.287732 A    
O36   C140  1.275687 A    
C49   H9    1.114186 S    
C87   C104  1.467813 S    
C29   C33   1.407055 A    
O14   C6    1.290253 A    
C51   H11   1.114185 S    
C74   H38   1.113171 S    
C68   C72   1.543530 S    
C107  C111  1.533813 S    
C151  H119  1.109124 S    
C85   C89   1.401509 A    
C88   C92   1.403639 A    
O10   C6    1.290586 A    
O3    Zn3   2.021944 S    
C57   C73   1.538155 S    
C54   C70   1.533036 S    
Zn9   O41   2.018645 S    
C108  C124  1.557013 S    
C60   C76   1.536861 S    
H73   C129  1.113096 S    
C117  C133  1.536503 S    
C41   N5    1.355996 A    
C58   H30   1.112992 S    
C91   H55   1.083397 S    
N29   O78   1.301205 A    
C59   H27   1.113748 S    
C120  H84   1.111717 S    
C43   N7    1.355995 A    
C89   H53   1.083395 S    
C80   H52   1.083708 S    
N18   O55   1.301471 A    
C4    C64   1.461233 S    
O37   C137  1.275667 A    
C111  H67   1.113530 S    
H17   C53   1.106587 S    
C48   C64   1.572377 S    
C105  H61   1.113568 S    
H19   C55   1.106586 S    
C18   H2    1.083604 S    
N3    N4    1.328755 A    
C111  C127  1.545811 S    
O13   Zn5   2.015203 S    
C80   C100  1.399861 A    
C84   O52   1.383036 S    
C147  H109  1.112875 S    
C36   C40   1.409056 A    
O15   Zn7   2.015203 S    
N26   O72   1.300808 A    
N21   O61   1.300766 A    
C7    C39   1.476210 S    
C92   H56   1.083080 S    
C19   C39   1.402205 A    
C56   C64   1.564335 S    
C110  C126  1.548080 S    
C150  H118  1.109216 S    
C57   H29   1.113130 S    
O17   C9    1.280699 A    
N27   O73   1.301308 A    
C86   C101  1.472748 S    
C78   C98   1.399862 A    
C108  H64   1.113642 S    
C82   C86   1.412190 A    
C125  C129  1.556169 S    
C106  C110  1.533846 S    
C119  H79   1.113161 S    
C127  C131  1.556170 S    
O43   C143  1.276951 A    
O44   C144  1.276719 A    
C25   C29   1.413578 A    
C78   H50   1.083709 S    
C145  H101  1.112876 S    
C77   C81   1.394459 A    
Zn7   O31   2.005477 S    
N3    C44   1.355527 A    
C95   C99   1.414072 A    
Zn8   O32   2.007025 S    
C151  H121  1.112311 S    
C148  H111  1.114168 S    
Zn6   O30   2.007025 S    
C42   N6    1.355889 A    
H23   C71   1.113460 S    
C115  C123  1.559729 S    
C32   C36   1.405259 A    
O1    C1    1.282145 A    
N19   O57   1.301454 A    
C114  C122  1.559557 S    
C115  N27   1.469797 S    
C133  H85   1.113074 S    
C52   H12   1.114222 S    
C135  H87   1.113072 S    
O51   C147  1.409966 S    
C10   C122  1.464267 S    
C3    C63   1.461742 S    
O21   C9    1.282373 A    
O28   C16   1.287373 A    
C119  C123  1.554433 S    
C116  C132  1.541101 S    
C33   C37   1.412794 A    
C49   C65   1.556976 S    
O30   C14   1.290325 A    
C47   C63   1.570657 S    
C105  C121  1.559306 S    
N20   O60   1.301495 A    
O22   C10   1.281696 A    
N10   C101  1.356957 A    
O35   Zn9   2.028337 S    
C94   N22   1.436955 S    
O90   C154  1.409408 S    
C126  C141  1.461574 S    
C90   C94   1.393474 A    
N30   O80   1.301400 A    
C114  N26   1.469930 S    
C28   C43   1.461458 S    
C67   C140  1.462103 S    
Zn10  O45   2.028065 S    
C32   N32   1.438754 S    
C117  H77   1.113158 S    
C54   H42   1.113878 S    
N2    C41   1.355570 A    
C82   O50   1.383036 S    
O6    C2    1.279960 A    
C150  H116  1.113333 S    
H20   C56   1.106666 S    
C149  H113  1.109124 S    
C60   H28   1.113903 S    
C47   C51   1.539897 S    
O47   C143  1.273901 A    
O48   C144  1.274687 A    
C133  H89   1.113545 S    
C52   H16   1.110328 S    
C59   C75   1.538154 S    
N32   O83   1.301176 A    
C12   C124  1.464269 S    
C79   C99   1.400990 A    
C146  H104  1.114168 S    
O26   C14   1.287375 A    
C35   C39   1.412797 A    
N24   O68   1.301344 A    
C126  C134  1.548842 S    
C21   C25   1.411255 A    
C155  H132  1.108787 S    
Zn11  O43   2.018645 S    
C73   H33   1.113328 S    
H75   C131  1.113094 S    
O34   C138  1.275687 A    
C29   N29   1.439154 S    
C107  H59   1.109752 S    
Zn3   O27   2.015286 S    
Zn4   O20   2.025293 S    
C30   C34   1.405260 A    
C73   H37   1.112990 S    
C65   C69   1.543765 S    
C68   C76   1.560835 S    
C107  H63   1.113567 S    
O39   C139  1.275681 A    
C24   N20   1.440458 S    
O40   C140  1.276568 A    
O13   C5    1.293264 A    
O12   Zn4   2.007023 S    
N15   C103  1.355016 A    
N5    N6    1.329382 A    
C20   C40   1.399009 A    
N32   O84   1.301400 A    
N7    N8    1.329382 A    
C112  H68   1.113334 S    
C28   C32   1.414569 A    
C149  H115  1.112309 S    
N17   O53   1.301453 A    
O7    C3    1.279621 A    
O45   C141  1.273903 A    
C50   H14   1.110348 S    
H74   C130  1.113123 S    
C91   C95   1.394049 A    
C83   C87   1.410238 A    
N25   O70   1.300501 A    
C152  H123  1.112623 S    
C115  C131  1.540066 S    
C111  H71   1.113712 S    
C105  C109  1.533814 S    
O41   C141  1.276951 A    
Zn2   O18   2.025293 S    
O16   C8    1.290251 A    
Zn7   O23   2.022027 S    
N27   O74   1.300506 A    
C93   C97   1.414074 A    
O14   Zn6   2.013696 S    
C153  H126  1.108786 S    
N12   N16   1.327374 A    
C120  C124  1.557163 S    
C19   C23   1.394736 A    
O11   C7    1.291928 A    
H24   C72   1.113394 S    
C15   C99   1.464115 S    
C60   H32   1.112996 S    
O12   C8    1.290589 A    
O1    Zn1   2.021944 S    
O9    Zn1   2.005478 S    
O4    Zn4   2.021493 S    
C18   C22   1.395314 A    
C106  H58   1.109911 S    
O5    Zn5   2.025738 S    
O18   C10   1.282224 A    
O7    Zn7   2.025738 S    
C108  C112  1.533846 S    
O8    Zn8   2.025289 S    
N16   C104  1.354258 A    
C36   O88   1.383630 S    
C153  H127  1.109136 S    
C115  H95   1.115761 S    
C126  C130  1.556911 S    
C116  H96   1.115821 S    
C81   C85   1.410242 A    
C79   H51   1.083803 S    
O42   C142  1.276718 A    
C51   C67   1.556976 S    
O24   C12   1.281700 A    
O10   Zn2   2.007023 S    
C84   C88   1.412190 A    
C113  C129  1.540065 S    
N31   O82   1.301206 A    
C96   C100  1.411970 A    
N19   O58   1.301475 A    
C9    C121  1.464291 S    
C59   C63   1.552202 S    
C154  H128  1.108609 S    
N9    N13   1.327749 A    
C154  H130  1.109236 S    
N23   O66   1.301326 A    
C51   H15   1.110185 S    
N29   O77   1.301426 A    
C5    C37   1.476212 S    
C22   N18   1.440459 S    
Zn5   O21   2.022027 S    
C17   C37   1.402207 A    
C110  H70   1.113640 S    
C25   C42   1.461276 S    
O2    C2    1.281939 A    
C108  H60   1.109906 S    
C65   C138  1.462102 S    
O31   C15   1.290712 A    
C50   H10   1.114244 S    
C53   C61   1.564053 S    
O32   C16   1.290324 A    
C134  H86   1.113357 S    
C87   C91   1.401514 A    
C35   O87   1.383617 S    
C2    C62   1.461231 S    
C146  H106  1.109225 S    
C116  C124  1.559557 S    
O39   Zn10  2.019206 S    
C16   C100  1.461910 S    
C46   C62   1.572416 S    
C50   C66   1.556002 S    
C8    C40   1.467682 S    
C65   C73   1.559282 S    
C132  H100  1.113764 S    
C27   C31   1.413577 A    
C150  H117  1.112624 S    
C116  N28   1.469931 S    
O36   Zn10  2.027290 S    
N22   O63   1.300608 A    
C96   N24   1.436961 S    
Zn8   O24   2.021578 S    
C90   H54   1.083079 S    
C113  N25   1.469798 S    
Zn12  O44   2.020632 S    
C147  H108  1.109230 S    
C76   H40   1.113156 S    
C55   H43   1.113801 S    
N18   O56   1.301494 A    
Zn1   O17   2.025734 S    
C112  H72   1.113640 S    
Zn11  O48   2.027021 S    
H18   C54   1.106674 S    
C117  H81   1.113592 S    
C118  H78   1.113235 S    
C45   H5    1.114534 S    
