data_mof_unit_32834.cif
_audit_creation_date              2013-03-05T16:47:47-0500
_audit_creation_method            fapswitch 2.2
_symmetry_space_group_name_H-M    P1
_symmetry_Int_Tables_number       1
_space_group_crystal_system       triclinic
_cell_length_a                    15.713689
_cell_length_b                    8.938643
_cell_length_c                    8.162813
_cell_angle_alpha                 89.969632
_cell_angle_beta                  95.136711
_cell_angle_gamma                 90.036127
_cell_volume                      1141.93603484

loop_
_atom_site_label
_atom_site_type_symbol
_atom_site_description
_atom_site_fract_x
_atom_site_fract_y
_atom_site_fract_z
_atom_type_partial_charge
O1    O     O_R   0.500000 0.285340 0.636850 -0.610739
O2    O     O_R   0.500000 0.714660 0.363150 -0.613534
O3    O     O_R   0.500000 0.285340 0.363150 -0.610099
O4    O     O_R   0.500000 0.714660 0.636850 -0.613515
C1    C     C_1   0.499969 0.065222 0.500035 -0.157607
C2    C     C_1   0.499964 0.934770 0.499956 -0.160260
C3    C     C_R   0.499984 0.218192 0.500025 0.943576
C4    C     C_R   0.499975 0.781805 0.499969 0.937183
O5    O     O_R   0.376770 0.500000 0.636850 -0.620824
O6    O     O_R   0.623230 0.500000 0.363150 -0.613229
O7    O     O_R   0.376780 0.500000 0.363100 -0.613026
O8    O     O_R   0.623220 0.500000 0.636900 -0.614804
C5    C     C_R   0.337282 0.499776 0.492405 0.898983
C6    C     C_R   0.662734 0.500267 0.507635 0.905473
Zn1   Zn    Zn3+2 0.499990 0.500000 0.682780 1.005879
Zn2   Zn    Zn3+2 0.500010 0.500000 0.317220 1.009318
N1    N     N_1   0.500010 0.500000 0.073640 -0.028835
N2    N     N_1   0.499990 0.500000 0.926360 -0.030017
C7    C     C_3   0.983166 0.398403 0.589466 0.201951
C8    C     C_3   0.017114 0.637689 0.412576 0.221238
C9    C     C_3   0.016000 0.393715 0.419048 0.220471
C10   C     C_3   0.983402 0.643149 0.583096 0.204674
C11   C     C_1   0.247955 0.503913 0.472891 -0.154458
C12   C     C_1   0.752060 0.506233 0.527534 -0.147118
C13   C     C_3   0.048792 0.521585 0.646974 -0.119695
C14   C     C_3   0.951537 0.515332 0.356241 -0.097466
C15   C     C_3   0.082004 0.515469 0.473157 -0.123034
C16   C     C_3   0.918553 0.519366 0.529889 -0.133862
C17   C     C_1   0.172349 0.509146 0.462409 0.123988
C18   C     C_1   0.827700 0.512646 0.539470 0.068853
N3    N     N_R   0.031646 0.258017 0.328083 0.253384
O9    O     O_R   0.968150 0.170196 0.281357 -0.262033
O10   O     O_R   0.107611 0.227795 0.285935 -0.338524
N4    N     N_R   0.960458 0.783647 0.658751 0.236129
O11   O     O_R   0.993004 0.820451 0.804990 -0.339473
O12   O     O_R   0.902418 0.868906 0.583393 -0.284849
N5    N     N_R   0.965299 0.265932 0.684988 0.247940
O13   O     O_R   0.025775 0.169811 0.724317 -0.283109
O14   O     O_R   0.889079 0.241868 0.729541 -0.336228
N6    N     N_R   0.036291 0.768269 0.315613 0.240452
O15   O     O_R   0.975100 0.858237 0.261950 -0.249996
O16   O     O_R   0.113464 0.791907 0.275859 -0.365020
C19   C     C_3   0.881639 0.515260 0.212483 -0.333527
C20   C     C_3   0.911713 0.546128 0.044388 -0.326480
C21   C     C_3   0.835943 0.601352 0.930310 -0.711028
H1    H     H_    0.788501 0.510186 0.905037 0.259411
H2    H     H_    0.804465 0.698839 0.983846 0.269716
H3    H     H_    0.858475 0.640075 0.814772 0.271958
H4    H     H_    0.962416 0.632611 0.052041 0.278734
H5    H     H_    0.936945 0.441248 0.994612 0.252546
H6    H     H_    0.847065 0.406608 0.209814 0.234276
H7    H     H_    0.835537 0.604323 0.239530 0.227585
C22   C     C_3   0.106859 0.506005 0.808563 -0.324873
C23   C     C_3   0.167617 0.638894 0.846362 -0.313610
C24   C     C_3   0.240397 0.596339 0.974487 -0.761475
H8    H     H_    0.214415 0.557437 0.089334 0.279676
H9    H     H_    0.279973 0.506158 0.926553 0.259537
H10   H     H_    0.281798 0.695236 0.003637 0.259454
H11   H     H_    0.195217 0.678787 0.733925 0.233900
H12   H     H_    0.132719 0.733241 0.896784 0.299245
H13   H     H_    0.067413 0.490447 0.912615 0.207001
H14   H     H_    0.144912 0.402106 0.798809 0.239814

loop_
_geom_bond_atom_site_label_1
_geom_bond_atom_site_label_2
_geom_bond_distance
_ccdc_geom_bond_type
C20   H4    1.107535 S    
Zn1   N2    1.988298 S    
C2    C4    1.367299 S    
C9    C14   1.542234 S    
N3    O10   1.300118 A    
N5    O13   1.300181 A    
O1    Zn1   1.955253 S    
C8    C15   1.545412 S    
C13   C15   1.556008 S    
O2    Zn2   1.955253 S    
O7    Zn2   2.004931 S    
C14   C16   1.552658 S    
N3    O9    1.299388 A    
O8    Zn1   2.004934 S    
C8    C10   1.533814 S    
O4    C4    1.268019 A    
O4    Zn1   1.954862 S    
N6    O16   1.300225 A    
N1    N2    1.202190 T    
C9    C15   1.540225 S    
N5    O14   1.300222 A    
O6    Zn2   1.938971 S    
C22   C23   1.537504 S    
C7    C16   1.532590 S    
C9    N3    1.455021 S    
C19   H6    1.111803 S    
C8    C14   1.543950 S    
C8    N6    1.456342 S    
C11   C17   1.184411 T    
C16   C18   1.437969 S    
N6    O15   1.299364 A    
C7    C9    1.526982 S    
N4    O12   1.300347 A    
C13   C22   1.541502 S    
C14   C19   1.533824 S    
C10   C16   1.539836 S    
O3    C3    1.268038 A    
C23   H11   1.108305 S    
C24   H9    1.110922 S    
C19   C20   1.515826 S    
O5    Zn1   1.938968 S    
C1    C2    1.166067 T    
C10   N4    1.459390 S    
C12   C18   1.185205 T    
C19   H7    1.112147 S    
C21   H3    1.092664 S    
C15   C17   1.431325 S    
C7    N5    1.458334 S    
C7    C13   1.551963 S    
C6    C12   1.399465 S    
O7    C5    1.271455 A    
C21   H2    1.111143 S    
C20   C21   1.526464 S    
C5    C11   1.398930 S    
C22   H14   1.111620 S    
N4    O11   1.298318 A    
O6    C6    1.282666 A    
C24   H10   1.110449 S    
C20   H5    1.109463 S    
C1    C3    1.367338 S    
O5    C5    1.282283 A    
C23   C24   1.527216 S    
C23   H12   1.105768 S    
C24   H8    1.111074 S    
O1    C3    1.268201 A    
C21   H1    1.110979 S    
C22   H13   1.104073 S    
O2    C4    1.268193 A    
O3    Zn2   1.954863 S    
O8    C6    1.271311 A    
Zn2   N1    1.988298 S    
C10   C13   1.553474 S    
