data_mof_unit_19143.cif
_audit_creation_date              2012-12-10T18:22:31-0500
_audit_creation_method            fapswitch 2.2
_symmetry_space_group_name_H-M    P1
_symmetry_Int_Tables_number       1
_space_group_crystal_system       triclinic
_cell_length_a                    23.527226
_cell_length_b                    10.614873
_cell_length_c                    9.410685
_cell_angle_alpha                 89.563652
_cell_angle_beta                  90.080271
_cell_angle_gamma                 89.963168
_cell_volume                      2350.13954383

loop_
_atom_site_label
_atom_site_type_symbol
_atom_type_description
_atom_site_fract_x
_atom_site_fract_y
_atom_site_fract_z
_atom_type_partial_charge
C1    C     C_R   0.500021 0.259381 0.500505 0.787945
C2    C     C_R   0.701835 0.509435 0.628563 -0.221197
C3    C     C_R   0.239013 0.510311 0.628006 -0.106402
C4    C     C_R   0.761096 0.508875 0.628473 -0.105569
C5    C     C_R   0.209200 0.502227 0.499618 0.368190
C6    C     C_R   0.790801 0.497678 0.500413 0.367230
C7    C     C_3   0.500094 0.039318 0.635430 -0.139696
C8    C     C_3   0.499907 0.960682 0.364570 -0.139695
C9    C     C_3   0.546738 0.957206 0.566898 -0.162181
C10   C     C_3   0.453263 0.042794 0.433102 -0.162209
C11   C     C_3   0.499987 0.877567 0.498542 0.017088
C12   C     C_R   0.499979 0.740619 0.499495 0.787967
C13   C     C_3   0.500014 0.122432 0.501458 0.017096
C14   C     C_3   0.453342 0.957386 0.566958 -0.163711
C15   C     C_3   0.546659 0.042614 0.433042 -0.163680
C16   C     C_R   0.390992 0.500106 0.499956 0.794616
C17   C     C_R   0.609006 0.499877 0.500042 0.794615
C18   C     C_3   0.504991 0.613280 0.049437 -0.036037
C19   C     C_3   0.495009 0.386720 0.950563 -0.036033
C20   C     C_3   0.458256 0.566290 0.948595 -0.036575
C21   C     C_3   0.541744 0.433709 0.051405 -0.036248
C22   C     C_3   0.546778 0.546945 0.949295 -0.037641
C23   C     C_R   0.238894 0.493377 0.371299 -0.105981
C24   C     C_3   0.453222 0.453055 0.050705 -0.037994
C25   C     C_R   0.879897 0.607340 0.524337 0.537704
C26   C     C_R   0.120125 0.392598 0.475575 0.537801
C27   C     C_R   0.880016 0.386892 0.476357 0.534620
C28   C     C_R   0.120009 0.612982 0.523917 0.534726
C29   C     C_R   0.940323 0.383683 0.474892 -0.019845
C30   C     C_R   0.059700 0.616213 0.525293 -0.019924
C31   C     C_R   0.969922 0.498294 0.499931 -0.054676
C32   C     C_R   0.030100 0.501612 0.500180 -0.054664
C33   C     C_R   0.939374 0.610072 0.524768 -0.046102
C34   C     C_R   0.760976 0.487229 0.372253 -0.106028
C35   C     C_R   0.060648 0.389845 0.475265 -0.046190
C36   C     C_R   0.972215 0.271697 0.449786 0.144091
C37   C     C_R   0.027809 0.728203 0.550372 0.144081
C38   C     C_R   0.031634 0.277028 0.450662 -0.156395
C39   C     C_R   0.968389 0.722889 0.549386 -0.156378
C40   C     C_3   0.945371 0.144953 0.421310 -0.743578
C41   C     C_3   0.054657 0.854940 0.578867 -0.743617
C42   C     C_R   0.298155 0.492827 0.371195 -0.221001
C43   C     C_R   0.701720 0.488211 0.371938 -0.222001
C44   C     C_R   0.328404 0.500686 0.499803 -0.038652
C45   C     C_R   0.671589 0.499251 0.500188 -0.038512
C46   C     C_R   0.298268 0.509352 0.628302 -0.221800
Cu1   Cu    Cu3+1 0.500010 0.499990 0.643150 0.933564
Cu2   Cu    Cu3+1 0.499990 0.500010 0.356850 0.933567
H1    H     H_    0.423180 0.622138 0.900356 0.111850
H2    H     H_    0.783806 0.478725 0.272945 0.135911
H3    H     H_    0.320193 0.486007 0.270587 0.150227
H4    H     H_    0.679582 0.479966 0.271457 0.152087
H5    H     H_    0.320396 0.515678 0.728991 0.152261
H6    H     H_    0.679791 0.518175 0.728957 0.150068
H7    H     H_    0.216179 0.516956 0.727500 0.135382
H8    H     H_    0.784018 0.516869 0.727858 0.136294
H9    H     H_    0.584963 0.918933 0.621462 0.135281
H10   H     H_    0.415037 0.081067 0.378538 0.135345
H11   H     H_    0.500177 0.074080 0.746398 0.129451
H12   H     H_    0.576819 0.377860 0.099644 0.111614
H13   H     H_    0.499824 0.925920 0.253602 0.129451
H14   H     H_    0.415182 0.919258 0.621574 0.134776
H15   H     H_    0.584819 0.080742 0.378426 0.134707
H16   H     H_    0.918618 0.150243 0.324192 0.261396
H17   H     H_    0.977587 0.070346 0.402732 0.196292
H18   H     H_    0.919729 0.114370 0.514290 0.260726
H19   H     H_    0.080352 0.885466 0.485956 0.260659
H20   H     H_    0.022441 0.929578 0.597302 0.196291
H21   H     H_    0.081358 0.849672 0.676075 0.261470
H22   H     H_    0.509274 0.708833 0.095262 0.112619
H23   H     H_    0.490726 0.291167 0.904738 0.112609
H24   H     H_    0.586110 0.586730 0.901903 0.111494
H25   H     H_    0.413889 0.413274 0.098098 0.111699
H26   H     H_    0.055574 0.191512 0.431738 0.187464
H27   H     H_    0.944451 0.808415 0.568261 0.187476
H28   H     H_    0.215969 0.487213 0.271742 0.135723
N1    N     N_R   0.851747 0.497270 0.500437 -0.468305
N2    N     N_R   0.148266 0.502641 0.499614 -0.468489
N3    N     N_3   0.500040 0.499970 0.858290 -0.153546
N4    N     N_3   0.499960 0.500030 0.141710 -0.153537
O1    O     O_R   0.500030 0.316850 0.620870 -0.587246
O2    O     O_2   0.149853 0.285802 0.452793 -0.540211
O3    O     O_2   0.849339 0.281537 0.455130 -0.543205
O4    O     O_2   0.150697 0.718258 0.545516 -0.542996
O5    O     O_R   0.499970 0.683150 0.379130 -0.587241
O6    O     O_R   0.500000 0.316860 0.379090 -0.581281
O7    O     O_R   0.500000 0.683140 0.620910 -0.581277
O8    O     O_R   0.417890 0.499960 0.620920 -0.584023
O9    O     O_R   0.582110 0.500040 0.379080 -0.583972
O10   O     O_R   0.417870 0.499970 0.379140 -0.584795
O11   O     O_R   0.582130 0.500030 0.620860 -0.584750
O12   O     O_2   0.850178 0.714198 0.546828 -0.540436

loop_
_geom_bond_atom_site_label_1
_geom_bond_atom_site_label_2
_ccdc_geom_bond_type
C18   H22   S    
C16   O10   A    
C28   O4    S    
C19   H23   S    
C17   O11   A    
Cu1   N3    S    
C23   H28   S    
C41   H19   S    
C29   C36   A    
C26   N2    A    
C23   C42   A    
C12   O5    A    
C25   N1    A    
C19   C21   S    
C17   C45   S    
C22   N3    S    
C11   C14   S    
C24   H25   S    
C27   C29   A    
C1    O1    A    
C14   H14   S    
C46   H5    S    
C7    H11   S    
C3    H7    S    
C24   N4    S    
C7    C14   S    
C31   C32   A    
C31   C33   A    
C39   H27   S    
C28   N2    A    
C16   C44   S    
C18   C20   S    
C20   N3    S    
C42   H3    S    
C26   O2    S    
C40   H18   S    
C21   C22   S    
C4    H8    S    
C42   C44   A    
C22   H24   S    
C44   C46   A    
C41   H20   S    
C2    C45   A    
C37   C39   A    
C34   H2    S    
C32   C35   A    
C20   C24   S    
C36   C40   S    
C35   C38   A    
C17   O9    A    
C21   H12   S    
C4    C6    A    
C10   C14   S    
C6    N1    S    
C27   N1    A    
C6    C34   A    
C30   C37   A    
Cu1   O7    S    
C2    C4    A    
C20   H1    S    
C9    C11   S    
Cu1   Cu2   S    
C5    C23   A    
C33   C39   A    
C19   N3    S    
C43   C45   A    
C8    C10   S    
C8    C15   S    
Cu2   O9    S    
C13   C15   S    
C2    H6    S    
Cu2   O6    S    
C1    C13   S    
C41   H21   S    
C38   H26   S    
C1    O6    A    
C7    C9    S    
C25   O12   S    
C12   O7    A    
C10   H10   S    
C18   C22   S    
Cu1   O11   S    
C34   C43   A    
C3    C5    A    
C10   C13   S    
C11   C12   S    
C8    H13   S    
C3    C46   A    
C40   H16   S    
C40   H17   S    
Cu1   O8    S    
Cu2   N4    S    
C28   C30   A    
C19   C24   S    
C9    C15   S    
C29   C31   A    
C30   C32   A    
C8    C11   S    
C21   N4    S    
C36   C38   A    
C9    H9    S    
Cu1   O1    S    
C37   C41   S    
C43   H4    S    
C27   O3    S    
C26   C35   A    
C7    C13   S    
C18   N4    S    
C16   O8    A    
C15   H15   S    
Cu2   O5    S    
Cu2   O10   S    
C5    N2    S    
C25   C33   A    
