data_mof_unit_10126.cif
_audit_creation_date              2012-12-11T14:48:08-0500
_audit_creation_method            fapswitch 2.2
_symmetry_space_group_name_H-M    P1
_symmetry_Int_Tables_number       1
_space_group_crystal_system       triclinic
_cell_length_a                    11.56403
_cell_length_b                    11.480154
_cell_length_c                    19.483481
_cell_angle_alpha                 89.980225
_cell_angle_beta                  89.818435
_cell_angle_gamma                 59.649188
_cell_volume                      2232.05735398

loop_
_atom_site_label
_atom_site_type_symbol
_atom_type_description
_atom_site_fract_x
_atom_site_fract_y
_atom_site_fract_z
_atom_type_partial_charge
C1    C     C_R   0.640646 0.117911 0.599082 0.541787
C2    C     C_1   0.641575 0.702572 0.667767 0.004587
C3    C     C_1   0.127521 0.198649 0.859453 0.007622
C4    C     C_1   0.170931 0.170021 0.727649 -0.031227
C5    C     C_1   0.150466 0.182041 0.798988 -0.029593
C6    C     C_1   0.194237 0.160813 0.667171 0.000205
C7    C     C_1   0.678019 0.191649 0.860856 0.004595
C8    C     C_1   0.658404 0.167866 0.728901 -0.030750
C9    C     C_1   0.665210 0.181475 0.800313 -0.029889
C10   C     C_1   0.653085 0.150267 0.668433 0.002670
C11   C     C_R   0.593602 0.617149 0.308517 -0.155525
C12   C     C_R   0.612854 0.745006 0.598366 0.545329
C13   C     C_R   0.595017 0.605247 0.238766 -0.163172
C14   C     C_R   0.671138 0.643337 0.197975 0.053557
C15   C     C_R   0.751905 0.687757 0.227912 0.255566
C16   C     C_R   0.745512 0.704657 0.298651 -0.125099
C17   C     C_R   0.662639 0.673859 0.338153 -0.020510
C18   C     C_R   0.242805 0.248627 0.287286 -0.142946
C19   C     C_R   0.197857 0.273069 0.220660 -0.155415
C20   C     C_R   0.175421 0.180405 0.184977 0.004987
C21   C     C_R   0.221297 0.050457 0.213919 0.032591
C22   C     C_R   0.262302 0.028846 0.283025 -0.140503
C23   C     C_R   0.239900 0.145700 0.597939 0.548589
C24   C     C_R   0.266846 0.130511 0.320723 -0.012096
C25   C     C_R   0.807825 0.109373 0.315156 0.246497
C26   C     C_R   0.827943 0.136913 0.247971 -0.109622
C27   C     C_R   0.718704 0.224611 0.207024 -0.016913
C28   C     C_R   0.589689 0.293553 0.235475 -0.151986
C29   C     C_R   0.568554 0.265257 0.302044 -0.184576
C30   C     C_R   0.675727 0.167010 0.340803 0.023703
C31   C     C_R   0.082632 0.230832 0.928769 0.557225
C32   C     C_R   0.683400 0.605689 0.929734 0.555783
C33   C     C_R   0.707937 0.206643 0.930236 0.558273
C34   C     C_R   0.646313 0.115177 0.403240 0.546034
C35   C     C_R   0.090078 0.231686 0.123369 0.551665
C36   C     C_R   0.683877 0.608290 0.126641 0.581194
C37   C     C_R   0.741512 0.237920 0.134355 0.546937
C38   C     C_R   0.619749 0.735328 0.404146 0.543408
C39   C     C_R   0.302726 0.114702 0.393717 0.559478
C40   C     C_1   0.669977 0.647955 0.860293 0.009147
C41   C     C_1   0.655020 0.683027 0.728346 -0.031416
C42   C     C_1   0.663328 0.667429 0.799685 -0.030232
Cr1   Cr    Cr6+3 0.404720 0.198220 0.499960 1.016768
Cr2   Cr    Cr6+3 0.698290 0.897110 0.500380 1.025115
Cr3   Cr    Cr6+3 0.396970 0.904720 0.499610 1.000525
Cr4   Cr    Cr6+3 0.926180 0.152240 0.028110 1.074454
Cr5   Cr    Cr6+3 0.921340 0.452070 0.027460 1.041262
Cr6   Cr    Cr6+3 0.626260 0.447120 0.028700 1.038273
H1    H     H_    0.530129 0.592127 0.338627 0.147740
H2    H     H_    0.928768 0.086240 0.227077 0.142547
H3    H     H_    0.504026 0.363810 0.205331 0.137290
H4    H     H_    0.466903 0.314088 0.321434 0.130386
H5    H     H_    0.536438 0.564941 0.217025 0.153508
H6    H     H_    0.796878 0.751629 0.321653 0.151793
H7    H     H_    0.252770 0.326260 0.313452 0.132211
H8    H     H_    0.174016 0.369030 0.198518 0.124249
H9    H     H_    0.292893 0.932543 0.307181 0.177265
O1    O     O_R   0.267740 0.231990 0.575440 -0.498356
O2    O     O_R   0.685970 0.784630 0.430010 -0.509790
O3    O     O_R   0.502530 0.766960 0.423990 -0.526177
O4    O     O_R   0.288330 0.026310 0.429250 -0.518186
O5    O     O_3   0.499990 0.000020 0.499980 -0.263719
O6    O     O_R   0.821500 0.119550 0.952820 -0.496281
O7    O     O_R   0.037130 0.162750 0.957360 -0.480695
O8    O     O_R   0.056440 0.344950 0.951330 -0.504367
O9    O     O_R   0.797900 0.560570 0.957460 -0.490928
O10   O     O_R   0.596140 0.579600 0.952720 -0.494113
O11   O     O_R   0.639070 0.321380 0.958660 -0.488736
O12   O     O_R   0.527280 0.186680 0.570530 -0.492776
O13   O     O_R   0.821240 0.124490 0.104360 -0.493140
O14   O     O_R   0.036900 0.167320 0.097830 -0.483861
O15   O     O_R   0.056190 0.349890 0.102870 -0.534442
O16   O     O_R   0.797670 0.565150 0.097930 -0.469569
O17   O     O_R   0.595880 0.584540 0.104260 -0.529277
O18   O     O_R   0.638830 0.325960 0.099140 -0.502737
O19   O     O_3   0.824590 0.350480 0.028090 -0.292398
O20   O     O_R   0.728090 0.003480 0.576380 -0.513147
O21   O     O_R   0.682970 0.789220 0.570490 -0.492038
O22   O     O_R   0.499290 0.771920 0.575530 -0.505143
O23   O     O_R   0.285330 0.030900 0.569730 -0.497570
O24   O     O_R   0.270980 0.227040 0.423900 -0.520127
O25   O     O_R   0.530280 0.182090 0.430050 -0.531470
O26   O     O_R   0.731330 0.998530 0.424830 -0.473759
O27   O     O_3   0.823384 0.728733 0.187084 -0.535381
C43   C     C_3   0.961245 0.658066 0.204261 -0.019235
H10   H     H_    0.019387 0.607408 0.157176 0.167466
H11   H     H_    0.990257 0.577584 0.243798 0.102785
C44   C     C_3   0.003233 0.757050 0.228617 -0.356162
H12   H     H_    0.110234 0.700604 0.243849 0.128964
H13   H     H_    0.989243 0.828938 0.186892 0.192028
H14   H     H_    0.942544 0.814469 0.273665 0.199095
C45   C     C_2   0.238313 0.933365 0.173195 0.575887
O28   O     O_2   0.254936 0.929659 0.111047 -0.492479
O29   O     O_R   0.245402 0.822198 0.206586 -0.737039
H15   H     H_    0.263965 0.746139 0.173735 0.327898
O30   O     O_3   0.916634 0.014885 0.352266 -0.558555
C46   C     C_3   0.953202 0.082520 0.400310 0.001353
H16   H     H_    0.865087 0.163756 0.428453 0.114247
H17   H     H_    0.006791 0.127462 0.373771 0.145277
C47   C     C_3   0.046029 0.981184 0.453207 -0.320269
H18   H     H_    0.137897 0.900710 0.427715 0.166628
H19   H     H_    0.074487 0.033046 0.491937 0.126114
H20   H     H_    0.994389 0.934493 0.479799 0.160830

loop_
_geom_bond_atom_site_label_1
_geom_bond_atom_site_label_2
_ccdc_geom_bond_type
C19   H8    S    
C23   O1    A    
Cr3   O3    S    
C1    O20   A    
C41   C42   S    
Cr6   O19   S    
C19   C20   A    
Cr2   O26   S    
C2    C12   S    
C22   H9    S    
Cr4   O19   S    
C46   H16   S    
C43   H10   S    
C26   C27   A    
C18   C24   A    
C28   C29   A    
Cr5   O19   S    
C26   H2    S    
C14   C36   S    
C28   H3    S    
Cr2   O2    S    
C15   C16   A    
C12   O22   A    
Cr3   O5    S    
C24   C39   S    
C31   O8    A    
C18   C19   A    
C45   O28   D    
Cr1   O1    S    
C20   C35   S    
C8    C9    S    
C12   O21   A    
C13   C14   A    
C23   O23   A    
Cr5   O9    S    
C40   C42   T    
C37   O18   A    
C35   O14   A    
Cr1   O12   S    
C21   C22   A    
C7    C33   S    
Cr6   O18   S    
C45   O29   S    
C46   H17   S    
C13   H5    S    
C43   H11   S    
C39   O4    A    
C30   C34   S    
Cr6   O17   S    
O27   C43   S    
Cr5   O16   S    
C4    C6    T    
C16   C17   A    
Cr2   O5    S    
C25   C26   A    
C47   H20   S    
C1    O12   A    
Cr4   O7    S    
C29   C30   A    
C11   H1    S    
C44   H14   S    
C33   O6    A    
O30   C46   S    
C20   C21   A    
C47   H19   S    
Cr3   O22   S    
Cr6   O11   S    
C3    C31   S    
C39   O24   A    
Cr4   O14   S    
C36   O17   A    
C18   H7    S    
C32   O10   A    
C38   O3    A    
C44   H13   S    
C35   O15   A    
Cr1   O24   S    
C22   C24   A    
C34   O26   A    
C46   C47   S    
C32   O9    A    
C43   C44   S    
C25   C30   A    
C7    C9    T    
C11   C17   A    
C31   O7    A    
C1    C10   S    
C4    C5    S    
C3    C5    T    
C15   O27   S    
Cr2   O20   S    
Cr4   O6    S    
Cr2   O21   S    
C2    C41   T    
C11   C13   A    
C27   C37   S    
C6    C23   S    
Cr3   O4    S    
C47   H18   S    
Cr3   O23   S    
C17   C38   S    
C32   C40   S    
Cr6   O10   S    
O29   H15   S    
C29   H4    S    
C16   H6    S    
Cr5   O15   S    
Cr4   O13   S    
C36   O16   A    
C38   O2    A    
C44   H12   S    
Cr1   O5    S    
C25   O30   S    
C8    C10   T    
C27   C28   A    
Cr1   O25   S    
C14   C15   A    
C34   O25   A    
C37   O13   A    
Cr5   O8    S    
C33   O11   A    
C21   C45   S    
