data_mof_unit_26690.cif
_audit_creation_date              2013-03-05T16:44:40-0500
_audit_creation_method            fapswitch 2.2
_symmetry_space_group_name_H-M    P1
_symmetry_Int_Tables_number       1
_space_group_crystal_system       triclinic
_cell_length_a                    27.583348
_cell_length_b                    10.716136
_cell_length_c                    9.862691
_cell_angle_alpha                 89.647031
_cell_angle_beta                  89.718429
_cell_angle_gamma                 90.740511
_cell_volume                      2914.94719133

loop_
_atom_site_label
_atom_site_type_symbol
_atom_site_description
_atom_site_fract_x
_atom_site_fract_y
_atom_site_fract_z
_atom_type_partial_charge
O1    O     O_R   0.500010 0.316790 0.614690 -0.608769
O2    O     O_R   0.500000 0.316760 0.385350 -0.644504
C1    C     C_R   0.502309 0.260084 0.499888 0.880480
O3    O     O_R   0.428760 0.500040 0.614660 -0.587009
O4    O     O_R   0.428750 0.500000 0.385310 -0.618318
C2    C     C_R   0.406078 0.499059 0.500381 0.908170
Zn1   Zn    Zn3+2 0.500000 0.500020 0.653130 0.974619
Zn2   Zn    Zn3+2 0.500000 0.499980 0.346870 0.968213
O5    O     O_R   0.500000 0.683240 0.614650 -0.606096
O6    O     O_R   0.499990 0.683210 0.385310 -0.608973
O7    O     O_R   0.571250 0.500000 0.614690 -0.612506
O8    O     O_R   0.571240 0.499960 0.385340 -0.569588
C3    C     C_R   0.500879 0.739839 0.499768 0.927648
C4    C     C_R   0.594326 0.500618 0.500042 0.913998
C5    C     C_R   0.176178 0.368387 0.465733 0.549124
O9    O     O_2   0.199277 0.293194 0.377854 -0.551649
N1    N     N_R   0.201979 0.452852 0.539656 -0.346868
C6    C     C_R   0.180512 0.530875 0.630281 0.551404
C7    C     C_R   0.273317 0.542676 0.424182 0.109917
C8    C     C_R   0.324148 0.555987 0.414380 0.022451
C9    C     C_R   0.332579 0.404577 0.598072 -0.264126
C10   C     C_R   0.282716 0.391729 0.607300 -0.156445
C11   C     C_R   0.253194 0.460888 0.521628 0.313229
C12   C     C_R   0.102527 0.440065 0.572335 -0.091407
C13   C     C_R   0.125909 0.360335 0.480347 -0.029578
C14   C     C_R   0.098559 0.279234 0.399566 -0.175291
C15   C     C_R   0.129877 0.527089 0.649345 -0.084768
C16   C     C_R   0.353503 0.486853 0.503023 -0.043613
H1    H     H_    0.354968 0.349825 0.665181 0.166993
H2    H     H_    0.266814 0.329217 0.682410 0.155896
H3    H     H_    0.115901 0.224041 0.321891 0.194716
C17   C     C_R   0.647865 0.498741 0.502636 -0.079670
C18   C     C_R   0.974128 0.331933 0.539338 -0.039965
C19   C     C_R   0.976521 0.536793 0.646782 0.043995
C20   C     C_R   0.949901 0.437689 0.587481 0.043272
C21   C     C_R   0.947225 0.220793 0.519549 0.138759
C22   C     C_R   0.896581 0.225297 0.504452 0.200511
C23   C     C_R   0.872100 0.339192 0.530099 -0.130160
C24   C     C_R   0.899126 0.444458 0.575429 -0.116067
C25   C     C_R   0.875711 0.557740 0.606092 -0.075381
C26   C     C_R   0.826815 0.568679 0.571407 0.536679
N2    N     N_R   0.800551 0.465943 0.533702 -0.341838
C27   C     C_R   0.821374 0.351637 0.519812 0.591394
C28   C     C_R   0.725668 0.447759 0.397935 0.117485
C29   C     C_R   0.674703 0.454872 0.389964 0.008656
C30   C     C_R   0.672542 0.535372 0.622055 0.055283
C31   C     C_R   0.722379 0.519622 0.630539 -0.177596
C32   C     C_R   0.749006 0.477169 0.520013 0.260763
O10   O     O_2   0.792495 0.251384 0.499808 -0.514812
C33   C     C_R   0.024619 0.341750 0.514792 0.084361
C34   C     C_R   0.051527 0.434874 0.584077 0.045780
C35   C     C_R   0.027347 0.526467 0.659976 0.032414
C36   C     C_R   0.048236 0.271757 0.413065 0.097374
O11   O     O_2   0.208517 0.612351 0.698924 -0.520837
C37   C     C_R   0.105271 0.607060 0.739835 0.237753
C38   C     C_R   0.951745 0.644036 0.687883 -0.231752
C39   C     C_R   0.902211 0.655701 0.668091 0.245711
O12   O     O_2   0.805405 0.680968 0.571945 -0.500300
C40   C     C_R   0.054828 0.607132 0.742198 -0.237496
H4    H     H_    0.970510 0.723276 0.730779 0.179048
H5    H     H_    0.741132 0.542921 0.723472 0.161160
H6    H     H_    0.037616 0.669508 0.812561 0.170667
C41   C     C_R   0.506953 0.062767 0.622062 0.018812
C42   C     C_R   0.510271 0.128736 0.499553 -0.159283
C43   C     C_R   0.522543 0.063424 0.379124 0.081953
C44   C     C_R   0.520532 0.934461 0.381083 -0.175116
H7    H     H_    0.526136 0.885270 0.287180 0.205566
C45   C     C_R   0.507702 0.871024 0.500315 -0.144004
C46   C     C_R   0.504969 0.935487 0.621539 0.033847
C47   C     C_3   0.470678 0.925163 0.739802 -0.132898
C48   C     C_3   0.473329 0.068994 0.743323 0.177573
H8    H     H_    0.487240 0.877495 0.828407 0.173498
C49   C     C_R   0.470360 0.419546 0.072817 0.074632
N3    N     N_R   0.499670 0.499140 0.142800 -0.127202
C50   C     C_R   0.532580 0.570661 0.068925 0.194517
C51   C     C_R   0.532453 0.569793 0.925672 -0.152136
H9    H     H_    0.557703 0.628345 0.869257 0.174334
N4    N     N_R   0.499670 0.499180 0.857150 -0.114701
C52   C     C_R   0.469454 0.422241 0.930211 0.149665
C53   C     C_3   0.415090 0.419463 0.928309 -0.128211
C54   C     C_3   0.416311 0.412403 0.082851 -0.169985
H10   H     H_    0.399823 0.335510 0.877761 0.178345
H11   H     H_    0.399906 0.492975 0.135434 0.198867
N5    N     N_3   0.241640 0.612592 0.338485 -0.436024
H12   H     H_    0.248433 0.707685 0.353269 0.200685
H13   H     H_    0.249347 0.591046 0.237522 0.204423
I1    I     I_    0.137987 0.734542 0.878801 -0.250782
N6    N     N_3   0.647080 0.589709 0.734442 -0.422332
H14   H     H_    0.670035 0.602803 0.817359 0.196910
H15   H     H_    0.635974 0.678397 0.703805 0.195901
I2    I     I_    0.871960 0.820231 0.753335 -0.181124
N7    N     N_3   0.535139 0.122938 0.252848 -0.443785
H16   H     H_    0.562569 0.189357 0.269090 0.216352
H17   H     H_    0.504485 0.164586 0.211449 0.209905
N8    N     N_3   0.423644 0.869598 0.703256 -0.431236
H18   H     H_    0.398600 0.889352 0.779746 0.194567
H19   H     H_    0.410918 0.905826 0.611644 0.188718
N9    N     N_3   0.428046 0.135293 0.716905 -0.444395
H20   H     H_    0.402456 0.109295 0.790647 0.183223
H21   H     H_    0.414145 0.112870 0.621600 0.166664
N10   N     N_3   0.497580 0.116082 0.865124 -0.458155
H22   H     H_    0.529227 0.065816 0.882977 0.182350
H23   H     H_    0.508881 0.207880 0.846389 0.216637
I3    I     I_    0.584685 0.691345 0.156503 -0.389156
N11   N     N_3   0.394496 0.536181 0.877832 -0.394532
H24   H     H_    0.357296 0.533817 0.898719 0.200597
H25   H     H_    0.409318 0.612560 0.929610 0.191041
N12   N     N_3   0.398872 0.291856 0.135785 -0.437254
H26   H     H_    0.417922 0.219037 0.090525 0.192579
H27   H     H_    0.406542 0.288559 0.239438 0.217685
N13   N     N_3   0.650096 0.413551 0.270112 -0.421447
H28   H     H_    0.663335 0.464292 0.186643 0.208820
H29   H     H_    0.657437 0.319103 0.255580 0.184709
N14   N     N_3   0.754203 0.411477 0.283078 -0.424046
H30   H     H_    0.742953 0.322628 0.252247 0.216333
H31   H     H_    0.748257 0.474670 0.203959 0.188375
I4    I     I_    0.861918 0.060315 0.425454 -0.111624
I5    I     I_    0.980798 0.044815 0.562689 -0.292546
N15   N     N_3   0.021016 0.206270 0.311671 -0.428275
H32   H     H_    0.027144 0.251305 0.218690 0.199617
H33   H     H_    0.034755 0.116125 0.303285 0.222537
N16   N     N_3   0.346010 0.642542 0.320083 -0.460934
H34   H     H_    0.334088 0.732191 0.342964 0.187946
H35   H     H_    0.334424 0.620077 0.222422 0.180459

loop_
_geom_bond_atom_site_label_1
_geom_bond_atom_site_label_2
_geom_bond_distance
_ccdc_geom_bond_type
C43   N7    1.434843 S    
C44   C45   1.396443 A    
C26   N2    1.364642 A    
C19   C38   1.405493 A    
N10   H22   1.046742 S    
C37   C40   1.391472 A    
C17   C29   1.418178 A    
N6    H15   1.045614 S    
C20   C24   1.408942 A    
N8    H18   1.044862 S    
C12   C15   1.418390 A    
N14   H30   1.045061 S    
C1    C42   1.427391 S    
C38   C39   1.388267 A    
Zn1   O7    1.999720 S    
N11   H25   1.047097 S    
N1    C11   1.424399 S    
C21   C22   1.407009 A    
C51   N4    1.357068 A    
C26   O12   1.347264 S    
C23   C24   1.419806 A    
O7    C4    1.294788 A    
C15   C37   1.417771 A    
C5    C13   1.394867 A    
C5    O9    1.350149 S    
C18   C21   1.410194 A    
N12   H26   1.047320 S    
C5    N1    1.361576 A    
C19   C20   1.414504 A    
C49   N3    1.361057 A    
C49   C54   1.494569 S    
O5    C3    1.281845 A    
N5    H12   1.044971 S    
C2    C16   1.454480 S    
C41   C46   1.364387 A    
C45   C46   1.386709 A    
C47   C48   1.542710 S    
C21   I5    2.152671 S    
C8    N16   1.434687 S    
C12   C34   1.411290 A    
C44   H7    1.079911 S    
C48   N10   1.466904 S    
C54   N12   1.464876 S    
C28   N14   1.434738 S    
C14   H3    1.083890 S    
N10   H23   1.043217 S    
C9    C10   1.382995 A    
O3    Zn1   2.003165 S    
N7    H17   1.044866 S    
C54   H11   1.110193 S    
C33   C34   1.417026 A    
C30   N6    1.439385 S    
N15   H33   1.045834 S    
C48   N9    1.468544 S    
C33   C36   1.417401 A    
N3    C50   1.382371 A    
C34   C35   1.410551 A    
C12   C13   1.409645 A    
C53   H10   1.110433 S    
C24   C25   1.416018 A    
N4    C52   1.364797 A    
C27   O10   1.345242 S    
C8    C16   1.408288 A    
C18   C33   1.414883 A    
C9    H1    1.082738 S    
C53   N11   1.465751 S    
C52   C53   1.499664 S    
O1    C1    1.289980 A    
C7    C11   1.404189 A    
C50   C51   1.412971 A    
C22   C23   1.425837 A    
C35   C40   1.406122 A    
C31   C32   1.393398 A    
Zn2   O8    2.003165 S    
Zn2   N3    2.012820 S    
N1    C6    1.365795 A    
C49   C52   1.406948 A    
N13   H29   1.045335 S    
N2    C32   1.435366 S    
C51   H9    1.081182 S    
C41   C48   1.512168 S    
Zn1   N4    2.012126 S    
O3    C2    1.291823 A    
C25   C26   1.399273 A    
C9    C16   1.400215 A    
O8    C4    1.300921 A    
N9    H20   1.045085 S    
N9    H21   1.045102 S    
C50   I3    2.112386 S    
N2    C27   1.366956 A    
N16   H35   1.044863 S    
C7    N5    1.433724 S    
C14   C36   1.395034 A    
C28   C29   1.411398 A    
Zn1   O5    1.997455 S    
C30   C31   1.390029 A    
C40   H6    1.079112 S    
C25   C39   1.415148 A    
C39   I2    2.135673 S    
N13   H28   1.045522 S    
O1    Zn1   2.002080 S    
C17   C30   1.418184 A    
O2    Zn2   1.997456 S    
C6    C15   1.408394 A    
C4    C17   1.477532 S    
C53   C54   1.526175 S    
O6    C3    1.285119 A    
C31   H5    1.083591 S    
O4    Zn2   1.999723 S    
N14   H31   1.044994 S    
N15   H32   1.045645 S    
C36   N15   1.434796 S    
N11   H24   1.045540 S    
C19   C35   1.414298 A    
C42   C43   1.423944 A    
C7    C8    1.410275 A    
O2    C1    1.281523 A    
C13   C14   1.398804 A    
C23   C27   1.411335 A    
C10   H2    1.083057 S    
C29   N13   1.435491 S    
O4    C2    1.293038 A    
N7    H16   1.045631 S    
C18   C20   1.406925 A    
N12   H27   1.045455 S    
C47   N8    1.467955 S    
C37   I1    2.135983 S    
C46   C47   1.500745 S    
C6    O11   1.346245 S    
C41   C42   1.398126 A    
C38   H4    1.078503 S    
C22   I4    2.151165 S    
N6    H14   1.045751 S    
Zn2   O6    2.002079 S    
C43   C44   1.382390 A    
C10   C11   1.393173 A    
N5    H13   1.045028 S    
C47   H8    1.112541 S    
N16   H34   1.045043 S    
C28   C32   1.403716 A    
N8    H19   1.045300 S    
C3    C45   1.415972 S    
