data_mof_unit_35990.cif
_audit_creation_date              2012-12-10T16:45:24-0500
_audit_creation_method            fapswitch 2.2
_symmetry_space_group_name_H-M    P1
_symmetry_Int_Tables_number       1
_space_group_crystal_system       triclinic
_cell_length_a                    7.426984
_cell_length_b                    8.836396
_cell_length_c                    15.821736
_cell_angle_alpha                 94.70938
_cell_angle_beta                  74.964337
_cell_angle_gamma                 103.447526
_cell_volume                      975.041629815

loop_
_atom_site_label
_atom_site_type_symbol
_atom_type_description
_atom_site_fract_x
_atom_site_fract_y
_atom_site_fract_z
_atom_type_partial_charge
C1    C     C_R   0.545271 0.799503 0.502047 0.816279
C2    C     C_R   0.454803 0.200494 0.497853 0.816268
C3    C     C_R   0.273885 0.418022 0.081102 -0.216767
C4    C     C_R   0.713957 0.624848 0.924729 -0.219763
C5    C     C_R   0.144018 0.382618 0.029427 -0.217753
C6    C     C_R   0.842894 0.663122 0.976794 -0.216342
C7    C     C_2   0.571483 0.966125 0.503037 -0.287015
C8    C     C_2   0.428724 0.033866 0.496675 -0.287442
C9    C     C_R   0.383914 0.488974 0.666342 0.804321
C10   C     C_R   0.616177 0.512071 0.333748 0.803815
C11   C     C_R   0.313466 0.475877 0.761753 -0.053575
C12   C     C_R   0.686718 0.533758 0.239001 -0.055319
C13   C     C_R   0.066908 0.380053 0.890164 -0.178350
C14   C     C_R   0.923572 0.657220 0.114554 -0.177557
C15   C     C_R   0.122759 0.408936 0.800842 -0.188497
C16   C     C_R   0.871897 0.616602 0.202189 -0.190256
C17   C     C_R   0.444995 0.521134 0.813433 -0.231430
C18   C     C_R   0.556927 0.486036 0.186735 -0.230697
C19   C     C_R   0.392109 0.495582 0.903941 0.082036
C20   C     C_R   0.602562 0.530326 0.099038 0.081639
C21   C     C_R   0.200468 0.419838 0.941432 0.147076
C22   C     C_R   0.790277 0.616406 0.063166 0.144097
C23   C     C_R   0.525290 0.538045 0.957340 0.059749
C24   C     C_R   0.466868 0.493982 0.046709 0.062856
Cu1   Cu    Cu3+1 0.322120 0.483240 0.490330 0.994842
Cu2   Cu    Cu3+1 0.677880 0.516760 0.509670 0.994093
H1    H     H_    0.997614 0.325077 0.058792 0.158131
H2    H     H_    0.985619 0.730035 0.948979 0.156750
H3    H     H_    0.419592 0.416192 0.217259 0.151868
H4    H     H_    0.590234 0.570807 0.780395 0.154858
H5    H     H_    0.974062 0.654656 0.241733 0.167120
H6    H     H_    0.018934 0.373459 0.761962 0.165887
H7    H     H_    0.919670 0.324111 0.919017 0.149852
H8    H     H_    0.067062 0.723085 0.087236 0.150754
H9    H     H_    0.215654 0.386364 0.148514 0.151933
H10   H     H_    0.766770 0.669106 0.859485 0.152791
H11   H     H_    0.001727 0.609996 0.571119 0.249536
H12   H     H_    0.998274 0.390008 0.428880 0.249771
N1    N     N_2   0.945180 0.542040 0.524240 -0.216203
N2    N     N_2   0.054820 0.457960 0.475760 -0.216118
O1    O     O_R   0.384450 0.714270 0.493720 -0.573161
O2    O     O_R   0.615550 0.285730 0.506280 -0.573081
O3    O     O_R   0.684880 0.742590 0.510050 -0.565850
O4    O     O_R   0.315120 0.257410 0.489950 -0.565950
O5    O     O_R   0.265540 0.477900 0.617090 -0.601479
O6    O     O_R   0.734460 0.522100 0.382910 -0.601944
O7    O     O_R   0.565970 0.506210 0.633420 -0.574396
O8    O     O_R   0.434030 0.493790 0.366580 -0.572333
C25   C     C_2   0.761784 0.054331 0.512601 0.957365
O9    O     O_2   0.897270 0.075200 0.448362 -0.601600
O10   O     O_R   0.784035 0.113170 0.594920 -0.731984
H13   H     H_    0.918885 0.173675 0.592990 0.348896
C26   C     C_2   0.238543 0.945650 0.486947 0.957686
O11   O     O_2   0.102844 0.924788 0.551093 -0.601155
O12   O     O_R   0.216657 0.886755 0.404585 -0.732321
H14   H     H_    0.081839 0.826288 0.406404 0.348068

loop_
_geom_bond_atom_site_label_1
_geom_bond_atom_site_label_2
_ccdc_geom_bond_type
C8    C26   S    
C14   H8    S    
C19   C23   A    
C23   C24   A    
C4    H10   S    
C9    O5    A    
C6    H2    S    
C3    H9    S    
O12   H14   S    
C14   C22   A    
C26   O12   S    
C3    C5    A    
C13   C21   A    
C15   H6    S    
H11   N1    S    
C18   H3    S    
C1    C7    S    
C26   O11   D    
C16   H5    S    
C13   H7    S    
C17   H4    S    
C9    C11   S    
Cu1   O8    S    
C7    C25   S    
C3    C24   A    
C10   C12   S    
Cu2   O7    S    
C2    O2    A    
Cu1   O4    S    
C1    O1    A    
H12   N2    S    
C20   C22   A    
Cu2   O3    S    
C9    O7    A    
C18   C20   A    
C13   C15   A    
Cu1   N2    S    
C10   O8    A    
C14   C16   A    
Cu2   N1    S    
Cu2   O6    S    
Cu1   O1    S    
O10   H13   S    
C6    C22   A    
C17   C19   A    
Cu1   O5    S    
C10   O6    A    
C7    C8    D    
C5    C21   A    
Cu2   O2    S    
C4    C6    A    
C25   O9    D    
C12   C18   A    
N1    N2    D    
C4    C23   A    
C20   C24   A    
C11   C17   A    
C19   C21   A    
Cu1   Cu2   S    
C5    H1    S    
C11   C15   A    
C1    O3    A    
C2    C8    S    
C12   C16   A    
C2    O4    A    
C25   O10   S    
