data_mof_unit_41316.cif
_audit_creation_date              2013-03-05T16:02:24-0500
_audit_creation_method            fapswitch 2.2
_symmetry_space_group_name_H-M    P1
_symmetry_Int_Tables_number       1
_space_group_crystal_system       triclinic
_cell_length_a                    14.950673
_cell_length_b                    14.137665
_cell_length_c                    10.641558
_cell_angle_alpha                 89.729464
_cell_angle_beta                  89.528137
_cell_angle_gamma                 89.974993
_cell_volume                      2249.1791145

loop_
_atom_site_label
_atom_site_type_symbol
_atom_site_description
_atom_site_fract_x
_atom_site_fract_y
_atom_site_fract_z
_atom_type_partial_charge
O1    O     O_R   0.367860 0.580280 0.500020 -0.613471
O2    O     O_R   0.367860 0.419720 0.500020 -0.621206
C1    C     C_R   0.326932 0.500233 0.495867 0.897899
O3    O     O_R   0.500000 0.580270 0.314790 -0.571656
O4    O     O_R   0.500000 0.419730 0.314790 -0.599433
C2    C     C_R   0.498396 0.499926 0.257594 0.885216
Zn1   Zn    Zn3+2 0.500020 0.607200 0.499990 1.007037
Zn2   Zn    Zn3+2 0.500020 0.392800 0.499990 0.985923
O5    O     O_R   0.632160 0.580270 0.499960 -0.604459
O6    O     O_R   0.632160 0.419730 0.499960 -0.604656
O7    O     O_R   0.500030 0.580270 0.685200 -0.627554
O8    O     O_R   0.500030 0.419730 0.685200 -0.634096
C3    C     C_R   0.672778 0.499539 0.502211 0.892165
C4    C     C_R   0.498442 0.499665 0.742104 0.824747
C5    C     C_3   0.419586 0.561674 0.071858 -0.346001
C6    C     C_3   0.483202 0.396811 0.071582 -0.371085
H1    H     H_    0.426422 0.635537 0.106315 0.230920
H2    H     H_    0.537714 0.349458 0.103907 0.240785
H3    H     H_    0.354460 0.533207 0.106434 0.218244
H4    H     H_    0.418742 0.367427 0.107723 0.191229
C7    C     C_3   0.420137 0.562383 0.927624 -0.414350
C8    C     C_3   0.482901 0.396702 0.928779 -0.388907
H5    H     H_    0.354702 0.536322 0.892447 0.167163
H6    H     H_    0.417998 0.368001 0.895159 0.182242
H7    H     H_    0.428628 0.636450 0.893487 0.214022
H8    H     H_    0.537082 0.348998 0.894351 0.205672
H9    H     H_    0.597866 0.611544 0.102262 0.237093
H10   H     H_    0.643928 0.494122 0.105858 0.174377
H11   H     H_    0.599794 0.610037 0.890030 0.196612
H12   H     H_    0.643665 0.491912 0.891516 0.180209
C9    C     C_3   0.587471 0.537800 0.070088 -0.378415
C10   C     C_3   0.497186 0.499173 0.120803 0.107055
C11   C     C_3   0.497260 0.498889 0.878297 0.160739
C12   C     C_3   0.587789 0.537009 0.926073 -0.400227
C13   C     C_R   0.811480 0.542784 0.402417 -0.255212
C14   C     C_R   0.768261 0.496624 0.500623 -0.082868
C15   C     C_R   0.814828 0.440861 0.587496 -0.034646
C16   C     C_R   0.908007 0.435485 0.577445 0.084195
C17   C     C_R   0.952791 0.488230 0.481733 0.055198
C18   C     C_R   0.904211 0.540951 0.392233 0.057658
C19   C     C_R   0.957601 0.379308 0.661060 -0.172042
C20   C     C_R   0.049835 0.377429 0.653169 -0.190690
C21   C     C_R   0.094099 0.433206 0.563966 0.139624
C22   C     C_R   0.046174 0.489021 0.477143 0.054649
C23   C     C_R   0.091750 0.547174 0.388591 -0.022226
C24   C     C_R   0.042962 0.589855 0.288892 -0.054559
C25   C     C_R   0.948789 0.588398 0.292953 -0.095181
C26   C     C_R   0.186111 0.434722 0.562172 -0.228805
C27   C     C_R   0.231077 0.499569 0.486424 -0.147108
C28   C     C_R   0.184585 0.560940 0.404520 -0.062867
H13   H     H_    0.771301 0.578797 0.332848 0.171193
H14   H     H_    0.925770 0.336958 0.733662 0.169269
H15   H     H_    0.086714 0.334560 0.719710 0.151700
H16   H     H_    0.223089 0.389690 0.626444 0.156098
C29   C     C_R   0.568545 0.799994 0.444401 0.064757
C30   C     C_R   0.568535 0.200743 0.443896 0.050969
N1    N     N_R   0.500070 0.750030 0.500050 -0.147515
N2    N     N_R   0.500070 0.249970 0.500050 -0.149593
C31   C     C_R   0.430673 0.797287 0.556143 -0.026095
C32   C     C_R   0.430768 0.202410 0.556430 -0.031016
C33   C     C_R   0.427693 0.898303 0.560345 -0.070708
C34   C     C_R   0.426512 0.101452 0.557487 -0.064372
C35   C     C_R   0.497222 0.949686 0.501301 0.084620
C36   C     C_R   0.496815 0.050585 0.500224 0.088525
C37   C     C_R   0.567754 0.900122 0.442235 -0.033492
C38   C     C_R   0.567602 0.100655 0.441544 -0.036475
C39   C     C_R   0.356469 0.949040 0.618495 -0.098340
C40   C     C_R   0.355339 0.050273 0.615738 -0.086846
C41   C     C_R   0.635600 0.049611 0.380119 -0.156535
C42   C     C_R   0.635495 0.951745 0.380023 -0.144300
H17   H     H_    0.377551 0.755324 0.597105 0.173255
H18   H     H_    0.379540 0.244093 0.602038 0.164288
H19   H     H_    0.689632 0.084604 0.330157 0.169910
H20   H     H_    0.689308 0.917335 0.329340 0.173019
C43   C     C_2   0.229227 0.646239 0.350999 0.935497
O9    O     O_2   0.296289 0.638598 0.285582 -0.640593
O10   O     O_R   0.193009 0.735613 0.374911 -0.762807
H21   H     H_    0.228942 0.788394 0.334048 0.360830
C44   C     C_2   0.089163 0.624968 0.173153 0.931489
O11   O     O_2   0.071630 0.703184 0.130337 -0.573187
O12   O     O_R   0.152811 0.567791 0.113505 -0.810590
H22   H     H_    0.180221 0.599218 0.036497 0.346324
C45   C     C_1   0.898051 0.632749 0.192650 0.215617
N3    N     N_1   0.857502 0.667958 0.112894 -0.152529
C46   C     C_2   0.645910 0.750660 0.389345 0.936581
O13   O     O_2   0.637867 0.705844 0.292468 -0.657729
O14   O     O_R   0.730020 0.762600 0.443599 -0.792464
H23   H     H_    0.780395 0.736942 0.389559 0.343125
C47   C     C_2   0.646320 0.251426 0.390595 0.956973
O15   O     O_2   0.718263 0.247233 0.444263 -0.623976
O16   O     O_R   0.639128 0.299887 0.276751 -0.819439
H24   H     H_    0.697250 0.331342 0.250116 0.330978
C48   C     C_2   0.282026 0.896641 0.680545 0.957898
O17   O     O_2   0.204964 0.909759 0.646958 -0.559133
O18   O     O_R   0.300261 0.833110 0.778141 -0.805030
H25   H     H_    0.244252 0.801660 0.812716 0.358503
C49   C     C_2   0.279692 0.102171 0.674907 0.929470
O19   O     O_2   0.260923 0.088552 0.785588 -0.593199
O20   O     O_R   0.229344 0.165567 0.603210 -0.789545
H26   H     H_    0.179273 0.195921 0.653544 0.341879
C50   C     C_1   0.766751 0.390398 0.686430 0.198213
N4    N     N_1   0.728511 0.349822 0.764809 -0.204423

loop_
_geom_bond_atom_site_label_1
_geom_bond_atom_site_label_2
_geom_bond_distance
_ccdc_geom_bond_type
C18   C25   1.411536 A    
C2    C10   1.456022 S    
O14   H23   1.011983 S    
C35   C37   1.410897 A    
C48   O17   1.222918 D    
C19   C20   1.381074 A    
O18   H25   1.013876 S    
C43   O9    1.220920 D    
C4    C11   1.449262 S    
O12   H22   1.013950 S    
C1    C27   1.437476 S    
C5    C10   1.550089 S    
C46   O13   1.219427 D    
C5    H3    1.112846 S    
C50   N4    1.157379 T    
C14   C15   1.401466 A    
C20   H15   1.083885 S    
O4    C2    1.284596 A    
O7    C4    1.288072 A    
N1    C31   1.368254 A    
C38   C41   1.405137 A    
C7    C11   1.550606 S    
C32   H18   1.079633 S    
N2    C32   1.368268 A    
C37   C42   1.407735 A    
C32   C34   1.428751 A    
C33   C35   1.410199 A    
O5    C3    1.292827 A    
C40   C49   1.485189 S    
C34   C36   1.409328 A    
C29   C37   1.415704 A    
C9    C10   1.548336 S    
C42   H20   1.081576 S    
C41   H19   1.082018 S    
C25   C45   1.454127 S    
C47   O16   1.393875 S    
C21   C26   1.375790 A    
C19   H14   1.082443 S    
C6    H4    1.114444 S    
Zn2   N2    2.019281 S    
C48   O18   1.398333 S    
O3    Zn1   2.009023 S    
C49   O20   1.398018 S    
C49   O19   1.222920 D    
C46   O14   1.398625 S    
C16   C17   1.422594 A    
C31   C33   1.429707 A    
H12   C12   1.111880 S    
H9    C9    1.110274 S    
C39   C40   1.431451 A    
C3    C14   1.428076 S    
O3    C2    1.291533 A    
C17   C18   1.412225 A    
C44   O12   1.398602 S    
C23   C24   1.424117 A    
H11   C12   1.113809 S    
C35   C36   1.426475 A    
O1    C1    1.287864 A    
C13   C14   1.385044 A    
C36   C38   1.413026 A    
C29   C46   1.469546 S    
C26   H16   1.086537 S    
C21   C22   1.411815 A    
C15   C16   1.398361 A    
C33   C39   1.422676 A    
Zn1   O7    2.005595 S    
C45   N3    1.157523 T    
Zn2   O8    2.009125 S    
C11   C12   1.547705 S    
C9    C12   1.532610 S    
C43   O10   1.398087 S    
C16   C19   1.405687 A    
Zn2   O6    2.012093 S    
C30   C47   1.474311 S    
O8    C4    1.284744 A    
C29   N1    1.372738 A    
C13   H13   1.082414 S    
C8    H6    1.114287 S    
C20   C21   1.394244 A    
O16   H24   1.014043 S    
C22   C23   1.418027 A    
C5    H1    1.113414 S    
C8    C11   1.553334 S    
C7    H7    1.113707 S    
C24   C25   1.408405 A    
C26   C27   1.388103 A    
C6    C8    1.519693 S    
O1    Zn1   2.012362 S    
H10   C9    1.114129 S    
O2    Zn2   2.012036 S    
O6    C3    1.281995 A    
O4    Zn2   2.005492 S    
C17   C22   1.396645 A    
C6    C10   1.556144 S    
O20   H26   1.013285 S    
C34   C40   1.423247 A    
C7    H5    1.113825 S    
C13   C18   1.389974 A    
C28   C43   1.487296 S    
C15   C50   1.454281 S    
C24   C44   1.490301 S    
C23   C28   1.413303 A    
C30   C38   1.415430 A    
C30   N2    1.372010 A    
O2    C1    1.292824 A    
C41   C42   1.383611 A    
C44   O11   1.223127 D    
Zn1   O5    2.011767 S    
C5    C7    1.534818 S    
C6    H2    1.110261 S    
C27   C28   1.413482 A    
C8    H8    1.114542 S    
C39   C48   1.485768 S    
O10   H21   1.013884 S    
C47   O15   1.223258 D    
Zn1   N1    2.019286 S    
C31   H17   1.079339 S    
