data_mof_unit_64896.cif
_audit_creation_date              2012-12-10T18:12:38-0500
_audit_creation_method            fapswitch 2.2
_symmetry_space_group_name_H-M    P1
_symmetry_Int_Tables_number       1
_space_group_crystal_system       triclinic
_cell_length_a                    39.084906
_cell_length_b                    32.232849
_cell_length_c                    21.955849
_cell_angle_alpha                 90.528464
_cell_angle_beta                  124.462981
_cell_angle_gamma                 89.809833
_cell_volume                      22804.7232447

loop_
_atom_site_label
_atom_site_type_symbol
_atom_type_description
_atom_site_fract_x
_atom_site_fract_y
_atom_site_fract_z
_atom_type_partial_charge
C1    C     C_R   0.420401 0.499958 0.420377 0.824308
C2    C     C_R   0.579599 0.500041 0.579623 0.824391
C3    C     C_R   0.920401 0.999958 0.420376 0.823888
C4    C     C_R   0.079599 0.000041 0.579624 0.824136
C5    C     C_R   0.271906 0.526984 0.310698 -0.173755
C6    C     C_R   0.728235 0.525614 0.687850 -0.172942
C7    C     C_R   0.771907 0.026992 0.310684 -0.173712
C8    C     C_R   0.228249 0.027243 0.690234 -0.172938
C9    C     C_R   0.293481 0.499827 0.293782 0.152900
C10   C     C_R   0.706520 0.500128 0.706286 0.153281
C11   C     C_R   0.793481 0.999826 0.293779 0.152922
C12   C     C_R   0.206519 0.000128 0.706291 0.153149
C13   C     C_R   0.271435 0.472625 0.233207 -0.174376
C14   C     C_R   0.728422 0.474549 0.768382 -0.175105
C15   C     C_R   0.771435 0.972616 0.233217 -0.174446
C16   C     C_R   0.228410 0.972917 0.765998 -0.175099
C17   C     C_1   0.161525 0.499889 0.162003 -0.065143
C18   C     C_1   0.838475 0.500003 0.838017 -0.065129
C19   C     C_1   0.661525 0.999888 0.162003 -0.065164
C20   C     C_1   0.338474 1.000000 0.838013 -0.065146
C21   C     C_1   0.338307 0.499831 0.338421 -0.066445
C22   C     C_1   0.661693 0.500139 0.661611 -0.066325
C23   C     C_1   0.838307 0.999831 0.338418 -0.066491
C24   C     C_1   0.161693 0.000139 0.661616 -0.066419
C25   C     C_1   0.375756 0.499873 0.375819 -0.169318
C26   C     C_1   0.624244 0.500122 0.624194 -0.169355
C27   C     C_1   0.875756 0.999873 0.375817 -0.169346
C28   C     C_1   0.124244 0.000122 0.624198 -0.169351
C29   C     C_1   0.124100 0.499933 0.124419 -0.164506
C30   C     C_1   0.875900 0.499985 0.875586 -0.164479
C31   C     C_1   0.624100 0.999933 0.124419 -0.164520
C32   C     C_1   0.375900 0.999984 0.875585 -0.164501
C33   C     C_R   0.499960 0.420398 0.999973 0.830667
C34   C     C_R   0.999959 0.920398 0.999973 0.830514
C35   C     C_R   0.499810 0.498571 0.882065 0.853074
C36   C     C_R   0.500194 0.501508 0.117949 0.852493
C37   C     C_R   0.999811 0.998567 0.882069 0.852891
C38   C     C_R   0.000189 0.001400 0.117933 0.853222
C39   C     C_R   0.500041 0.579609 0.000029 0.830304
C40   C     C_R   0.000041 0.079609 0.000028 0.830521
C41   C     C_R   0.500477 0.500294 0.618025 0.842852
C42   C     C_R   0.499477 0.499679 0.381898 0.843284
C43   C     C_R   0.000460 0.000293 0.617988 0.842720
C44   C     C_R   0.999504 0.999696 0.381969 0.843217
C45   C     C_R   0.999998 0.420596 0.999755 0.819980
C46   C     C_R   0.499998 0.920596 0.999755 0.819898
C47   C     C_R   0.079415 0.499983 0.079540 0.820768
C48   C     C_R   0.920585 0.499980 0.920460 0.820845
C49   C     C_R   0.579415 0.999983 0.079540 0.820710
C50   C     C_R   0.420585 0.999980 0.920460 0.820705
C51   C     C_R   0.000003 0.579490 0.000246 0.821032
C52   C     C_R   0.500003 0.079490 0.000246 0.820914
C53   C     C_R   0.974113 0.728460 0.014792 -0.173119
C54   C     C_R   0.025855 0.727992 0.986788 -0.173106
C55   C     C_R   0.472693 0.228440 0.011287 -0.173193
C56   C     C_R   0.527277 0.228013 0.990320 -0.173126
C57   C     C_R   0.000005 0.706368 0.000895 0.151967
C58   C     C_R   0.500007 0.206368 0.000910 0.152095
C59   C     C_R   0.527229 0.271454 0.990093 -0.173302
C60   C     C_R   0.472644 0.271886 0.011063 -0.172852
C61   C     C_R   0.025805 0.771434 0.986564 -0.173308
C62   C     C_R   0.974063 0.771907 0.014570 -0.172843
C63   C     C_R   0.499907 0.293528 0.000446 0.152471
C64   C     C_R   0.999906 0.793528 0.000438 0.152533
C65   C     C_1   0.999994 0.661590 0.000911 -0.065099
C66   C     C_1   0.499995 0.161590 0.000916 -0.065102
C67   C     C_1   0.499868 0.338304 0.000204 -0.065046
C68   C     C_1   0.999867 0.838304 0.000202 -0.064978
C69   C     C_1   0.499880 0.375771 0.000049 -0.167776
C70   C     C_1   0.999880 0.875771 0.000049 -0.167628
C71   C     C_2   0.532348 0.486782 0.815223 -0.149203
C72   C     C_2   0.467901 0.514787 0.184977 -0.149173
C73   C     C_2   0.032444 0.986957 0.815332 -0.148688
C74   C     C_2   0.967663 0.012863 0.184791 -0.149396
C75   C     C_1   0.999995 0.624121 0.000738 -0.164706
C76   C     C_1   0.499996 0.124121 0.000740 -0.164712
C77   C     C_R   0.973490 0.271447 0.933583 -0.173209
C78   C     C_R   0.026914 0.272199 0.065092 -0.172965
C79   C     C_R   0.472905 0.771451 0.933872 -0.173273
C80   C     C_R   0.527496 0.772194 0.064793 -0.172982
C81   C     C_R   0.000191 0.293688 0.999257 0.151875
C82   C     C_R   0.500190 0.793688 0.999251 0.151940
C83   C     C_R   0.527506 0.728746 0.064967 -0.172883
C84   C     C_R   0.472915 0.728001 0.934046 -0.173251
C85   C     C_R   0.026924 0.228751 0.065265 -0.172846
C86   C     C_R   0.973500 0.227995 0.933756 -0.173207
C87   C     C_R   0.500207 0.706508 0.999600 0.152343
C88   C     C_R   0.000208 0.206509 0.999603 0.152370
C89   C     C_1   0.000105 0.338477 0.999172 -0.064967
C90   C     C_1   0.500104 0.838477 0.999169 -0.064997
C91   C     C_1   0.500175 0.661721 0.999806 -0.065014
C92   C     C_1   0.000176 0.161721 0.999806 -0.064900
C93   C     C_1   0.500129 0.624247 0.999948 -0.167795
C94   C     C_1   0.000129 0.124247 0.999947 -0.167717
C95   C     C_1   0.000046 0.375953 0.999300 -0.164388
C96   C     C_1   0.500045 0.875953 0.999299 -0.164406
C97   C     C_2   0.498486 0.494693 0.814542 -0.317282
C98   C     C_2   0.501534 0.505545 0.185544 -0.317183
C99   C     C_2   0.998520 0.994657 0.814559 -0.317034
C100  C     C_2   0.001526 0.005201 0.185448 -0.318055
C101  C     C_2   0.530286 0.482808 0.746175 -0.150143
C102  C     C_2   0.470200 0.518966 0.254310 -0.148032
C103  C     C_2   0.030459 0.982987 0.746317 -0.149530
C104  C     C_2   0.969684 0.016773 0.253798 -0.152209
C105  C     C_2   0.500332 0.501772 0.683857 -0.291290
C106  C     C_2   0.499341 0.498089 0.315699 -0.292856
C107  C     C_2   0.000224 0.001759 0.683770 -0.290069
C108  C     C_2   0.999671 0.998202 0.316162 -0.294127
C109  C     C_R   0.227936 0.472654 0.189864 -0.173143
C110  C     C_R   0.771921 0.474521 0.811713 -0.172974
C111  C     C_R   0.727935 0.972646 0.189874 -0.173125
C112  C     C_R   0.271908 0.972888 0.809326 -0.173060
C113  C     C_R   0.206365 0.499819 0.206765 0.152459
C114  C     C_R   0.793634 0.500007 0.793285 0.152347
C115  C     C_R   0.706365 0.999819 0.206764 0.152468
C116  C     C_R   0.293635 0.000003 0.793277 0.152490
C117  C     C_R   0.228406 0.527015 0.267353 -0.174025
C118  C     C_R   0.771737 0.525588 0.731186 -0.173992
C119  C     C_R   0.728406 0.027023 0.267339 -0.174058
C120  C     C_R   0.271749 0.027215 0.733566 -0.174022
Cu1   Cu    Cu3+1 0.500000 0.541020 0.500000 0.960302
Cu2   Cu    Cu3+1 0.000000 0.041020 0.500000 0.960534
Cu3   Cu    Cu3+1 0.500000 0.458980 0.500000 0.960443
Cu4   Cu    Cu3+1 0.000000 0.958980 0.500000 0.960508
Cu5   Cu    Cu3+1 0.541020 0.500000 0.040980 0.956227
Cu6   Cu    Cu3+1 0.458980 0.500000 0.959020 0.956325
Cu7   Cu    Cu3+1 0.041020 0.000000 0.040980 0.956434
Cu8   Cu    Cu3+1 0.958980 0.000000 0.959020 0.956357
Cu9   Cu    Cu3+1 0.000010 0.500040 0.061000 0.964576
Cu10  Cu    Cu3+1 0.999990 0.500040 0.939000 0.964559
Cu11  Cu    Cu3+1 0.500010 0.000040 0.061000 0.964729
Cu12  Cu    Cu3+1 0.499990 0.000040 0.939000 0.964740
H1    H     H_    0.562335 0.481874 0.867158 0.166353
H2    H     H_    0.437991 0.520752 0.133155 0.165709
H3    H     H_    0.062509 0.982238 0.867317 0.166186
H4    H     H_    0.937703 0.017589 0.132871 0.167356
H5    H     H_    0.953975 0.712126 0.025748 0.138804
H6    H     H_    0.046005 0.711294 0.975942 0.138565
H7    H     H_    0.451449 0.212090 0.019504 0.138679
H8    H     H_    0.548534 0.211331 0.982212 0.138464
H9    H     H_    0.451657 0.711196 0.883145 0.138183
H10   H     H_    0.548754 0.712524 0.116009 0.138721
H11   H     H_    0.952697 0.211186 0.882626 0.138183
H12   H     H_    0.047718 0.212533 0.116535 0.138712
H13   H     H_    0.467876 0.496339 0.762925 0.153861
H14   H     H_    0.532161 0.503051 0.237226 0.153870
H15   H     H_    0.967866 0.996128 0.762933 0.153628
H16   H     H_    0.032103 0.003665 0.237040 0.154062
H17   H     H_    0.555351 0.466303 0.748299 0.146334
H18   H     H_    0.445947 0.537191 0.252891 0.147725
H19   H     H_    0.055747 0.966718 0.748701 0.145619
H20   H     H_    0.944590 0.032916 0.251654 0.148443
H21   H     H_    0.477911 0.522553 0.682399 0.139850
H22   H     H_    0.520506 0.475504 0.315835 0.140515
H23   H     H_    0.977500 0.022302 0.681919 0.139050
H24   H     H_    0.022208 0.977888 0.317747 0.141563
H25   H     H_    0.287742 0.451477 0.219527 0.138590
H26   H     H_    0.712004 0.454698 0.783239 0.137128
H27   H     H_    0.787742 0.951463 0.219546 0.138530
H28   H     H_    0.211982 0.951798 0.779003 0.137266
H29   H     H_    0.211260 0.451490 0.143190 0.138575
H30   H     H_    0.788484 0.454615 0.859562 0.138316
H31   H     H_    0.711260 0.951475 0.143211 0.138565
H32   H     H_    0.288462 0.951712 0.855317 0.138196
H33   H     H_    0.212100 0.548176 0.281011 0.138603
H34   H     H_    0.788156 0.545443 0.716339 0.138992
H35   H     H_    0.712100 0.048190 0.280988 0.138590
H36   H     H_    0.288178 0.048339 0.720573 0.138859
H37   H     H_    0.288584 0.548161 0.357351 0.137702
H38   H     H_    0.711670 0.545523 0.640006 0.138322
H39   H     H_    0.788584 0.048175 0.357328 0.137705
H40   H     H_    0.211692 0.048422 0.644249 0.138425
H41   H     H_    0.451375 0.288572 0.019134 0.138785
H42   H     H_    0.548459 0.287801 0.981838 0.138082
H43   H     H_    0.953902 0.788608 0.025383 0.138742
H44   H     H_    0.045929 0.787764 0.975572 0.138039
O1    O     O_R   0.440150 0.534640 0.440170 -0.583845
O2    O     O_R   0.559850 0.534640 0.559830 -0.578905
O3    O     O_R   0.940150 0.034640 0.440170 -0.583710
O4    O     O_R   0.059850 0.034640 0.559830 -0.579072
O5    O     O_R   0.059850 0.500040 0.111340 -0.579130
O6    O     O_R   0.940150 0.500040 0.888660 -0.579186
O7    O     O_R   0.559850 0.000040 0.111340 -0.579120
O8    O     O_R   0.440150 0.000040 0.888660 -0.579118
O9    O     O_R   0.059840 0.499970 0.008270 -0.578634
O10   O     O_R   0.940160 0.499970 0.991730 -0.578665
O11   O     O_R   0.559840 0.999970 0.008270 -0.578618
O12   O     O_R   0.440160 0.999970 0.991730 -0.578605
O13   O     O_R   0.000010 0.559880 0.051460 -0.579115
O14   O     O_R   0.999990 0.559880 0.948540 -0.578674
O15   O     O_R   0.500010 0.059880 0.051460 -0.579062
O16   O     O_R   0.499990 0.059880 0.948540 -0.578609
O17   O     O_R   0.440150 0.465360 0.440130 -0.578937
O18   O     O_R   0.559850 0.465360 0.559870 -0.583545
O19   O     O_R   0.940150 0.965360 0.440130 -0.579060
O20   O     O_R   0.059850 0.965360 0.559870 -0.583612
O21   O     O_R   0.500010 0.534640 0.589030 -0.584109
O22   O     O_R   0.499990 0.534640 0.410970 -0.577343
O23   O     O_R   0.000010 0.034640 0.589030 -0.584143
O24   O     O_R   0.999990 0.034640 0.410970 -0.576995
O25   O     O_R   0.500010 0.465360 0.588990 -0.576905
O26   O     O_R   0.499990 0.465360 0.411010 -0.584747
O27   O     O_R   0.000010 0.965360 0.588990 -0.577009
O28   O     O_R   0.999990 0.965360 0.411010 -0.583834
O29   O     O_R   0.534640 0.440150 0.034560 -0.582307
O30   O     O_R   0.465360 0.440150 0.965440 -0.579892
O31   O     O_R   0.034640 0.940150 0.034560 -0.582218
O32   O     O_R   0.965360 0.940150 0.965440 -0.579983
O33   O     O_R   0.534630 0.500000 0.945560 -0.584194
O34   O     O_R   0.465370 0.500000 0.054440 -0.583789
O35   O     O_R   0.034630 0.000000 0.945560 -0.584208
O36   O     O_R   0.965370 0.000000 0.054440 -0.584418
O37   O     O_R   0.465350 0.500000 0.876310 -0.588494
O38   O     O_R   0.534650 0.500000 0.123690 -0.588492
O39   O     O_R   0.965350 0.000000 0.876310 -0.588551
O40   O     O_R   0.034650 0.000000 0.123690 -0.588411
O41   O     O_R   0.534640 0.559850 0.034640 -0.579917
O42   O     O_R   0.465360 0.559850 0.965360 -0.582423
O43   O     O_R   0.034640 0.059850 0.034640 -0.579945
O44   O     O_R   0.965360 0.059850 0.965360 -0.582161
O45   O     O_R   1.000000 0.440190 0.051560 -0.578437
O46   O     O_R   0.000000 0.440190 0.948440 -0.578869
O47   O     O_R   0.500000 0.940190 0.051560 -0.578415
O48   O     O_R   0.500000 0.940190 0.948440 -0.578835
H45   H     H_    0.952672 0.287667 0.882328 0.138518
H46   H     H_    0.047696 0.289007 0.116236 0.138802
H47   H     H_    0.451633 0.787677 0.882846 0.138446
H48   H     H_    0.548732 0.788998 0.115707 0.138756

loop_
_geom_bond_atom_site_label_1
_geom_bond_atom_site_label_2
_ccdc_geom_bond_type
C78   H46   S    
C83   C87   A    
C77   H45   S    
C87   C91   S    
Cu11  O15   S    
C16   H28   S    
C17   C29   T    
C48   O10   A    
C39   O42   A    
C105  H21   S    
C78   C81   A    
C84   C87   A    
C112  C116  A    
C47   O5    A    
C59   H42   S    
C19   C31   T    
C18   C114  S    
C110  H30   S    
Cu10  O9    S    
C17   C113  S    
C107  H23   S    
C72   C98   D    
C10   C22   S    
Cu2   O4    S    
C71   C97   D    
C33   O29   A    
C55   H7    S    
C21   C25   T    
C29   C47   S    
C60   C63   A    
C53   H5    S    
C45   O46   A    
C64   C68   S    
C30   C48   S    
C11   C23   S    
C51   C75   S    
C7    H39   S    
C20   C32   T    
C79   C84   A    
C56   H8    S    
C9    C13   A    
C86   C88   A    
Cu7   O40   S    
C43   O23   A    
Cu5   O41   S    
C46   O48   A    
C85   H12   S    
C73   C99   D    
Cu8   O39   S    
C52   O16   A    
C101  H17   S    
C3    O3    A    
C37   O35   A    
C13   C109  A    
C36   O38   A    
C49   O7    A    
Cu11  O7    S    
C58   C66   S    
C39   C93   S    
C88   C92   S    
C117  H33   S    
C106  H22   S    
C7    C119  A    
C74   H4    S    
C62   C64   A    
Cu3   O18   S    
C18   C30   T    
C23   C27   T    
Cu2   O23   S    
C47   O9    A    
Cu8   O44   S    
Cu9   O5    S    
C51   O13   A    
C33   C69   S    
C32   C50   S    
C81   C89   S    
Cu11  O12   S    
C71   C101  S    
C50   O12   A    
Cu1   O1    S    
C55   C60   A    
C40   O44   A    
C1    C25   S    
C60   H41   S    
Cu9   O10   S    
C61   H44   S    
C1    O1    A    
C4    O4    A    
C80   C83   A    
Cu2   O24   S    
Cu12  O11   S    
C13   H25   S    
C4    C28   S    
C83   H10   S    
C86   H11   S    
C44   C108  S    
C101  C105  D    
Cu2   O3    S    
C112  H32   S    
C63   C67   S    
C33   O30   A    
Cu3   O25   S    
Cu4   O27   S    
Cu7   O43   S    
C12   C16   A    
C42   O22   A    
Cu10  O46   S    
Cu7   O31   S    
C41   O21   A    
Cu10  O6    S    
C40   C94   S    
C20   C116  S    
Cu5   O33   S    
C34   C70   S    
C74   C100  D    
C98   H14   S    
C34   O32   A    
C6    C118  A    
C118  H34   S    
C73   H3    S    
C46   O47   A    
C116  C120  A    
C115  C119  A    
Cu9   O13   S    
C2    O18   A    
C52   O15   A    
C89   C95   T    
C61   C64   A    
C7    C11   A    
C5    C9    A    
Cu6   O37   S    
C15   C111  A    
C91   C93   T    
C42   C106  S    
Cu5   O38   S    
C72   H2    S    
C108  H24   S    
C16   C112  A    
C19   C115  S    
C8    C12   A    
C66   C76   T    
Cu4   O20   S    
C92   C94   T    
C37   C99   S    
C111  H31   S    
C49   O11   A    
C2    C26   S    
C43   C107  S    
C80   H48   S    
C109  C113  A    
C35   O37   A    
Cu1   O21   S    
C114  C118  A    
C51   O14   A    
C41   C105  S    
C102  H18   S    
C113  C117  A    
C79   H47   S    
C78   C85   A    
Cu9   O45   S    
C14   H26   S    
C77   C86   A    
C44   O24   A    
C11   C15   A    
C40   O43   A    
Cu6   O34   S    
Cu5   Cu6   S    
C42   O26   A    
Cu2   Cu4   S    
Cu7   Cu8   S    
C45   C95   S    
C119  H35   S    
C110  C114  A    
C104  C108  D    
C120  H36   S    
C74   C104  S    
Cu9   Cu10  S    
C6    H38   S    
C85   C88   A    
Cu7   O35   S    
C4    O20   A    
C8    C120  A    
Cu12  O16   S    
C53   C57   A    
Cu3   O26   S    
Cu12  O48   S    
C97   H13   S    
C39   O41   A    
C50   O8    A    
C24   C28   T    
C38   O40   A    
C52   C76   S    
C65   C75   T    
C15   H27   S    
C71   H1    S    
C79   C82   A    
C36   C98   S    
C8    H40   S    
C90   C96   T    
Cu1   O2    S    
C54   C61   A    
C103  H19   S    
C34   O31   A    
C48   O6    A    
Cu8   O32   S    
C12   C24   S    
C59   C63   A    
C82   C90   S    
C56   C59   A    
C103  C107  D    
C45   O45   A    
C31   C49   S    
C104  H20   S    
C3    C27   S    
C35   O33   A    
C99   H15   S    
C109  H29   S    
Cu8   O36   S    
C43   O27   A    
Cu4   O28   S    
C38   C100  S    
C9    C21   S    
C54   H6    S    
C72   C102  S    
C84   H9    S    
C100  H16   S    
C14   C110  A    
C62   H43   S    
Cu4   O19   S    
Cu5   O29   S    
C80   C82   A    
C56   C58   A    
C102  C106  D    
Cu11  Cu12  S    
C3    O19   A    
Cu1   O22   S    
Cu1   Cu3   S    
Cu6   O30   S    
C6    C10   A    
C67   C69   T    
Cu10  O14   S    
C73   C103  S    
C46   C96   S    
C53   C62   A    
C111  C115  A    
C77   C81   A    
C22   C26   T    
C55   C58   A    
C5    C117  A    
C44   O28   A    
C68   C70   T    
C5    H37   S    
C1    O17   A    
Cu3   O17   S    
Cu11  O47   S    
C2    O2    A    
C38   O36   A    
C35   C97   S    
C41   O25   A    
C37   O39   A    
Cu12  O8    S    
Cu6   O42   S    
C10   C14   A    
C57   C65   S    
C54   C57   A    
C36   O34   A    
