data_mof_unit_62495.cif
_audit_creation_date              2012-12-10T19:50:19-0500
_audit_creation_method            fapswitch 2.2
_symmetry_space_group_name_H-M    P1
_symmetry_Int_Tables_number       1
_space_group_crystal_system       triclinic
_cell_length_a                    10.815108
_cell_length_b                    19.3575
_cell_length_c                    18.084662
_cell_angle_alpha                 90.193177
_cell_angle_beta                  89.730975
_cell_angle_gamma                 90.424571
_cell_volume                      3785.91967862

loop_
_atom_site_label
_atom_site_type_symbol
_atom_type_description
_atom_site_fract_x
_atom_site_fract_y
_atom_site_fract_z
_atom_type_partial_charge
C1    C     C_R   0.500114 0.367161 0.499808 0.921565
C2    C     C_R   0.565333 0.816899 0.442932 0.337433
C3    C     C_R   0.489824 0.145609 0.498317 -0.214007
C4    C     C_R   0.510428 0.854381 0.501733 -0.214106
C5    C     C_R   0.548951 0.180923 0.439895 0.370205
C6    C     C_R   0.451160 0.819079 0.560112 0.370466
C7    C     C_R   0.548443 0.254127 0.438496 0.301121
C8    C     C_R   0.451552 0.745869 0.561479 0.300783
C9    C     C_R   0.498676 0.290948 0.499042 -0.362168
C10   C     C_R   0.501394 0.709048 0.500959 -0.362035
C11   C     C_R   0.506315 0.930253 0.500565 0.483003
C12   C     C_R   0.499896 0.632837 0.500192 0.921665
C13   C     C_R   0.493985 0.069737 0.499484 0.482984
C14   C     C_R   0.578756 0.541980 0.277873 0.765919
C15   C     C_R   0.421239 0.458022 0.722126 0.766017
C16   C     C_R   0.262147 0.500576 0.500055 0.903662
C17   C     C_R   0.737853 0.499424 0.499945 0.903556
C18   C     C_R   0.579244 0.542496 0.200167 0.468081
C19   C     C_R   0.420751 0.457506 0.799833 0.468097
C20   C     C_R   0.497682 0.499381 0.159845 -0.181556
C21   C     C_R   0.502318 0.500618 0.840155 -0.181559
C22   C     C_R   0.416231 0.456288 0.201029 0.349823
C23   C     C_R   0.871773 0.499210 0.500050 -0.156466
C24   C     C_R   0.583773 0.543709 0.798971 0.349768
C25   C     C_R   0.419894 0.457826 0.279473 -0.100761
C26   C     C_R   0.580109 0.542172 0.720527 -0.100835
C27   C     C_R   0.501288 0.500373 0.923948 0.521271
C28   C     C_R   0.498712 0.499626 0.076052 0.521297
C29   C     C_R   0.229327 0.713521 0.399520 0.392063
C30   C     C_R   0.770761 0.286430 0.600402 0.391790
C31   C     C_R   0.164531 0.664583 0.441597 0.418788
C32   C     C_R   0.835546 0.335391 0.558352 0.418812
C33   C     C_R   0.133902 0.600034 0.410714 -0.373901
C34   C     C_R   0.128226 0.500792 0.499951 -0.156450
C35   C     C_R   0.866100 0.399942 0.589255 -0.373857
C36   C     C_R   0.168616 0.585075 0.337399 0.461524
C37   C     C_R   0.831321 0.414878 0.662565 0.461419
C38   C     C_R   0.235894 0.633614 0.296183 0.429871
C39   C     C_R   0.764047 0.366316 0.703752 0.430003
C40   C     C_R   0.266190 0.697783 0.327211 0.422353
C41   C     C_R   0.733827 0.302145 0.672703 0.422423
C42   C     C_R   0.934533 0.547367 0.455415 0.414075
C43   C     C_R   0.065466 0.452637 0.544589 0.414074
C44   C     C_R   0.935496 0.451868 0.544905 0.067224
C45   C     C_R   0.064503 0.548131 0.455092 0.067206
C46   C     C_R   0.443539 0.254918 0.558009 0.628260
C47   C     C_R   0.556697 0.745067 0.442039 0.628443
C48   C     C_R   0.434981 0.183085 0.557138 0.337629
Cu1   Cu    Cu3+1 0.499990 0.499980 0.573360 1.081599
Cu2   Cu    Cu3+1 0.500010 0.500020 0.426640 1.081630
F1    F     F_    0.330751 0.744944 0.287023 -0.480038
F2    F     F_    0.869201 0.319930 0.487842 -0.555369
F3    F     F_    0.138611 0.523220 0.306486 -0.567873
F4    F     F_    0.861262 0.476733 0.693501 -0.567923
F5    F     F_    0.271307 0.618538 0.225950 -0.540149
F6    F     F_    0.728567 0.381371 0.773979 -0.540137
F7    F     F_    0.391123 0.289631 0.615367 -0.506579
F8    F     F_    0.609177 0.710345 0.384719 -0.506625
F9    F     F_    0.669269 0.254961 0.712863 -0.480007
F10   F     F_    0.658113 0.583969 0.314690 -0.507381
F11   F     F_    0.341877 0.416036 0.685309 -0.507429
F12   F     F_    0.658829 0.586007 0.165010 -0.527102
F13   F     F_    0.341162 0.413998 0.834990 -0.527112
F14   F     F_    0.256040 0.776433 0.428780 -0.565003
F15   F     F_    0.744128 0.223515 0.571122 -0.565185
F16   F     F_    0.130940 0.680066 0.512112 -0.555237
H1    H     H_    0.358335 0.424932 0.311207 0.197190
H2    H     H_    0.657166 0.894596 0.401187 0.345281
H3    H     H_    0.681139 0.170402 0.367513 0.372731
H4    H     H_    0.319227 0.829551 0.632690 0.372839
H5    H     H_    0.641671 0.575065 0.688793 0.197127
H6    H     H_    0.588060 0.262694 0.334062 0.347748
H7    H     H_    0.412255 0.737179 0.665907 0.347264
H8    H     H_    0.285628 0.386557 0.201320 0.360025
H9    H     H_    0.714381 0.613438 0.798681 0.359985
H10   H     H_    0.918358 0.623239 0.383724 0.374044
H11   H     H_    0.081643 0.376799 0.616318 0.374039
H12   H     H_    0.343198 0.105389 0.598951 0.345299
N1    N     N_R   0.462599 0.032568 0.438581 -0.131723
N2    N     N_R   0.593318 0.529484 0.037497 -0.110224
N3    N     N_R   0.537704 0.967423 0.561469 -0.131839
N4    N     N_R   0.468272 0.963962 0.439182 -0.149671
N5    N     N_R   0.532034 0.036030 0.560868 -0.149684
N6    N     N_R   0.500010 0.500050 0.316380 -0.307967
N7    N     N_R   0.499990 0.499950 0.683620 -0.307923
N8    N     N_R   0.405402 0.470164 0.036427 -0.098755
N9    N     N_R   0.594598 0.529836 0.963573 -0.098771
N10   N     N_R   0.406682 0.470515 0.962503 -0.110219
O1    O     O_R   0.500010 0.400130 0.561970 -0.537827
O2    O     O_3   0.401861 0.709424 0.620209 -0.652069
O3    O     O_3   0.335403 0.412625 0.164467 -0.617374
O4    O     O_3   0.664605 0.587370 0.835533 -0.617420
O5    O     O_3   0.864976 0.593875 0.415239 -0.611662
O6    O     O_3   0.135022 0.406131 0.584767 -0.611722
O7    O     O_3   0.371257 0.151926 0.614579 -0.567618
O8    O     O_3   0.629176 0.848052 0.385542 -0.567715
O9    O     O_3   0.611050 0.142622 0.387018 -0.654284
O10   O     O_3   0.389013 0.857401 0.612951 -0.654245
O11   O     O_R   0.499990 0.599870 0.438030 -0.537854
O12   O     O_R   0.500020 0.400160 0.438070 -0.548584
O13   O     O_R   0.499980 0.599840 0.561930 -0.548774
O14   O     O_R   0.319640 0.499990 0.561950 -0.493156
O15   O     O_R   0.680360 0.500010 0.438050 -0.493157
O16   O     O_R   0.319650 0.500020 0.438050 -0.615026
O17   O     O_R   0.680350 0.499980 0.561950 -0.614969
O18   O     O_3   0.597895 0.290573 0.379682 -0.652392

loop_
_geom_bond_atom_site_label_1
_geom_bond_atom_site_label_2
_ccdc_geom_bond_type
C31   F16   S    
C30   C32   A    
C13   N1    A    
Cu2   O16   S    
C48   O7    S    
C42   O5    S    
C33   C45   S    
C14   C18   A    
C25   H1    S    
C14   N6    A    
C43   O6    S    
Cu2   N6    S    
C39   C41   A    
C11   N3    A    
C15   C19   A    
Cu2   O11   S    
C17   C23   S    
C23   C42   A    
C6    O10   S    
C35   C37   A    
C24   C26   A    
H7    O2    S    
N2    N9    A    
Cu1   O13   S    
N8    N10   A    
C3    C48   A    
C33   C36   A    
C32   F2    S    
C12   O11   A    
C36   F3    S    
C16   C34   S    
C16   O16   A    
C38   F5    S    
C19   F13   S    
C22   C25   A    
C25   N6    A    
C22   O3    S    
C31   C33   A    
C30   C41   A    
C3    C13   S    
C15   N7    A    
C21   C27   S    
C29   F14   S    
C9    C46   A    
C26   H5    S    
C24   O4    S    
C1    O12   A    
N3    N5    A    
C11   N4    A    
C46   C48   A    
C32   C35   A    
Cu1   N7    S    
C1    C9    S    
C41   F9    S    
C4    C6    A    
Cu1   O14   S    
C5    C7    A    
C18   F12   S    
C6    C8    A    
C20   C28   S    
C23   C44   A    
C42   C45   A    
H8    O3    S    
C2    C4    A    
C43   C44   A    
C17   O17   A    
H10   O5    S    
C39   F6    S    
H12   O7    S    
C15   F11   S    
C7    O18   S    
C34   C45   A    
H2    O8    S    
C4    C11   S    
C27   N9    A    
C35   C44   S    
C10   C12   S    
H9    O4    S    
C37   F4    S    
C16   O14   A    
H6    O18   S    
C46   F7    S    
C28   N8    A    
C8    O2    S    
C20   C22   A    
C7    C9    A    
C1    O1    A    
C19   C21   A    
C8    C10   A    
C34   C43   A    
Cu1   O1    S    
C3    C5    A    
N1    N4    A    
Cu1   O17   S    
C2    C47   A    
C40   F1    S    
C14   F10   S    
C13   N5    A    
Cu2   O12   S    
C2    O8    S    
C17   O15   A    
C12   O13   A    
C29   C31   A    
C47   F8    S    
C38   C40   A    
C26   N7    A    
C29   C40   A    
C36   C38   A    
C5    O9    S    
C18   C20   A    
C27   N10   A    
C28   N2    A    
C30   F15   S    
Cu2   O15   S    
C37   C39   A    
Cu1   Cu2   S    
C21   C24   A    
C10   C47   A    
H11   O6    S    
H4    O10   S    
H3    O9    S    
