data_mof_unit_49492.cif
_audit_creation_date              2012-10-26T18:30:21-0400
_audit_creation_method            fapswitch 2.2
_symmetry_space_group_name_H-M    P1
_symmetry_Int_Tables_number       1
_space_group_crystal_system       triclinic
_cell_length_a                    10.674242
_cell_length_b                    12.978568
_cell_length_c                    11.769502
_cell_angle_alpha                 100.609732
_cell_angle_beta                  95.636127
_cell_angle_gamma                 91.734462
_cell_volume                      1592.93198862

loop_
_atom_site_label
_atom_site_type_symbol
_atom_type_description
_atom_site_fract_x
_atom_site_fract_y
_atom_site_fract_z
_atom_type_partial_charge
C1    C     C_R   0.499119 0.299075 0.478119 0.535211
C2    C     C_R   0.598028 0.599035 0.862237 0.181330
C3    C     C_R   0.545198 0.547672 0.160515 0.033115
C4    C     C_R   0.454802 0.452328 0.839485 0.033115
C5    C     C_R   0.539098 0.539743 0.037015 -0.056570
C6    C     C_R   0.460902 0.460257 0.962985 -0.056570
C7    C     C_R   0.259350 0.497775 0.497962 0.559250
C8    C     C_R   0.740650 0.502224 0.502038 0.559251
C9    C     C_3   0.043199 0.412887 0.538541 -0.159542
C10   C     C_3   0.956801 0.587113 0.461459 -0.159541
C11   C     C_3   0.943737 0.414298 0.434001 0.135204
C12   C     C_R   0.500881 0.700924 0.521881 0.535211
C13   C     C_3   0.056263 0.585701 0.565999 0.135204
C14   C     C_3   0.877348 0.503204 0.505728 0.013679
C15   C     C_3   0.122652 0.496796 0.494272 0.013678
C16   C     C_3   0.977235 0.503601 0.609642 0.149358
C17   C     C_3   0.022764 0.496399 0.390358 0.149358
C18   C     C_R   0.497300 0.814439 0.534131 -0.003904
C19   C     C_R   0.502700 0.185560 0.465869 -0.003904
C20   C     C_R   0.551091 0.016913 0.357728 -0.123964
C21   C     C_R   0.448909 0.983087 0.642272 -0.123964
C22   C     C_R   0.542756 0.124735 0.366025 -0.110922
C23   C     C_R   0.471102 0.138195 0.557647 -0.128812
C24   C     C_R   0.457243 0.875265 0.633975 -0.110922
C25   C     C_3   0.947535 0.245984 0.300376 -0.280489
C26   C     C_3   0.052463 0.754017 0.699622 -0.280491
C27   C     C_3   0.059794 0.500830 0.809785 -0.264038
C28   C     C_3   0.940205 0.499171 0.190216 -0.264041
C29   C     C_2   0.655375 0.685002 0.815278 0.657534
C30   C     C_2   0.344625 0.314999 0.184722 0.657533
C31   C     C_2   0.305679 0.306249 0.940868 0.551781
C32   C     C_2   0.694321 0.693751 0.059132 0.551781
C33   C     C_R   0.528898 0.861805 0.442353 -0.128812
C34   C     C_R   0.479818 0.030563 0.550398 0.042956
C35   C     C_R   0.520182 0.969437 0.449601 0.042956
C36   C     C_R   0.390690 0.390857 0.014481 0.009356
C37   C     C_R   0.609310 0.609143 0.985519 0.009356
C38   C     C_R   0.401971 0.400965 0.137762 0.181330
Cu1   Cu    Cu3+1 0.509400 0.507730 0.615930 0.985142
Cu2   Cu    Cu3+1 0.490600 0.492270 0.384070 0.985142
H1    H     H_    0.079616 0.342114 0.568442 0.108224
H2    H     H_    0.606825 0.606130 0.218454 0.166301
H3    H     H_    0.812279 0.289165 0.412471 0.245825
H4    H     H_    0.884930 0.178158 0.254234 0.147464
H5    H     H_    0.020371 0.217365 0.359592 0.131492
H6    H     H_    0.992203 0.280595 0.234058 0.220761
H7    H     H_    0.187722 0.710834 0.587530 0.245825
H8    H     H_    0.115069 0.821842 0.745765 0.147464
H9    H     H_    0.007793 0.719407 0.765940 0.220759
H10   H     H_    0.979630 0.782636 0.640405 0.131491
H11   H     H_    0.877832 0.455948 0.735605 0.275044
H12   H     H_    0.920384 0.657886 0.431558 0.108224
H13   H     H_    0.031605 0.512945 0.899407 0.165598
H14   H     H_    0.133333 0.562181 0.806396 0.189102
H15   H     H_    0.099658 0.422266 0.789565 0.154347
H16   H     H_    0.122169 0.544051 0.264395 0.275045
H17   H     H_    0.968395 0.487055 0.100593 0.165599
H18   H     H_    0.900344 0.577736 0.210435 0.154348
H19   H     H_    0.866665 0.437822 0.193606 0.189101
H20   H     H_    0.786161 0.733815 0.723399 0.315897
H21   H     H_    0.213837 0.266186 0.276600 0.315897
H22   H     H_    0.286775 0.178602 0.812657 0.328885
H23   H     H_    0.560037 0.814859 0.365116 0.152556
H24   H     H_    0.713224 0.821398 0.187343 0.328885
H25   H     H_    0.439963 0.185141 0.634884 0.152556
H26   H     H_    0.429579 0.839219 0.704234 0.176199
H27   H     H_    0.570421 0.160781 0.295766 0.176199
H28   H     H_    0.582546 0.970977 0.280178 0.144749
H29   H     H_    0.417454 0.029023 0.719822 0.144749
H30   H     H_    0.393175 0.393870 0.781546 0.166301
N1    N     N_R   0.523540 0.519360 0.790140 -0.280132
N2    N     N_R   0.476460 0.480640 0.209860 -0.280132
N3    N     N_2   0.873727 0.322486 0.365590 -0.506970
N4    N     N_2   0.126272 0.677513 0.634411 -0.506969
N5    N     N_2   0.950776 0.507512 0.728631 -0.462185
N6    N     N_2   0.049224 0.492488 0.271369 -0.462186
O1    O     O_R   0.506670 0.354460 0.582000 -0.518688
O2    O     O_R   0.760666 0.669315 0.754414 -0.658778
O3    O     O_2   0.386302 0.227555 0.163906 -0.523189
O4    O     O_R   0.239333 0.330686 0.245585 -0.658778
O5    O     O_2   0.194181 0.300454 0.956092 -0.521325
O6    O     O_R   0.353952 0.231938 0.856807 -0.718690
O7    O     O_2   0.805819 0.699546 0.043908 -0.521325
O8    O     O_R   0.646048 0.768062 0.143194 -0.718690
O9    O     O_R   0.493330 0.645540 0.418000 -0.518688
O10   O     O_R   0.490800 0.341410 0.386200 -0.484142
O11   O     O_R   0.509200 0.658590 0.613800 -0.484142
O12   O     O_R   0.324790 0.506500 0.597880 -0.509502
O13   O     O_R   0.675210 0.493500 0.402120 -0.509502
O14   O     O_R   0.308910 0.493440 0.402080 -0.464513
O15   O     O_R   0.691090 0.506560 0.597920 -0.464513
O16   O     O_2   0.613697 0.772446 0.836094 -0.523189

loop_
_geom_bond_atom_site_label_1
_geom_bond_atom_site_label_2
_ccdc_geom_bond_type
H3    N3    S    
C3    H2    S    
H16   N6    S    
C5    C37   A    
C16   N5    S    
C1    O1    A    
Cu1   O11   S    
C10   H12   S    
C4    H30   S    
C27   H14   S    
C28   H17   S    
H20   O2    S    
C31   O6    S    
C12   O9    A    
C2    C29   S    
C18   C24   A    
Cu1   O1    S    
C9    C16   S    
H11   N5    S    
C26   H10   S    
C5    C6    A    
C11   C14   S    
C27   H15   S    
C10   C17   S    
C30   C38   S    
C34   C35   A    
Cu2   O10   S    
H24   O8    S    
C33   C35   A    
C20   C35   A    
C29   O2    S    
C17   N6    S    
Cu2   O13   S    
C26   H8    S    
C30   O4    S    
C7    C15   S    
H22   O6    S    
Cu1   O12   S    
C27   N5    S    
C25   H4    S    
Cu1   O15   S    
C32   O8    S    
C38   N2    A    
C1    C19   S    
C19   C22   A    
C4    C6    A    
C11   N3    S    
C26   H9    S    
Cu1   Cu2   S    
C21   C34   A    
C7    O14   A    
C21   H29   S    
Cu2   O9    S    
C19   C23   A    
C7    O12   A    
C33   H23   S    
C23   C34   A    
C8    O15   A    
C32   C37   S    
C13   N4    S    
C9    C11   S    
C30   O3    D    
C20   C22   A    
C13   C15   S    
C10   C14   S    
C14   C16   S    
C21   C24   A    
C2    N1    A    
C28   N6    S    
C25   H5    S    
C28   H19   S    
C1    O10   A    
C15   C17   S    
C32   O7    D    
C11   C17   S    
C8    C14   S    
Cu2   N2    S    
C12   O11   A    
C20   H28   S    
H7    N4    S    
C3    C5    A    
C10   C13   S    
C27   H13   S    
C28   H18   S    
C9    H1    S    
C31   O5    D    
C23   H25   S    
C36   C38   A    
C3    N2    A    
C9    C15   S    
C2    C37   A    
C26   N4    S    
C6    C36   A    
C25   N3    S    
C4    N1    A    
C18   C33   A    
C22   H27   S    
C24   H26   S    
C13   C16   S    
C12   C18   S    
Cu1   N1    S    
C31   C36   S    
C8    O13   A    
H21   O4    S    
Cu2   O14   S    
C25   H6    S    
C29   O16   D    
