data_mof_unit_33317.cif
_audit_creation_date              2013-03-05T15:45:20-0500
_audit_creation_method            fapswitch 2.2
_symmetry_space_group_name_H-M    P1
_symmetry_Int_Tables_number       1
_space_group_crystal_system       triclinic
_cell_length_a                    10.858175
_cell_length_b                    10.994884
_cell_length_c                    9.942757
_cell_angle_alpha                 110.240851
_cell_angle_beta                  99.024537
_cell_angle_gamma                 92.498777
_cell_volume                      1093.7699479

loop_
_atom_site_label
_atom_site_type_symbol
_atom_site_description
_atom_site_fract_x
_atom_site_fract_y
_atom_site_fract_z
_atom_type_partial_charge
O1    O     O_R   0.511700 0.332340 0.577400 -0.582935
O2    O     O_R   0.488300 0.667660 0.422600 -0.519809
O3    O     O_R   0.474680 0.295500 0.332650 -0.566124
O4    O     O_R   0.525320 0.704500 0.667350 -0.636154
C1    C     C_R   0.496405 0.255004 0.442531 0.745501
C2    C     C_R   0.514334 0.746506 0.557859 0.825581
O5    O     O_R   0.338170 0.518410 0.622370 -0.637366
O6    O     O_R   0.661830 0.481590 0.377630 -0.581784
O7    O     O_R   0.301150 0.481570 0.377630 -0.591485
O8    O     O_R   0.698850 0.518430 0.622370 -0.564140
C3    C     C_R   0.264188 0.515549 0.502702 0.820479
C4    C     C_R   0.737972 0.499169 0.500089 0.845497
Cu1   Cu    Cu3+1 0.521920 0.521810 0.644910 0.998457
Cu2   Cu    Cu3+1 0.478080 0.478190 0.355090 1.070933
C5    C     C_R   0.165322 0.692607 0.765744 -0.027955
C6    C     C_R   0.864943 0.328094 0.259204 -0.080621
C7    C     C_R   0.116312 0.738491 0.896059 -0.166779
C8    C     C_R   0.911722 0.292750 0.125814 -0.089283
C9    C     C_R   0.985168 0.739798 0.884405 0.293881
C10   C     C_R   0.998715 0.383855 0.108955 0.238105
C11   C     C_R   0.910938 0.694682 0.745147 0.038793
C12   C     C_R   0.065531 0.483520 0.233833 -0.016186
C13   C     C_R   0.955555 0.602761 0.628448 0.013007
C14   C     C_R   0.043134 0.489871 0.372295 0.007702
C15   C     C_R   0.086622 0.608626 0.634627 0.018091
C16   C     C_R   0.924957 0.440476 0.379344 -0.073765
C17   C     C_R   0.874251 0.510069 0.504080 -0.086828
C18   C     C_R   0.131544 0.543866 0.503966 -0.062252
C19   C     C_2   0.500636 0.115741 0.415716 0.277603
C20   C     C_2   0.530935 0.888592 0.585831 0.265637
C21   C     C_2   0.576246 0.073643 0.509972 -0.031269
C22   C     C_2   0.565749 0.933939 0.484767 -0.088339
N1    N     N_2   0.445130 0.445420 0.137360 -0.054199
N2    N     N_2   0.554870 0.554580 0.862640 -0.085071
C23   C     C_2   0.525198 0.486959 0.070911 0.306999
C24   C     C_2   0.495775 0.477427 0.914137 0.133748
O9    O     O_3   0.023635 0.375265 0.974144 -0.734542
H1    H     H_    0.945847 0.338648 0.900886 0.337514
O10   O     O_3   0.928694 0.798167 0.002639 -0.697162
H2    H     H_    0.979502 0.790654 0.090633 0.337481
C25   C     C_2   0.277929 0.768612 0.758390 0.438769
H3    H     H_    0.360763 0.792634 0.842816 0.135506
O11   O     O_2   0.275382 0.811516 0.660113 -0.509725
C26   C     C_2   0.762844 0.244231 0.276973 0.476722
H4    H     H_    0.765192 0.231152 0.380159 0.063459
O12   O     O_2   0.673252 0.193417 0.178586 -0.488222
C27   C     C_2   0.200688 0.806207 0.038357 0.358536
H5    H     H_    0.171611 0.886832 0.122213 0.123303
O13   O     O_2   0.303402 0.770142 0.064350 -0.455149
C28   C     C_2   0.879657 0.161379 0.008410 0.435942
H6    H     H_    0.898032 0.144539 0.899809 0.065579
O14   O     O_2   0.840984 0.067024 0.033544 -0.487248
C29   C     C_2   0.812438 0.775776 0.716127 0.370833
H7    H     H_    0.765633 0.832585 0.802138 0.142019
O15   O     O_2   0.789738 0.787631 0.597402 -0.615448
C30   C     C_2   0.142029 0.590905 0.216489 0.494508
H8    H     H_    0.162545 0.581793 0.110505 0.153509
O16   O     O_2   0.179423 0.692312 0.319028 -0.492084
C31   C     C_2   0.607168 0.852756 0.350685 0.552897
H9    H     H_    0.706046 0.858665 0.344891 0.113788
O17   O     O_2   0.530702 0.787912 0.242974 -0.386656
C32   C     C_2   0.677347 0.155913 0.632113 0.352796
H10   H     H_    0.710305 0.122425 0.720578 0.125033
O18   O     O_2   0.730390 0.255776 0.631600 -0.587485
O19   O     O_3   0.512544 0.978398 0.716700 -0.667881
H11   H     H_    0.502549 0.932961 0.785108 0.354877
O20   O     O_3   0.420038 0.025413 0.298159 -0.656764
H12   H     H_    0.366934 0.072000 0.245755 0.330482
C33   C     C_2   0.414142 0.359428 0.813567 0.484936
H13   H     H_    0.339131 0.364042 0.731230 0.102967
O21   O     O_2   0.429034 0.253636 0.824754 -0.490728
C34   C     C_2   0.660875 0.507774 0.127649 0.492187
H14   H     H_    0.717890 0.431506 0.080830 0.024507
O22   O     O_2   0.711365 0.612030 0.215996 -0.503443
O23   O     O_3   0.619493 0.664867 0.959802 -0.568091
H15   H     H_    0.653641 0.709378 0.900753 0.373310
O24   O     O_3   0.326414 0.411193 0.065279 -0.632412
H16   H     H_    0.284508 0.369064 0.121506 0.373911

loop_
_geom_bond_atom_site_label_1
_geom_bond_atom_site_label_2
_geom_bond_distance
_ccdc_geom_bond_type
C11   C29   1.478676 S    
C25   H3    1.082765 S    
C23   C24   1.506857 S    
O7    Cu2   1.969241 S    
Cu2   N1    2.037257 S    
C27   O13   1.219400 D    
C29   H7    1.083606 S    
C24   C33   1.480808 S    
C15   C18   1.421854 A    
O5    C3    1.316832 A    
C16   C17   1.421647 A    
C32   H10   1.083572 S    
O1    C1    1.295244 A    
C9    O10   1.381405 S    
C9    C11   1.397371 A    
C14   C16   1.392916 A    
C5    C15   1.425190 A    
C30   H8    1.082883 S    
O4    Cu1   1.940796 S    
C33   O21   1.221373 D    
C32   O18   1.219411 D    
N1    C23   1.324883 D    
C19   O20   1.385097 S    
C27   H5    1.084544 S    
C28   O14   1.220387 D    
C13   C17   1.433238 A    
C6    C26   1.481704 S    
C8    C10   1.416707 A    
N2    O23   1.341120 S    
C31   H9    1.084502 S    
Cu1   Cu2   2.711788 S    
C25   O11   1.220535 D    
C21   C32   1.494401 S    
O2    C2    1.301051 A    
C26   O12   1.221205 D    
C1    C19   1.464650 S    
C29   O15   1.220328 D    
C6    C16   1.429193 A    
C31   O17   1.218894 D    
C4    C17   1.472554 S    
O20   H12   0.991219 S    
C7    C27   1.483390 S    
C5    C25   1.476461 S    
C34   O22   1.218007 D    
O10   H2    0.989538 S    
C12   C30   1.487946 S    
O24   H16   0.987289 S    
O23   H15   0.986390 S    
O9    H1    0.990192 S    
C21   C22   1.464441 S    
O6    C4    1.307983 A    
C28   H6    1.082829 S    
O7    C3    1.302028 A    
O3    Cu2   1.940796 S    
O8    C4    1.301998 A    
O4    C2    1.313256 A    
C2    C20   1.486425 S    
C10   C12   1.405504 A    
C23   C34   1.470200 S    
C11   C13   1.417772 A    
C12   C14   1.413974 A    
O1    Cu1   1.947184 S    
C26   H4    1.080792 S    
C8    C28   1.494045 S    
C5    C7    1.415604 A    
O6    Cu2   1.969727 S    
C14   C18   1.416390 A    
C34   H14   1.081069 S    
O3    C1    1.308580 A    
O8    Cu1   1.969240 S    
Cu1   N2    2.037256 S    
C19   C21   1.363250 D    
C20   C22   1.360361 D    
C10   O9    1.381014 S    
N1    O24   1.340950 S    
C3    C18   1.487796 S    
C7    C9    1.411575 A    
C30   O16   1.221290 D    
N2    C24   1.322735 D    
C13   C15   1.412483 A    
C33   H13   1.076722 S    
O2    Cu2   1.947183 S    
C20   O19   1.384800 S    
O5    Cu1   1.969727 S    
C6    C8    1.428259 A    
O19   H11   0.988695 S    
C22   C31   1.475132 S    
