data_mof_unit_10728.cif
_audit_creation_date              2013-03-05T15:55:53-0500
_audit_creation_method            fapswitch 2.2
_symmetry_space_group_name_H-M    P1
_symmetry_Int_Tables_number       1
_space_group_crystal_system       triclinic
_cell_length_a                    12.407474
_cell_length_b                    13.258433
_cell_length_c                    15.871564
_cell_angle_alpha                 76.02042
_cell_angle_beta                  101.53142
_cell_angle_gamma                 116.997174
_cell_volume                      2245.18107475

loop_
_atom_site_label
_atom_site_type_symbol
_atom_site_description
_atom_site_fract_x
_atom_site_fract_y
_atom_site_fract_z
_atom_type_partial_charge
O1    O     O_R   0.972510 0.318130 0.524770 -0.547697
O2    O     O_R   0.806530 0.359650 0.491510 -0.633881
C1    C     C_R   0.854579 0.286437 0.505208 0.797516
O3    O     O_R   0.082970 0.479240 0.637550 -0.579253
O4    O     O_R   0.916990 0.520750 0.604290 -0.589448
C2    C     C_R   0.000032 0.499540 0.659860 0.797151
Cu1   Cu    Cu3+1 0.098270 0.475420 0.519690 1.062201
Cu2   Cu    Cu3+1 0.901730 0.524580 0.480310 1.025333
O5    O     O_R   0.193470 0.640350 0.508490 -0.544108
O6    O     O_R   0.027490 0.681870 0.475230 -0.509623
O7    O     O_R   0.083010 0.479250 0.395710 -0.532987
O8    O     O_R   0.917030 0.520760 0.362450 -0.562725
C3    C     C_R   0.144289 0.713127 0.494908 0.868682
C4    C     C_R   0.999879 0.500350 0.340126 0.853907
C5    C     C_3   0.941681 0.390055 0.042011 -0.228353
C6    C     C_3   0.887194 0.454170 0.963574 -0.053734
H1    H     H_    0.893871 0.300495 0.076085 0.183175
H2    H     H_    0.895000 0.614227 0.011675 0.184323
C7    C     C_1   0.000870 0.499590 0.749501 -0.080879
C8    C     C_1   0.999095 0.500315 0.250441 -0.074672
C9    C     C_3   0.057181 0.438231 0.994990 0.336104
C10   C     C_3   0.001853 0.499652 0.916755 -0.014791
C11   C     C_3   0.115214 0.545735 0.037815 -0.121315
C12   C     C_3   0.999671 0.499885 0.083580 0.056767
C13   C     C_3   0.058710 0.607409 0.959877 -0.099299
C14   C     C_3   0.942742 0.562990 0.006314 -0.170465
C15   C     C_1   0.001479 0.499656 0.825021 0.047686
C16   C     C_1   0.998932 0.500155 0.174984 0.027790
C17   C     C_R   0.266050 0.037169 0.460199 -0.214191
H3    H     H_    0.437379 0.237708 0.396233 0.157081
H4    H     H_    0.234082 0.103859 0.437807 0.196887
C18   C     C_R   0.224860 0.835604 0.498573 -0.204730
C19   C     C_R   0.814070 0.077150 0.541272 0.257447
C20   C     C_R   0.735173 0.967874 0.582100 -0.216480
C21   C     C_R   0.611953 0.941720 0.583518 0.250768
C22   C     C_R   0.561975 0.015553 0.528249 -0.003092
C23   C     C_R   0.642345 0.127233 0.490919 0.001010
C24   C     C_R   0.434435 0.982471 0.508545 0.114881
C25   C     C_R   0.390582 0.066159 0.468889 0.072932
C26   C     C_R   0.470546 0.175268 0.433073 -0.187225
C27   C     C_R   0.592611 0.201120 0.436916 -0.119821
C28   C     C_R   0.349835 0.867225 0.517476 -0.156408
C29   C     C_R   0.182447 0.922353 0.480079 0.361689
C30   C     C_R   0.770007 0.162202 0.508193 -0.205339
H5    H     H_    0.380989 0.800887 0.533962 0.246739
H6    H     H_    0.646294 0.279183 0.395611 0.176517
C31   C     C_R   0.342476 0.321028 0.637335 -0.264449
H7    H     H_    0.543008 0.287648 0.669361 0.171151
H8    H     H_    0.341036 0.253122 0.692008 0.173485
N1    N     N_R   0.246280 0.438200 0.549540 -0.257257
C32   C     C_R   0.749155 0.632689 0.372874 0.541369
C33   C     C_R   0.641527 0.642085 0.337637 -0.252832
C34   C     C_R   0.540254 0.584120 0.382715 -0.166068
C35   C     C_R   0.545781 0.521009 0.466909 0.019641
C36   C     C_R   0.652687 0.502151 0.497000 0.214657
C37   C     C_R   0.444551 0.467906 0.518227 -0.081666
C38   C     C_R   0.443032 0.380307 0.589566 0.100355
C39   C     C_R   0.543511 0.354644 0.614260 -0.205613
C40   C     C_R   0.647484 0.416622 0.570639 -0.138064
C41   C     C_R   0.347095 0.501720 0.503709 0.478540
C42   C     C_R   0.244128 0.349835 0.615771 0.104242
N2    N     N_R   0.754330 0.561180 0.450980 -0.264763
H9    H     H_    0.456712 0.585110 0.348324 0.219474
H10   H     H_    0.635273 0.691859 0.273276 0.203906
H11   H     H_    0.719877 0.391406 0.594713 0.196901
C43   C     C_1   0.761934 0.404188 0.922217 0.306036
N3    N     N_1   0.663209 0.364821 0.889473 -0.238294
N4    N     N_R   0.937065 0.101522 0.531535 0.154042
O9    O     O_R   0.003262 0.065358 0.594143 -0.348019
O10   O     O_R   0.981128 0.155336 0.457270 -0.310377
N5    N     N_R   0.542901 0.849209 0.648087 0.109923
O11   O     O_R   0.483343 0.867276 0.697248 -0.331200
O12   O     O_R   0.538995 0.747244 0.658294 -0.326945
C44   C     C_1   0.781072 0.883725 0.625661 0.528985
N6    N     N_1   0.817426 0.816187 0.660639 -0.169290
C45   C     C_1   0.144514 0.289587 0.668812 0.437378
N7    N     N_1   0.064978 0.240957 0.712072 -0.226990
N8    N     N_R   0.365925 0.613862 0.455278 0.112300
O13   O     O_R   0.300944 0.625763 0.381700 -0.366410
O14   O     O_R   0.464830 0.702281 0.474778 -0.367919
N9    N     N_R   0.847728 0.688161 0.319790 0.138384
O15   O     O_R   0.935384 0.785853 0.334794 -0.293244
O16   O     O_R   0.830056 0.662758 0.242419 -0.363958
C46   C     C_1   0.122064 0.725713 0.914722 0.320736
N10   N     N_1   0.171974 0.818940 0.879055 -0.203438
C47   C     C_1   0.240567 0.595023 0.079425 0.347404
N11   N     N_1   0.339275 0.633784 0.112303 -0.222542
N12   N     N_R   0.120351 0.370189 0.990773 0.139255
O17   O     O_R   0.161954 0.321578 0.062511 -0.314375
O18   O     O_R   0.135209 0.357247 0.915891 -0.323655
N13   N     N_R   0.057677 0.896661 0.483518 0.173001
O19   O     O_R   0.001474 0.826067 0.549770 -0.320298
O20   O     O_R   0.009112 0.960825 0.431687 -0.259573

loop_
_geom_bond_atom_site_label_1
_geom_bond_atom_site_label_2
_geom_bond_distance
_ccdc_geom_bond_type
C36   C40   1.406932 A    
C34   H9    1.074818 S    
C3    C18   1.479257 S    
C21   C22   1.425137 A    
H2    C14   1.110423 S    
N9    O15   1.297590 A    
Cu1   Cu2   2.720091 S    
C31   H8    1.085364 S    
C34   C35   1.402055 A    
Cu1   O7    1.929244 S    
C2    C7    1.420852 S    
C41   N8    1.435387 S    
C22   C23   1.417647 A    
C12   C14   1.548333 S    
C24   C28   1.398327 A    
C24   C25   1.413203 A    
O7    C4    1.303585 A    
N8    O14   1.301278 A    
C31   C38   1.396125 A    
C5    C6    1.550299 S    
C36   N2    1.390134 A    
C37   C38   1.408745 A    
C5    H1    1.110328 S    
C20   C21   1.409546 A    
O5    C3    1.315810 A    
N4    O9    1.301133 A    
C10   C13   1.539994 S    
C13   C46   1.467830 S    
C27   H6    1.079594 S    
C7    C15   1.197342 T    
C32   N9    1.429174 S    
C43   N3    1.157178 T    
C9    N12   1.457642 S    
C21   N5    1.441649 S    
C9    C10   1.534424 S    
C17   C29   1.399314 A    
C32   N2    1.376719 A    
O3    Cu1   1.932436 S    
N9    O16   1.301777 A    
C42   C45   1.438436 S    
C6    C14   1.549171 S    
C35   C37   1.437266 A    
C1    C30   1.493125 S    
C44   N6    1.157538 T    
C32   C33   1.389373 A    
C4    C8    1.421638 S    
C45   N7    1.157738 T    
O3    C2    1.303821 A    
C33   H10   1.083553 S    
C25   C26   1.387559 A    
N5    O12   1.301562 A    
C47   N11   1.157141 T    
C8    C16   1.197733 T    
C13   C14   1.550910 S    
C11   C47   1.468762 S    
C29   N13   1.435827 S    
C37   C41   1.430764 A    
O1    C1    1.318026 A    
C28   H5    1.071689 S    
N13   O20   1.301013 A    
Cu2   O8    1.932436 S    
C17   C25   1.398353 A    
C19   C20   1.410553 A    
H3    C26   1.084339 S    
C46   N10   1.157108 T    
C20   C44   1.447001 S    
Cu2   O6    1.950635 S    
C26   C27   1.384495 A    
O8    C4    1.303817 A    
C10   C15   1.455036 S    
C9    C11   1.533845 S    
C6    C43   1.467202 S    
N13   O19   1.301182 A    
C33   C34   1.377844 A    
Cu1   O5    1.938981 S    
C35   C36   1.428341 A    
C5    C12   1.548081 S    
C6    C10   1.538496 S    
O1    Cu1   1.950635 S    
C19   C30   1.416002 A    
O2    Cu2   1.938981 S    
C12   C16   1.453471 S    
Cu1   N1    2.049979 S    
N12   O18   1.300310 A    
O6    C3    1.306042 A    
C31   C42   1.394650 A    
O4    Cu2   1.929244 S    
H7    C39   1.084301 S    
N1    C41   1.383624 A    
C23   C30   1.421315 A    
C22   C24   1.425678 A    
O2    C1    1.310154 A    
C39   C40   1.392331 A    
N5    O11   1.301461 A    
C17   H4    1.084282 S    
C40   H11   1.066882 S    
N8    O13   1.299517 A    
C38   C39   1.396046 A    
O4    C2    1.303262 A    
C18   C29   1.417954 A    
C11   C13   1.541215 S    
C23   C27   1.416604 A    
C11   C12   1.537567 S    
C5    C9    1.544306 S    
N12   O17   1.300291 A    
N4    O10   1.301715 A    
N1    C42   1.366056 A    
C18   C28   1.398125 A    
C19   N4    1.442090 S    
Cu2   N2    2.037920 S    
