data_mof_unit_31522.cif
_audit_creation_date              2012-10-26T19:28:24-0400
_audit_creation_method            fapswitch 2.2
_symmetry_space_group_name_H-M    P1
_symmetry_Int_Tables_number       1
_space_group_crystal_system       triclinic
_cell_length_a                    14.649697
_cell_length_b                    14.699758
_cell_length_c                    14.35108
_cell_angle_alpha                 77.403986
_cell_angle_beta                  102.105872
_cell_angle_gamma                 114.912786
_cell_volume                      2711.07649296

loop_
_atom_site_label
_atom_site_type_symbol
_atom_type_description
_atom_site_fract_x
_atom_site_fract_y
_atom_site_fract_z
_atom_type_partial_charge
C1    C     C_R   0.880039 0.312200 0.516571 0.544579
C2    C     C_R   0.488623 0.115138 0.435291 0.002315
C3    C     C_R   0.611227 0.907799 0.608075 -0.133664
C4    C     C_R   0.386936 0.096147 0.436608 -0.111403
C5    C     C_R   0.713306 0.658225 0.331523 -0.163501
C6    C     C_R   0.304101 0.370682 0.681809 -0.160906
C7    C     C_R   0.794227 0.628336 0.360905 0.046662
C8    C     C_R   0.212502 0.379614 0.643371 0.045681
C9    C     C_R   0.718590 0.521808 0.497223 0.025267
C10   C     C_R   0.284012 0.487326 0.505684 0.031651
C11   C     C_R   0.639733 0.558244 0.476892 -0.007754
C12   C     C_R   0.119766 0.687801 0.487286 0.544456
C13   C     C_R   0.382431 0.489788 0.545111 -0.009526
C14   C     C_R   0.635440 0.622800 0.388937 0.020686
C15   C     C_R   0.389715 0.427070 0.634189 0.021105
C16   C     C_R   0.999855 0.499946 0.668869 0.543206
C17   C     C_R   0.000140 0.500098 0.331122 0.545326
C18   C     C_R   0.562181 0.528103 0.537015 0.012007
C19   C     C_R   0.472227 0.547629 0.498599 0.008998
C20   C     C_R   0.478403 0.625251 0.417032 0.001048
C21   C     C_R   0.571263 0.482064 0.634921 -0.000581
C22   C     C_R   0.556007 0.655194 0.360298 -0.105799
C23   C     C_R   0.638101 0.077091 0.524503 0.020805
C24   C     C_R   0.483205 0.425071 0.678277 -0.108704
C25   C     C_1   0.999601 0.500036 0.771127 -0.051699
C26   C     C_1   0.000252 0.500092 0.228802 -0.050913
C27   C     C_1   0.999510 0.500102 0.856498 -0.053097
C28   C     C_1   0.000106 0.500119 0.143354 -0.051601
C29   C     C_1   0.999605 0.500144 0.957166 -0.012031
C30   C     C_1   0.999815 0.500146 0.042621 -0.011079
C31   C     C_R   0.811800 0.204555 0.530995 -0.007743
C32   C     C_R   0.186836 0.795585 0.485685 -0.008580
C33   C     C_R   0.781867 0.027732 0.584688 -0.134332
C34   C     C_R   0.358954 0.923728 0.510786 0.019369
C35   C     C_R   0.215397 0.973308 0.449015 -0.138128
C36   C     C_R   0.849132 0.128012 0.562913 -0.135911
C37   C     C_R   0.148555 0.871687 0.458683 -0.137207
C38   C     C_R   0.706943 0.178527 0.515762 -0.143636
C39   C     C_R   0.291244 0.822536 0.511242 -0.138589
C40   C     C_3   0.414303 0.688221 0.395846 -0.287573
C41   C     C_3   0.476002 0.802840 0.375900 -0.436024
C42   C     C_3   0.672688 0.503945 0.699845 -0.283643
C43   C     C_3   0.677233 0.548324 0.788678 -0.436702
C44   C     C_3   0.453574 0.803336 0.682692 -0.267308
C45   C     C_R   0.676680 0.002677 0.569350 0.032444
C46   C     C_3   0.408738 0.842928 0.744164 -0.425693
C47   C     C_3   0.542002 0.196259 0.355796 -0.282020
C48   C     C_3   0.481128 0.179952 0.255776 -0.439157
C49   C     C_R   0.320600 0.999196 0.469517 0.029900
C50   C     C_R   0.531692 0.049189 0.498746 0.015208
C51   C     C_R   0.465089 0.951347 0.538725 0.024588
C52   C     C_R   0.507820 0.885844 0.604119 0.005999
Cu1   Cu    Cu3+1 0.081740 0.475690 0.523180 0.913797
Cu2   Cu    Cu3+1 0.918260 0.524310 0.476820 0.912173
H1    H     H_    0.319957 0.764556 0.523039 0.124315
H2    H     H_    0.719512 0.462226 0.556130 0.116125
H3    H     H_    0.148359 0.341701 0.683437 0.123879
H4    H     H_    0.856090 0.658436 0.318216 0.127072
H5    H     H_    0.712650 0.710278 0.265261 0.086975
H6    H     H_    0.309109 0.323539 0.750622 0.087596
H7    H     H_    0.643022 0.854818 0.650800 0.101366
H8    H     H_    0.356402 0.151412 0.397678 0.110289
H9    H     H_    0.543214 0.826585 0.431539 0.172446
H10   H     H_    0.501158 0.825364 0.303597 0.137292
H11   H     H_    0.427845 0.844015 0.376696 0.148762
H12   H     H_    0.678996 0.238240 0.499994 0.128693
H13   H     H_    0.355724 0.664986 0.332778 0.138992
H14   H     H_    0.377472 0.677173 0.459434 0.146444
H15   H     H_    0.755645 0.572834 0.827845 0.143642
H16   H     H_    0.656580 0.615276 0.766730 0.153308
H17   H     H_    0.625546 0.491152 0.839054 0.142860
H18   H     H_    0.686481 0.433088 0.723299 0.139427
H19   H     H_    0.736477 0.561927 0.662560 0.154282
H20   H     H_    0.468001 0.911705 0.772600 0.154038
H21   H     H_    0.344541 0.861426 0.702143 0.164671
H22   H     H_    0.379752 0.783849 0.806001 0.134748
H23   H     H_    0.067777 0.852842 0.439718 0.129003
H24   H     H_    0.395805 0.733931 0.655578 0.141376
H25   H     H_    0.508429 0.775707 0.733133 0.133839
H26   H     H_    0.460861 0.101452 0.242928 0.157545
H27   H     H_    0.410888 0.193827 0.247851 0.144278
H28   H     H_    0.527698 0.233910 0.199898 0.137922
H29   H     H_    0.555183 0.272403 0.370242 0.145141
H30   H     H_    0.615674 0.194855 0.350440 0.156173
H31   H     H_    0.930021 0.146177 0.576022 0.127235
H32   H     H_    0.812102 0.970506 0.616642 0.105192
H33   H     H_    0.185225 0.031069 0.419974 0.105415
H34   H     H_    0.556769 0.707668 0.294206 0.111103
H35   H     H_    0.488542 0.382571 0.749708 0.108721
H36   H     H_    0.268891 0.523916 0.434271 0.118567
N1    N     N_R   0.795420 0.560790 0.441960 -0.226296
N2    N     N_R   0.204580 0.439210 0.558040 -0.227402
O1    O     O_R   0.977910 0.338120 0.530560 -0.496179
O2    O     O_R   0.022090 0.661880 0.469440 -0.498131
O3    O     O_R   0.839850 0.379180 0.491410 -0.502326
O4    O     O_R   0.160150 0.620820 0.508590 -0.504796
O5    O     O_R   0.069040 0.479460 0.643530 -0.484203
O6    O     O_R   0.930960 0.520540 0.356470 -0.485135
O7    O     O_R   0.930990 0.520530 0.604380 -0.484569
O8    O     O_R   0.069010 0.479470 0.395620 -0.482462

loop_
_geom_bond_atom_site_label_1
_geom_bond_atom_site_label_2
_ccdc_geom_bond_type
C11   C18   A    
C23   C45   A    
C27   C29   S    
C18   C21   A    
C33   C45   A    
C19   C20   A    
C24   H35   S    
C9    N1    A    
C46   H22   S    
Cu1   Cu2   S    
C34   C51   A    
C17   C26   S    
C35   C37   A    
C20   C40   S    
C11   C14   A    
C16   O5    A    
C4    H8    S    
C1    C31   S    
C33   C36   A    
C48   H27   S    
C18   C19   A    
C32   C39   A    
C2    C50   A    
C6    C15   A    
C35   H33   S    
C39   H1    S    
C38   H12   S    
C42   H19   S    
C40   H13   S    
C35   C49   A    
C8    N2    A    
C22   H34   S    
C17   O6    A    
C7    H4    S    
C44   C52   S    
C10   N2    A    
C43   H15   S    
C12   C32   S    
Cu1   O4    S    
C12   O2    A    
C46   H21   S    
C44   C46   S    
C3    H7    S    
Cu1   O8    S    
C13   C19   A    
Cu1   O1    S    
C51   C52   A    
C6    H6    S    
C5    C7    A    
C5    H5    S    
C23   C50   A    
C6    C8    A    
Cu1   O5    S    
C32   C37   A    
C37   H23   S    
C3    C45   A    
C34   C39   A    
C2    C4    A    
C33   H32   S    
C29   C30   T    
C8    H3    S    
C47   C48   S    
C1    O3    A    
C7    N1    A    
Cu1   N2    S    
C42   H18   S    
C50   C51   A    
Cu2   O3    S    
C9    H2    S    
C47   H30   S    
C9    C11   A    
C5    C14   A    
C15   C24   A    
C20   C22   A    
C43   H16   S    
C47   H29   S    
C13   C15   A    
C2    C47   S    
Cu2   O7    S    
C42   C43   S    
C41   H9    S    
C46   H20   S    
C16   C25   S    
C40   C41   S    
C34   C49   A    
C43   H17   S    
C44   H25   S    
Cu2   O6    S    
C10   C13   A    
C41   H11   S    
C3    C52   A    
C16   O7    A    
C36   H31   S    
C25   C27   T    
C23   C38   A    
C26   C28   T    
C31   C38   A    
C4    C49   A    
C48   H26   S    
C44   H24   S    
Cu2   N1    S    
C14   C22   A    
C28   C30   S    
C48   H28   S    
C17   O8    A    
Cu2   O2    S    
C21   C42   S    
C10   H36   S    
C1    O1    A    
C40   H14   S    
C21   C24   A    
C31   C36   A    
C12   O4    A    
C41   H10   S    
