data_mof_unit_63326.cif
_audit_creation_date              2013-03-05T15:42:47-0500
_audit_creation_method            fapswitch 2.2
_symmetry_space_group_name_H-M    P1
_symmetry_Int_Tables_number       1
_space_group_crystal_system       triclinic
_cell_length_a                    21.682766
_cell_length_b                    21.746798
_cell_length_c                    55.708036
_cell_angle_alpha                 89.785625
_cell_angle_beta                  90.231997
_cell_angle_gamma                 91.326927
_cell_volume                      26260.6167891

loop_
_atom_site_label
_atom_site_type_symbol
_atom_site_description
_atom_site_fract_x
_atom_site_fract_y
_atom_site_fract_z
_atom_type_partial_charge
O1    O     O_R   0.499960 0.590510 0.020150 -0.624925
O2    O     O_R   0.409490 0.499960 0.020150 -0.621152
O3    O     O_R   0.500040 0.409490 0.020150 -0.625133
O4    O     O_R   0.590510 0.500040 0.020150 -0.621409
O5    O     O_R   0.999960 0.090510 0.520150 -0.625097
O6    O     O_R   0.909490 0.999960 0.520150 -0.621410
O7    O     O_R   0.000040 0.909490 0.520150 -0.621834
O8    O     O_R   0.090510 0.000040 0.520150 -0.620400
O9    O     O_R   0.499990 0.590510 0.979930 -0.622182
O10   O     O_R   0.409490 0.499990 0.979930 -0.618097
O11   O     O_R   0.500010 0.409490 0.979930 -0.622141
O12   O     O_R   0.590510 0.500010 0.979930 -0.617811
O13   O     O_R   0.999990 0.090510 0.479930 -0.621565
O14   O     O_R   0.909490 0.999990 0.479930 -0.617936
O15   O     O_R   0.000010 0.909490 0.479930 -0.625563
O16   O     O_R   0.090510 0.000010 0.479930 -0.619486
C1    C     C_R   0.506128 0.618556 0.999979 0.946283
C2    C     C_R   0.381019 0.502589 0.999876 0.946059
C3    C     C_R   0.493884 0.381447 0.000046 0.945914
C4    C     C_R   0.618990 0.497391 0.999967 0.946079
C5    C     C_R   0.006011 0.118581 0.499965 0.946348
C6    C     C_R   0.881022 0.002642 0.499877 0.945541
C7    C     C_R   0.993904 0.881444 0.500031 0.946197
C8    C     C_R   0.118967 0.997381 0.500207 0.945962
C9    C     C_R   0.500369 0.000937 0.123619 0.253541
C10   C     C_R   0.999931 0.499186 0.123610 0.255904
C11   C     C_R   0.000906 0.500524 0.623647 0.258718
C12   C     C_R   0.505147 0.998826 0.623645 0.257686
Zn1   Zn    Zn3+2 0.500000 0.500000 0.026890 0.945048
Zn2   Zn    Zn3+2 1.000000 0.000000 0.526890 0.948943
Zn3   Zn    Zn3+2 0.500000 0.500000 0.973180 0.966200
Zn4   Zn    Zn3+2 1.000000 0.000000 0.473180 0.960865
C13   C     C_2   0.780042 0.449163 0.013791 0.142294
C14   C     C_2   0.535910 0.782680 0.017654 0.156031
C15   C     C_2   0.220297 0.550901 0.013372 0.141427
C16   C     C_2   0.465975 0.216898 0.017916 0.156605
C17   C     C_2   0.279645 0.949118 0.486708 0.142320
C18   C     C_2   0.037494 0.282564 0.517465 0.151489
C19   C     C_2   0.720295 0.050887 0.513460 0.141276
C20   C     C_2   0.964409 0.717034 0.517718 0.150327
C21   C     C_2   0.816796 0.500806 0.011652 -0.075964
C22   C     C_2   0.493123 0.813924 0.004663 -0.070702
C23   C     C_2   0.183497 0.499217 0.011514 -0.075488
C24   C     C_2   0.507022 0.185990 0.004193 -0.069789
C25   C     C_2   0.316445 0.000795 0.488659 -0.075974
C26   C     C_2   0.993098 0.313963 0.505390 -0.072512
C27   C     C_2   0.683534 0.999191 0.511496 -0.076531
C28   C     C_2   0.007101 0.686006 0.504811 -0.071580
C29   C     C_2   0.713424 0.457260 0.016456 -0.146248
C30   C     C_2   0.528800 0.715691 0.019568 -0.123959
C31   C     C_2   0.286914 0.542836 0.016080 -0.145523
C32   C     C_2   0.473232 0.283851 0.019803 -0.124152
C33   C     C_2   0.213067 0.957264 0.483967 -0.144442
C34   C     C_2   0.030371 0.215572 0.519436 -0.124911
C35   C     C_2   0.786931 0.042843 0.516130 -0.144918
C36   C     C_2   0.971604 0.783984 0.519677 -0.124248
C37   C     C_2   0.684360 0.487815 0.999153 -0.405708
C38   C     C_2   0.523698 0.682827 0.999506 -0.399045
C39   C     C_2   0.315687 0.512294 0.998882 -0.405482
C40   C     C_2   0.476156 0.317222 0.999735 -0.397685
C41   C     C_2   0.184258 0.987552 0.501221 -0.406587
C42   C     C_2   0.023196 0.182941 0.499399 -0.400292
C43   C     C_2   0.815702 0.012465 0.498884 -0.405256
C44   C     C_2   0.976356 0.817184 0.499619 -0.398205
H1    H     H_    0.709257 0.503331 0.983235 0.163404
H2    H     H_    0.530826 0.704690 0.982097 0.158165
H3    H     H_    0.290590 0.496825 0.982971 0.163284
H4    H     H_    0.467101 0.295824 0.982405 0.157639
H5    H     H_    0.209308 0.002760 0.517181 0.161905
H6    H     H_    0.028365 0.205089 0.481942 0.158687
H7    H     H_    0.790598 0.997154 0.482952 0.163068
H8    H     H_    0.968954 0.795578 0.482216 0.157469
O17   O     O_R   0.999980 0.448970 0.964420 -0.616951
O18   O     O_R   0.551030 0.999980 0.964420 -0.620005
O19   O     O_R   0.000020 0.551030 0.964420 -0.617109
O20   O     O_R   0.448970 0.000020 0.964420 -0.619725
O21   O     O_R   0.499980 0.948970 0.464420 -0.622761
O22   O     O_R   0.051030 0.499980 0.464420 -0.619746
O23   O     O_R   0.500020 0.051030 0.464420 -0.628161
O24   O     O_R   0.948970 0.500020 0.464420 -0.619407
C45   C     C_R   0.000006 0.500109 0.952932 0.895381
C46   C     C_R   0.499898 0.999967 0.952909 0.886485
C47   C     C_R   0.499690 0.000112 0.452926 0.880027
C48   C     C_R   0.999885 0.499999 0.452906 0.888521
O25   O     O_R   0.909490 0.448990 0.000040 -0.647688
O26   O     O_R   0.551010 0.909490 0.000040 -0.641808
O27   O     O_R   0.090510 0.551010 0.000040 -0.647913
O28   O     O_R   0.448990 0.090510 0.000040 -0.641268
O29   O     O_R   0.409490 0.948990 0.500040 -0.644915
O30   O     O_R   0.051010 0.409490 0.500040 -0.640730
O31   O     O_R   0.590510 0.051010 0.500040 -0.645065
O32   O     O_R   0.948990 0.590510 0.500040 -0.639987
O33   O     O_R   0.909510 0.551130 0.000040 -0.608930
O34   O     O_R   0.448870 0.909510 0.000040 -0.608898
O35   O     O_R   0.090490 0.448870 0.000040 -0.608913
O36   O     O_R   0.551130 0.090490 0.000040 -0.608528
O37   O     O_R   0.409510 0.051130 0.500040 -0.612072
O38   O     O_R   0.948870 0.409510 0.500040 -0.611167
O39   O     O_R   0.590490 0.948870 0.500040 -0.611126
O40   O     O_R   0.051130 0.590490 0.500040 -0.611124
C49   C     C_R   0.880944 0.499560 0.002870 0.905051
C50   C     C_R   0.498793 0.880434 0.001055 0.878949
C51   C     C_R   0.119136 0.500421 0.002806 0.905037
C52   C     C_R   0.501235 0.119525 0.000924 0.878418
C53   C     C_R   0.380839 0.999571 0.497318 0.903536
C54   C     C_R   0.998792 0.380410 0.501250 0.879280
C55   C     C_R   0.619142 0.000420 0.502810 0.905129
C56   C     C_R   0.001250 0.619564 0.501090 0.878099
Zn5   Zn    Zn3+2 0.999950 0.431840 0.000040 0.938754
Zn6   Zn    Zn3+2 0.568160 0.999950 0.000040 0.943421
Zn7   Zn    Zn3+2 0.000050 0.568160 0.000040 0.938587
Zn8   Zn    Zn3+2 0.431840 0.000050 0.000040 0.943853
Zn9   Zn    Zn3+2 0.499950 0.931840 0.500040 0.937535
Zn10  Zn    Zn3+2 0.068160 0.499950 0.500040 0.941336
Zn11  Zn    Zn3+2 0.500050 0.068160 0.500040 0.936933
Zn12  Zn    Zn3+2 0.931840 0.500050 0.500040 0.942057
O41   O     O_R   0.999930 0.448970 0.035660 -0.634548
O42   O     O_R   0.551030 0.999930 0.035660 -0.626554
O43   O     O_R   0.000070 0.551030 0.035660 -0.634440
O44   O     O_R   0.448970 0.000070 0.035660 -0.626499
O45   O     O_R   0.499930 0.948970 0.535660 -0.628954
O46   O     O_R   0.051030 0.499930 0.535660 -0.628005
O47   O     O_R   0.500070 0.051030 0.535660 -0.624152
O48   O     O_R   0.948970 0.500070 0.535660 -0.628052
C57   C     C_R   0.000015 0.499893 0.047124 0.886716
C58   C     C_R   0.500110 0.000061 0.047141 0.885587
C59   C     C_R   0.500316 0.999888 0.547134 0.902272
C60   C     C_R   0.000117 0.500009 0.547148 0.886019
C61   C     C_R   0.035380 0.456374 0.762776 0.044165
C62   C     C_R   0.549062 0.032519 0.762766 0.044173
C63   C     C_R   0.967733 0.546164 0.762502 0.044159
C64   C     C_R   0.456897 0.963667 0.762494 0.044174
C65   C     C_R   0.534609 0.045788 0.262710 0.044201
C66   C     C_R   0.044774 0.535014 0.262624 0.044331
C67   C     C_R   0.460245 0.958037 0.262565 0.044224
C68   C     C_R   0.954113 0.464169 0.262587 0.044284
C69   C     C_R   0.001511 0.501267 0.775227 0.071784
C70   C     C_R   0.502565 0.998366 0.775216 0.071753
C71   C     C_R   0.497169 0.001974 0.275226 0.071549
C72   C     C_R   0.999374 0.499685 0.275194 0.071636
C73   C     C_R   0.072012 0.415699 0.776266 -0.216256
C74   C     C_R   0.590607 0.069957 0.776216 -0.216206
C75   C     C_R   0.931061 0.586883 0.775721 -0.216205
C76   C     C_R   0.414481 0.926802 0.775754 -0.216139
C77   C     C_R   0.573778 0.085657 0.276176 -0.216106
C78   C     C_R   0.085879 0.573148 0.275984 -0.216434
C79   C     C_R   0.420428 0.918393 0.275841 -0.216260
C80   C     C_R   0.912827 0.426274 0.275948 -0.216322
C81   C     C_R   0.072960 0.417268 0.801174 -0.138224
C82   C     C_R   0.588220 0.071531 0.801103 -0.138340
C83   C     C_R   0.929865 0.585245 0.800629 -0.138198
C84   C     C_R   0.415211 0.926332 0.800672 -0.138289
C85   C     C_R   0.574130 0.084221 0.301088 -0.138414
C86   C     C_R   0.084202 0.574274 0.300884 -0.138620
C87   C     C_R   0.419200 0.919940 0.300743 -0.138744
C88   C     C_R   0.914258 0.425494 0.300863 -0.138416
C89   C     C_R   0.037273 0.459185 0.813590 -0.020305
C90   C     C_R   0.544593 0.035686 0.813541 -0.020291
C91   C     C_R   0.965348 0.543227 0.813316 -0.020301
C92   C     C_R   0.458011 0.962721 0.813330 -0.020248
C93   C     C_R   0.535396 0.043178 0.313547 -0.020797
C94   C     C_R   0.041720 0.537313 0.313427 -0.020315
C95   C     C_R   0.457651 0.960894 0.313376 -0.020421
C96   C     C_R   0.956659 0.462578 0.313418 -0.020461
C97   C     C_R   0.001387 0.501235 0.800695 -0.051958
C98   C     C_R   0.501720 0.998927 0.800680 -0.051973
C99   C     C_R   0.496714 0.002038 0.300699 -0.051767
C100  C     C_R   0.999246 0.499863 0.300664 -0.051941
C101  C     C_R   0.037080 0.460426 0.838744 0.502113
C102  C     C_R   0.542504 0.036126 0.838684 0.501854
C103  C     C_R   0.965130 0.541779 0.838474 0.502169
C104  C     C_R   0.458597 0.963202 0.838492 0.502162
C105  C     C_R   0.534981 0.041798 0.338705 0.502030
C106  C     C_R   0.040341 0.537349 0.338580 0.501496
C107  C     C_R   0.457618 0.961997 0.338537 0.501301
C108  C     C_R   0.957914 0.462757 0.338579 0.501738
N1    N     N_R   0.000979 0.501027 0.850656 -0.353529
N2    N     N_R   0.500256 0.999813 0.850633 -0.353490
N3    N     N_R   0.496264 0.001762 0.350658 -0.353969
N4    N     N_R   0.999131 0.500070 0.350623 -0.353689
H9    H     H_    0.101902 0.382965 0.768091 0.143668
H10   H     H_    0.624675 0.100025 0.768010 0.143691
H11   H     H_    0.901281 0.619668 0.767327 0.143671
H12   H     H_    0.380951 0.896372 0.767403 0.143655
H13   H     H_    0.606109 0.117631 0.268002 0.143163
H14   H     H_    0.119057 0.604069 0.267708 0.143204
H15   H     H_    0.388331 0.886449 0.267504 0.143119
H16   H     H_    0.879700 0.395269 0.267676 0.143235
H17   H     H_    0.101781 0.385131 0.810676 0.189526
H18   H     H_    0.621068 0.100975 0.810572 0.189500
H19   H     H_    0.900968 0.617373 0.809915 0.189538
H20   H     H_    0.381764 0.897277 0.809989 0.189515
H21   H     H_    0.605038 0.115673 0.310559 0.189785
H22   H     H_    0.116687 0.604270 0.310280 0.189585
H23   H     H_    0.387945 0.888551 0.310069 0.189548
H24   H     H_    0.881672 0.395637 0.310258 0.189710
O49   O     O_2   0.073055 0.421694 0.851216 -0.565598
O50   O     O_2   0.582107 0.072869 0.851107 -0.565957
O51   O     O_2   0.928970 0.580424 0.850676 -0.565597
O52   O     O_2   0.418255 0.926924 0.850743 -0.566184
O53   O     O_2   0.573394 0.079742 0.351140 -0.564191
O54   O     O_2   0.079555 0.574688 0.350920 -0.565636
O55   O     O_2   0.419008 0.923915 0.350807 -0.565540
O56   O     O_2   0.918627 0.425542 0.350923 -0.565156
C109  C     C_R   0.532191 0.047942 0.237266 0.044571
C110  C     C_R   0.047266 0.531575 0.237226 0.044554
C111  C     C_R   0.463892 0.955461 0.237168 0.044554
C112  C     C_R   0.951931 0.467203 0.237157 0.044540
C113  C     C_R   0.031997 0.453917 0.737363 0.044488
C114  C     C_R   0.552123 0.028727 0.737386 0.044433
C115  C     C_R   0.971160 0.548517 0.737092 0.044476
C116  C     C_R   0.455382 0.966531 0.737057 0.044493
C117  C     C_R   0.498372 0.001578 0.224631 0.071564
C118  C     C_R   0.999671 0.499300 0.224605 0.071325
C119  C     C_R   0.001555 0.501170 0.724641 0.071276
C120  C     C_R   0.504085 0.997486 0.724636 0.071309
C121  C     C_R   0.434669 0.907837 0.223779 -0.216396
C122  C     C_R   0.903196 0.439640 0.223746 -0.216550
C123  C     C_R   0.562115 0.095301 0.223915 -0.216375
C124  C     C_R   0.096182 0.558907 0.223918 -0.216640
C125  C     C_R   0.945614 0.597020 0.723607 -0.216466
C126  C     C_R   0.406343 0.939989 0.723512 -0.216290
C127  C     C_R   0.057544 0.405342 0.724141 -0.216455
C128  C     C_R   0.601973 0.054767 0.724223 -0.216534
C129  C     C_R   0.436987 0.907154 0.198884 -0.141870
C130  C     C_R   0.902910 0.441226 0.198832 -0.141834
C131  C     C_R   0.561116 0.095483 0.198997 -0.141739
C132  C     C_R   0.096728 0.557016 0.199015 -0.141842
C133  C     C_R   0.947361 0.597375 0.698699 -0.142310
C134  C     C_R   0.406536 0.941607 0.698601 -0.142298
C135  C     C_R   0.055629 0.404756 0.699231 -0.142333
C136  C     C_R   0.602961 0.052812 0.699320 -0.141949
C137  C     C_R   0.468328 0.953916 0.186378 -0.021481
C138  C     C_R   0.951200 0.470131 0.186338 -0.020988
C139  C     C_R   0.530430 0.048476 0.186433 -0.021603
C140  C     C_R   0.048535 0.528015 0.186431 -0.021090
C141  C     C_R   0.974389 0.549369 0.686290 -0.020568
C142  C     C_R   0.455634 0.969501 0.686244 -0.020706
C143  C     C_R   0.028442 0.452603 0.686558 -0.020547
C144  C     C_R   0.554287 0.025054 0.686598 -0.020848
C145  C     C_R   0.499046 0.001322 0.199164 -0.053777
C146  C     C_R   0.999806 0.499140 0.199141 -0.052702
C147  C     C_R   0.001472 0.501053 0.699179 -0.052443
C148  C     C_R   0.504690 0.997311 0.699175 -0.052461
C149  C     C_R   0.529856 0.047744 0.161284 0.492033
C150  C     C_R   0.047975 0.526927 0.161289 0.489750
C151  C     C_R   0.470084 0.954231 0.161241 0.492405
C152  C     C_R   0.951928 0.471084 0.161193 0.489770
C153  C     C_R   0.027239 0.453054 0.661413 0.489196
C154  C     C_R   0.553992 0.024245 0.661448 0.488817
C155  C     C_R   0.975268 0.548595 0.661150 0.489172
C156  C     C_R   0.456651 0.970745 0.661109 0.489928
N5    N     N_R   0.500196 0.000921 0.149317 -0.356378
N6    N     N_R   0.999971 0.499010 0.149301 -0.355420
N7    N     N_R   0.001155 0.500736 0.649340 -0.354417
N8    N     N_R   0.505370 0.997815 0.649337 -0.354747
H25   H     H_    0.410788 0.869312 0.232024 0.142881
H26   H     H_    0.863529 0.417712 0.231981 0.143024
H27   H     H_    0.585574 0.133987 0.232184 0.142844
H28   H     H_    0.135780 0.580899 0.232238 0.143031
H29   H     H_    0.925211 0.636436 0.731789 0.143374
H30   H     H_    0.366058 0.918950 0.731634 0.143385
H31   H     H_    0.078026 0.366013 0.732534 0.143369
H32   H     H_    0.641911 0.075798 0.732667 0.143403
H33   H     H_    0.413834 0.869677 0.189460 0.187978
H34   H     H_    0.864522 0.419456 0.189386 0.188268
H35   H     H_    0.584749 0.132781 0.189605 0.187993
H36   H     H_    0.135220 0.578662 0.189649 0.188269
H37   H     H_    0.927137 0.635555 0.689190 0.187938
H38   H     H_    0.367831 0.920735 0.689050 0.188168
H39   H     H_    0.075805 0.366497 0.689930 0.187944
H40   H     H_    0.642122 0.073522 0.690062 0.187997
O57   O     O_2   0.558458 0.093419 0.148843 -0.574618
O58   O     O_2   0.094665 0.553840 0.148865 -0.573090
O59   O     O_2   0.442064 0.908346 0.148766 -0.574639
O60   O     O_2   0.905319 0.444110 0.148674 -0.573117
O61   O     O_2   0.052222 0.406569 0.649070 -0.574863
O62   O     O_2   0.601474 0.050076 0.649142 -0.574275
O63   O     O_2   0.950132 0.594924 0.648551 -0.574958
O64   O     O_2   0.409587 0.944960 0.648474 -0.573800
C157  C     C_R   0.981669 0.447777 0.888956 -0.097305
C158  C     C_R   0.552368 0.981541 0.889128 -0.098865
C159  C     C_R   0.019379 0.553653 0.889056 -0.097175
C160  C     C_R   0.447454 0.017885 0.888834 -0.097474
C161  C     C_R   0.513489 0.948070 0.388866 -0.100349
C162  C     C_R   0.052107 0.482640 0.389016 -0.098760
C163  C     C_R   0.480352 0.053824 0.389110 -0.095772
C164  C     C_R   0.946590 0.517300 0.388920 -0.098296
H41   H     H_    0.966700 0.406898 0.879320 0.148942
H42   H     H_    0.592989 0.966996 0.879647 0.148676
H43   H     H_    0.034560 0.594698 0.879501 0.149068
H44   H     H_    0.406925 0.032414 0.879120 0.149143
H45   H     H_    0.526428 0.907320 0.379161 0.147372
H46   H     H_    0.092857 0.468779 0.379454 0.147985
H47   H     H_    0.466795 0.094905 0.379599 0.147055
H48   H     H_    0.905705 0.531183 0.379281 0.148251
C165  C     C_R   0.981876 0.447359 0.913945 -0.218523
C166  C     C_R   0.552471 0.982007 0.914106 -0.219338
C167  C     C_R   0.018664 0.553623 0.914042 -0.218787
C168  C     C_R   0.447142 0.017451 0.913831 -0.220684
C169  C     C_R   0.514101 0.947520 0.413855 -0.218599
C170  C     C_R   0.052488 0.483056 0.414002 -0.219872
C171  C     C_R   0.481698 0.053612 0.414095 -0.224255
C172  C     C_R   0.946583 0.516856 0.413911 -0.220136
H49   H     H_    0.967071 0.405892 0.923315 0.160918
H50   H     H_    0.593456 0.967828 0.923616 0.161811
H51   H     H_    0.033308 0.594914 0.923490 0.160896
H52   H     H_    0.406115 0.031649 0.923137 0.161491
H53   H     H_    0.527438 0.906046 0.423158 0.161512
H54   H     H_    0.093808 0.469512 0.423439 0.161362
H55   H     H_    0.469033 0.094793 0.423586 0.158879
H56   H     H_    0.905412 0.530393 0.423279 0.161349
C173  C     C_R   0.000156 0.500373 0.926645 -0.048852
C174  C     C_R   0.499783 0.999785 0.926621 -0.047927
C175  C     C_R   0.498553 0.000421 0.426633 -0.043024
C176  C     C_R   0.999638 0.499965 0.426613 -0.048246
C177  C     C_R   0.000668 0.500823 0.876399 0.304920
C178  C     C_R   0.499999 0.999758 0.876375 0.305507
C179  C     C_R   0.496548 0.001176 0.376392 0.307068
C180  C     C_R   0.999265 0.499996 0.376364 0.306273
C181  C     C_R   0.550142 0.975099 0.111151 0.193652
C182  C     C_R   0.024603 0.449100 0.111039 0.193486
C183  C     C_R   0.450632 0.026630 0.110855 0.193473
C184  C     C_R   0.975277 0.549494 0.110945 0.193248
C185  C     C_R   0.949219 0.476003 0.611088 0.191759
C186  C     C_R   0.527718 0.948210 0.610790 0.194322
C187  C     C_R   0.052342 0.524842 0.610972 0.191751
C188  C     C_R   0.481345 0.050017 0.611268 0.190392
C189  C     C_R   0.549656 0.975541 0.086055 -0.244316
C190  C     C_R   0.023465 0.449557 0.085956 -0.246212
C191  C     C_R   0.451058 0.025676 0.085773 -0.244240
C192  C     C_R   0.976479 0.549496 0.085868 -0.246138
C193  C     C_R   0.949320 0.476798 0.586000 -0.244932
C194  C     C_R   0.525013 0.948878 0.585724 -0.246796
C195  C     C_R   0.051733 0.523671 0.585889 -0.244944
C196  C     C_R   0.480682 0.050057 0.586176 -0.242444
C197  C     C_R   0.500303 0.000421 0.073375 -0.108799
C198  C     C_R   0.999988 0.499644 0.073363 -0.102123
C199  C     C_R   0.000399 0.500143 0.573393 -0.111927
C200  C     C_R   0.501873 0.999575 0.573392 -0.109944
C201  C     C_3   0.803666 0.384195 0.010551 -0.351081
C202  C     C_3   0.755290 0.332904 0.014563 -0.910639
H57   H     H_    0.737037 0.334621 0.033143 0.263922
H58   H     H_    0.716848 0.337138 0.001461 0.270634
H59   H     H_    0.776736 0.287556 0.011931 0.253083
H60   H     H_    0.821275 0.379232 0.991971 0.219749
H61   H     H_    0.841781 0.376620 0.023554 0.222715
C203  C     C_3   0.589776 0.815044 0.030531 -0.375386
C204  C     C_3   0.626070 0.774055 0.047642 -0.897868
H62   H     H_    0.595652 0.755885 0.062142 0.259857
H63   H     H_    0.646528 0.735300 0.037739 0.268148
H64   H     H_    0.664129 0.801540 0.056041 0.252308
H65   H     H_    0.622617 0.833726 0.016946 0.226162
H66   H     H_    0.571981 0.853775 0.041270 0.206043
C205  C     C_3   0.196681 0.615859 0.009787 -0.349892
C206  C     C_3   0.245225 0.667187 0.013451 -0.911468
H67   H     H_    0.264035 0.665754 0.032014 0.263248
H68   H     H_    0.283291 0.662796 0.000322 0.271183
H69   H     H_    0.223709 0.712503 0.010619 0.252923
H70   H     H_    0.178512 0.620492 0.991204 0.219405
H71   H     H_    0.158985 0.623747 0.022802 0.222826
C207  C     C_3   0.414146 0.183996 0.031741 -0.376794
C208  C     C_3   0.380025 0.224451 0.049495 -0.896668
H72   H     H_    0.412294 0.242474 0.063459 0.260138
H73   H     H_    0.358058 0.263296 0.039989 0.268261
H74   H     H_    0.343289 0.196604 0.058534 0.251938
H75   H     H_    0.379582 0.165321 0.018758 0.226110
H76   H     H_    0.433627 0.145175 0.042128 0.204698
C209  C     C_3   0.303113 0.884074 0.490250 -0.354572
C210  C     C_3   0.254452 0.832828 0.486459 -0.898637
H77   H     H_    0.216056 0.837431 0.499419 0.267995
H78   H     H_    0.236108 0.834246 0.467826 0.262806
H79   H     H_    0.275713 0.787441 0.489418 0.252292
H80   H     H_    0.340910 0.876212 0.477278 0.222980
H81   H     H_    0.321150 0.879302 0.508846 0.220401
C211  C     C_3   0.093611 0.314457 0.528979 -0.373617
C212  C     C_3   0.132148 0.273140 0.545180 -0.883951
H82   H     H_    0.103909 0.255184 0.560365 0.261626
H83   H     H_    0.150667 0.234223 0.534784 0.264093
H84   H     H_    0.171684 0.300288 0.552673 0.255631
H85   H     H_    0.124381 0.332734 0.514610 0.224950
H86   H     H_    0.077952 0.353380 0.540131 0.215323
C213  C     C_3   0.696616 0.115888 0.510066 -0.348458
C214  C     C_3   0.745038 0.167230 0.514006 -0.911325
H87   H     H_    0.763632 0.165336 0.532596 0.260988
H88   H     H_    0.783292 0.163329 0.500930 0.272081
H89   H     H_    0.723456 0.212571 0.511328 0.252934
H90   H     H_    0.678611 0.120915 0.491477 0.222113
H91   H     H_    0.658769 0.123404 0.523052 0.221363
C215  C     C_3   0.910342 0.684556 0.530337 -0.374931
C216  C     C_3   0.873873 0.725370 0.547225 -0.880398
H92   H     H_    0.904112 0.743290 0.561870 0.261728
H93   H     H_    0.853630 0.764307 0.537183 0.264100
H94   H     H_    0.835634 0.697846 0.555441 0.255860
H95   H     H_    0.877640 0.666157 0.516597 0.225300
H96   H     H_    0.927948 0.645629 0.541184 0.213970
C217  C     C_3   0.603530 0.945688 0.124080 -0.404765
C218  C     C_3   0.662476 0.984991 0.121819 -0.827142
H97   H     H_    0.676142 0.989958 0.102707 0.251769
H98   H     H_    0.655629 0.031290 0.129562 0.295328
H99   H     H_    0.700473 0.962671 0.131742 0.245179
H100  H     H_    0.593798 0.938402 0.143431 0.213016
H101  H     H_    0.611282 0.899494 0.116324 0.205000
C219  C     C_3   0.052550 0.394831 0.123825 -0.398284
C220  C     C_3   0.122671 0.396274 0.121420 -0.845771
H102  H     H_    0.136292 0.393368 0.102264 0.253817
H103  H     H_    0.142390 0.439360 0.129248 0.290507
H104  H     H_    0.142077 0.356515 0.131197 0.248994
H105  H     H_    0.041035 0.393859 0.143203 0.214658
H106  H     H_    0.033451 0.351386 0.116043 0.208241
C221  C     C_3   0.397283 0.056353 0.123445 -0.405499
C222  C     C_3   0.338284 0.017083 0.121236 -0.827459
H107  H     H_    0.324597 0.011739 0.102113 0.251970
H108  H     H_    0.345064 0.970938 0.129282 0.295207
H109  H     H_    0.300324 0.039660 0.130904 0.245080
H110  H     H_    0.407039 0.064026 0.142780 0.212755
H111  H     H_    0.389580 0.102400 0.115389 0.205105
C223  C     C_3   0.947299 0.603542 0.123622 -0.398317
C224  C     C_3   0.877184 0.602139 0.120977 -0.846188
H112  H     H_    0.863607 0.605407 0.101775 0.253841
H113  H     H_    0.857452 0.558903 0.128740 0.290386
H114  H     H_    0.857752 0.641712 0.130685 0.249078
H115  H     H_    0.958763 0.604183 0.143039 0.214418
H116  H     H_    0.966412 0.647124 0.115893 0.208313
C225  C     C_3   0.893615 0.448530 0.623906 -0.401627
C226  C     C_3   0.892246 0.378507 0.622088 -0.840968
H117  H     H_    0.889027 0.363874 0.603035 0.252535
H118  H     H_    0.934562 0.359532 0.630296 0.289815
H119  H     H_    0.851456 0.359470 0.631821 0.249645
H120  H     H_    0.893044 0.461105 0.643174 0.215268
H121  H     H_    0.850813 0.466876 0.615822 0.207977
C227  C     C_3   0.554911 0.893069 0.623254 -0.397831
C228  C     C_3   0.624826 0.892636 0.620195 -0.845320
H122  H     H_    0.637168 0.889455 0.600915 0.253812
H123  H     H_    0.646169 0.935169 0.627870 0.290025
H124  H     H_    0.643728 0.852298 0.629760 0.250352
H125  H     H_    0.544604 0.892275 0.642737 0.214642
H126  H     H_    0.534164 0.850187 0.615605 0.208691
C229  C     C_3   0.108198 0.552512 0.623657 -0.401911
C230  C     C_3   0.109489 0.622507 0.621498 -0.839874
H127  H     H_    0.112293 0.636887 0.602374 0.252806
H128  H     H_    0.067337 0.641570 0.629615 0.289792
H129  H     H_    0.150476 0.641694 0.631137 0.249783
H130  H     H_    0.109177 0.540190 0.642986 0.215383
H131  H     H_    0.150843 0.534081 0.615665 0.208095
C231  C     C_3   0.456063 0.104891 0.624292 -0.403749
C232  C     C_3   0.385743 0.104737 0.623037 -0.838127
H132  H     H_    0.369779 0.107520 0.604103 0.253721
H133  H     H_    0.366247 0.062184 0.631427 0.290061
H134  H     H_    0.368372 0.145068 0.632888 0.248772
H135  H     H_    0.470116 0.105782 0.643451 0.215528
H136  H     H_    0.474925 0.147970 0.616063 0.207872
H137  H     H_    0.587383 0.955264 0.076391 0.162442
H138  H     H_    0.041878 0.411019 0.076250 0.163480
H139  H     H_    0.413299 0.045776 0.075892 0.162929
H140  H     H_    0.958110 0.588224 0.076097 0.163616
H141  H     H_    0.909680 0.458268 0.576294 0.165416
H142  H     H_    0.541802 0.909902 0.575822 0.164217
H143  H     H_    0.091172 0.542073 0.576096 0.165687
H144  H     H_    0.462639 0.089300 0.576619 0.166613
C233  C     C_3   0.795550 0.563727 0.020588 -0.391875
C234  C     C_3   0.827738 0.581293 0.044151 -0.862453
H145  H     H_    0.818858 0.545213 0.057963 0.260666
H146  H     H_    0.878207 0.587300 0.041654 0.273400
H147  H     H_    0.809589 0.625422 0.050775 0.243640
H148  H     H_    0.805477 0.599536 0.006764 0.216215
H149  H     H_    0.745509 0.565962 0.024139 0.227024
C235  C     C_3   0.430390 0.784953 0.997286 -0.393627
C236  C     C_3   0.389050 0.773838 0.019092 -0.824345
H150  H     H_    0.407380 0.736832 0.030676 0.258297
H151  H     H_    0.385530 0.816653 0.029766 0.266722
H152  H     H_    0.342107 0.759762 0.012989 0.245887
H153  H     H_    0.405565 0.815710 0.984749 0.218058
H154  H     H_    0.433956 0.742225 0.986819 0.206901
C237  C     C_3   0.204961 0.436373 0.020685 -0.392611
C238  C     C_3   0.173313 0.418976 0.044326 -0.861838
H155  H     H_    0.182693 0.455056 0.058017 0.260685
H156  H     H_    0.122751 0.413174 0.041892 0.272742
H157  H     H_    0.191465 0.374789 0.051077 0.243756
H158  H     H_    0.194694 0.400472 0.007004 0.216386
H159  H     H_    0.255093 0.434177 0.024217 0.227110
C239  C     C_3   0.568551 0.215051 0.995606 -0.393861
C240  C     C_3   0.612859 0.226552 0.016591 -0.822941
H160  H     H_    0.596552 0.264296 0.028126 0.257737
H161  H     H_    0.617334 0.184157 0.027586 0.267192
H162  H     H_    0.659074 0.239731 0.009559 0.244992
H163  H     H_    0.591664 0.184078 0.982804 0.216944
H164  H     H_    0.563435 0.257580 0.984996 0.206981
C241  C     C_3   0.294976 0.063752 0.479611 -0.401203
C242  C     C_3   0.326228 0.081157 0.455895 -0.843436
H165  H     H_    0.376921 0.086305 0.458120 0.270948
H166  H     H_    0.316032 0.045379 0.442166 0.260539
H167  H     H_    0.308416 0.125666 0.449333 0.244799
H168  H     H_    0.244794 0.066161 0.476236 0.228014
H169  H     H_    0.305601 0.099563 0.493291 0.214897
C243  C     C_3   0.929180 0.285049 0.499642 -0.387252
C244  C     C_3   0.891167 0.275401 0.522440 -0.836014
H170  H     H_    0.911794 0.239862 0.534126 0.258930
H171  H     H_    0.888472 0.319162 0.532568 0.261495
H172  H     H_    0.843659 0.259953 0.517571 0.247411
H173  H     H_    0.902645 0.315127 0.487409 0.219179
H174  H     H_    0.930971 0.241641 0.489508 0.207110
C245  C     C_3   0.705069 0.936254 0.520546 -0.393382
C246  C     C_3   0.673544 0.918587 0.544184 -0.861997
H175  H     H_    0.682972 0.954524 0.557926 0.261010
H176  H     H_    0.622975 0.912783 0.541779 0.272083
H177  H     H_    0.691752 0.874340 0.550847 0.244203
H178  H     H_    0.694753 0.900497 0.506814 0.215156
H179  H     H_    0.755214 0.934028 0.524038 0.227169
C247  C     C_3   0.069761 0.715195 0.497511 -0.389062
C248  C     C_3   0.111358 0.726326 0.519353 -0.827153
H180  H     H_    0.092176 0.761984 0.531196 0.258593
H181  H     H_    0.116417 0.683030 0.529748 0.261340
H182  H     H_    0.157764 0.742334 0.513334 0.241960
H183  H     H_    0.094595 0.684656 0.485064 0.218084
H184  H     H_    0.065914 0.757994 0.486968 0.206245
H185  H     H_    0.688760 0.436861 0.031559 0.176335
H186  H     H_    0.524796 0.694422 0.037182 0.175480
H187  H     H_    0.311783 0.563139 0.031171 0.176551
H188  H     H_    0.479262 0.304686 0.037371 0.175553
H189  H     H_    0.188268 0.937229 0.468806 0.176967
H190  H     H_    0.028391 0.194124 0.537065 0.174669
H191  H     H_    0.811806 0.062967 0.531255 0.176316
H192  H     H_    0.975894 0.804927 0.537293 0.175029

loop_
_geom_bond_atom_site_label_1
_geom_bond_atom_site_label_2
_geom_bond_distance
_ccdc_geom_bond_type
C64   C76   1.414604 A    
C216  H94   1.110523 S    
C76   H12   1.077127 S    
C8    C41   1.437458 S    
C143  C153  1.400912 A    
C164  C172  1.392214 A    
C225  C226  1.526096 S    
C14   C22   1.366110 D    
C68   C72   1.419937 A    
Zn6   O42   2.020263 S    
C238  H156  1.108480 S    
O15   Zn4   2.002523 S    
C207  H76   1.112160 S    
C236  H150  1.109472 S    
C221  H111  1.111676 S    
C67   C71   1.420001 A    
C79   H15   1.077038 S    
C102  N2    1.368706 A    
O2    Zn1   1.996590 S    
C89   C97   1.407540 A    
C171  H55   1.083087 S    
O26   Zn6   1.993571 S    
C172  H56   1.083082 S    
C215  H96   1.112110 S    
C211  H86   1.112067 S    
C84   C92   1.396264 A    
C105  N3    1.368405 A    
C239  H163  1.111561 S    
C227  C228  1.526427 S    
C144  C148  1.408656 A    
C181  C189  1.398067 A    
C42   H6    1.088639 S    
C105  O53   1.349923 S    
C30   H186  1.086174 S    
C129  H33   1.083503 S    
C212  H84   1.110502 S    
C209  H80   1.111444 S    
C132  H36   1.083489 S    
C89   C101  1.401705 A    
C133  H37   1.083491 S    
C23   C237  1.538717 S    
O24   Zn12  2.020260 S    
C168  C174  1.403458 A    
C189  H137  1.084194 S    
C134  C142  1.395743 A    
O3    C3    1.282240 A    
C92   C98   1.407630 A    
O37   Zn11  1.989342 S    
C79   C87   1.388159 A    
O7    C7    1.282988 A    
O37   C53   1.278621 A    
C110  C118  1.419953 A    
C75   C83   1.388215 A    
C243  H174  1.103291 S    
C219  H106  1.111569 S    
O39   C55   1.278587 A    
C33   H189  1.086536 S    
O17   C45   1.281027 A    
C25   C53   1.476140 S    
C162  C170  1.391952 A    
C172  C176  1.403589 A    
C36   H192  1.086207 S    
C14   C203  1.527395 S    
C111  C121  1.414906 A    
Zn11  O47   2.017620 S    
O31   C55   1.284207 A    
C96   C100  1.407589 A    
C224  H114  1.110309 S    
O35   Zn5   1.989342 S    
O33   C49   1.278101 A    
Zn8   O44   2.017309 S    
C202  H57   1.110712 S    
C134  H38   1.083490 S    
C149  N5    1.366083 A    
C206  H69   1.110494 S    
C85   C93   1.396109 A    
C241  H168  1.105848 S    
C232  H133  1.110746 S    
C82   H18   1.083468 S    
C205  C206  1.530055 S    
C78   C86   1.388109 A    
C247  H184  1.103315 S    
C228  H124  1.110308 S    
O12   C4    1.275175 A    
O1    Zn1   2.002432 S    
C92   C104  1.401824 A    
O13   C5    1.278904 A    
C157  C177  1.401438 A    
C237  H159  1.105967 S    
C71   C99   1.419176 A    
O32   Zn12  1.993571 S    
C5    C42   1.440284 S    
C217  H100  1.109400 S    
O27   C51   1.284104 A    
C7    C44   1.440034 S    
C74   H10   1.077187 S    
C43   H7    1.088483 S    
C153  N7    1.366119 A    
C195  H143  1.084127 S    
O36   C52   1.266428 A    
C15   C31   1.466189 S    
C69   C97   1.418800 A    
C16   C24   1.365818 D    
C17   C209  1.526127 S    
C242  H165  1.108763 S    
C133  C141  1.395796 A    
C213  C214  1.530612 S    
C62   C70   1.419941 A    
C63   C75   1.414526 A    
C246  H175  1.111064 S    
C19   C27   1.367458 D    
C236  H152  1.108557 S    
C20   C28   1.366451 D    
C88   H24   1.083475 S    
C81   H17   1.083482 S    
C90   C102  1.401641 A    
C213  H91   1.111479 S    
C202  H59   1.110489 S    
C214  H88   1.111068 S    
O18   Zn6   2.017299 S    
C161  C179  1.401120 A    
C80   H16   1.077108 S    
O25   Zn5   2.005031 S    
O38   C54   1.267889 A    
C118  C146  1.418593 A    
C18   C211  1.526736 S    
O8    Zn2   1.999574 S    
C84   H20   1.083470 S    
C220  H102  1.110788 S    
C131  H35   1.083502 S    
C235  H154  1.103254 S    
O10   C2    1.275401 A    
C15   C205  1.525825 S    
C222  H108  1.110184 S    
C203  C204  1.530520 S    
C163  H47   1.082893 S    
O44   C58   1.277847 A    
O30   Zn10  1.993571 S    
C156  O64   1.349763 S    
C48   C176  1.464722 S    
C223  H115  1.108945 S    
O4    C4    1.287100 A    
C159  C167  1.392068 A    
C240  H162  1.108483 S    
C61   C69   1.419843 A    
O34   C50   1.267147 A    
C161  C169  1.392146 A    
C29   H185  1.086510 S    
C143  C147  1.408487 A    
C31   H187  1.086547 S    
C122  C130  1.388230 A    
O6    C6    1.286650 A    
C204  H62   1.110641 S    
O23   Zn11  2.020344 S    
C186  C194  1.397390 A    
C20   C36   1.465104 S    
O13   Zn4   2.005285 S    
C224  H112  1.110759 S    
C95   C107  1.401929 A    
C210  H77   1.110707 S    
C201  H61   1.111505 S    
C203  H66   1.112177 S    
C116  C126  1.414718 A    
C233  C234  1.529703 S    
C227  H126  1.111564 S    
C47   C175  1.464804 S    
C113  C119  1.419898 A    
C183  C221  1.514075 S    
C222  H107  1.110502 S    
C207  C208  1.530404 S    
C193  C199  1.398275 A    
C28   C247  1.541688 S    
C115  C125  1.414731 A    
C29   C37   1.333214 D    
C162  H46   1.082906 S    
Zn7   O43   2.017620 S    
O3    Zn1   2.005195 S    
C213  H90   1.111166 S    
C139  C145  1.408478 A    
C32   C40   1.331491 D    
C39   H3    1.088489 S    
C6    C43   1.438020 S    
C33   C41   1.332855 D    
C158  H42   1.082916 S    
C82   C90   1.396336 A    
C153  O61   1.349717 S    
C35   C43   1.333154 D    
C225  H120  1.108905 S    
C36   C44   1.331133 D    
C15   C23   1.367241 D    
C182  C219  1.513516 S    
C16   C32   1.464985 S    
C246  H177  1.110548 S    
C231  H136  1.111614 S    
C1    C38   1.440326 S    
C17   C33   1.465790 S    
C164  H48   1.082892 S    
C248  H182  1.109805 S    
C165  H49   1.083111 S    
O28   C52   1.284719 A    
C20   C215  1.527082 S    
O35   C51   1.278521 A    
C31   C39   1.333052 D    
C154  N8    1.366056 A    
O40   C56   1.267021 A    
C187  C229  1.513513 S    
O40   Zn10  2.011670 S    
C219  C220  1.526440 S    
C192  H140  1.083803 S    
C220  H104  1.110310 S    
O20   C46   1.279235 A    
C9    N5    1.431576 S    
C137  C151  1.401008 A    
C87   C95   1.396111 A    
C121  H25   1.077020 S    
C91   C97   1.407540 A    
C77   H13   1.076980 S    
C244  H171  1.110987 S    
C83   C91   1.396333 A    
O47   C59   1.280806 A    
C240  H160  1.109479 S    
C9    C183  1.414055 A    
C37   H1    1.088510 S    
C206  H68   1.111031 S    
C9    C181  1.414194 A    
C68   C80   1.414612 A    
C160  H44   1.082877 S    
C34   H190  1.086197 S    
C138  C146  1.408503 A    
C94   C100  1.407572 A    
C245  H179  1.105924 S    
C130  H34   1.083489 S    
C204  H64   1.110543 S    
C67   C79   1.414746 A    
O12   Zn3   1.996705 S    
C63   C115  1.418449 A    
C208  H74   1.110565 S    
C218  H98   1.110216 S    
C248  H180  1.109327 S    
O26   C50   1.285102 A    
C106  N4    1.368571 A    
C101  O49   1.349911 S    
O5    Zn2   2.002433 S    
N4    C180  1.433967 S    
C104  N2    1.368573 A    
C216  H93   1.110997 S    
C109  C123  1.414968 A    
C170  C176  1.403519 A    
C221  H110  1.109366 S    
C86   C94   1.396241 A    
C222  H109  1.110338 S    
C194  H142  1.083820 S    
C245  C246  1.529757 S    
C226  H119  1.110338 S    
C184  C223  1.513587 S    
O16   Zn4   1.996705 S    
O1    C1    1.282513 A    
C130  C138  1.395727 A    
C70   C98   1.418850 A    
O14   C6    1.275449 A    
C158  C178  1.401144 A    
C76   C84   1.388183 A    
C217  C218  1.526385 S    
O27   Zn7   2.005031 S    
C234  H147  1.110549 S    
C186  C227  1.513566 S    
C239  H164  1.103257 S    
C26   C54   1.464909 S    
O34   Zn8   2.011670 S    
O8    C8    1.275148 A    
C104  O52   1.349888 S    
C60   C199  1.462109 S    
C62   C74   1.414490 A    
C155  O63   1.349716 S    
C18   C26   1.366438 D    
C19   C213  1.525895 S    
C16   C207  1.527622 S    
C194  C200  1.398709 A    
C2    C39   1.437848 S    
C108  N4    1.368567 A    
Zn9   O45   2.020363 S    
C235  C236  1.527810 S    
C126  C134  1.388072 A    
O29   C53   1.283951 A    
C103  N1    1.368674 A    
O41   C57   1.280412 A    
C121  C129  1.388130 A    
C120  C148  1.418522 A    
C57   C198  1.461676 S    
C144  C154  1.401198 A    
C108  O56   1.349898 S    
O24   C48   1.279055 A    
C166  C174  1.403426 A    
C127  H31   1.077178 S    
Zn5   O41   2.020363 S    
C128  H32   1.077191 S    
C245  H178  1.111270 S    
O11   C3    1.279726 A    
C91   C103  1.401747 A    
C154  O62   1.349643 S    
C67   C111  1.418750 A    
C124  H28   1.077123 S    
O45   C59   1.280478 A    
C125  H29   1.077184 S    
C202  H58   1.110912 S    
C66   C110  1.418475 A    
C61   C73   1.414502 A    
C226  H117  1.110720 S    
C233  H149  1.105914 S    
C13   C29   1.467369 S    
C182  C190  1.397450 A    
C106  O54   1.349924 S    
C11   C187  1.413638 A    
C230  H127  1.110711 S    
C124  C132  1.388150 A    
C138  C152  1.400985 A    
C237  H158  1.111266 S    
O10   Zn3   1.999698 S    
C19   C35   1.466322 S    
C190  H138  1.083858 S    
C127  C135  1.388231 A    
C228  H123  1.110877 S    
C208  H72   1.110629 S    
C209  C210  1.531441 S    
O4    Zn1   1.999573 S    
O48   C60   1.278188 A    
C10   C184  1.413769 A    
C109  C117  1.420082 A    
O7    Zn2   2.005196 S    
C21   C233  1.539004 S    
O22   Zn10  2.017299 S    
C242  H166  1.111010 S    
O18   C46   1.278528 A    
C66   C78   1.414567 A    
C229  H131  1.111601 S    
C188  C231  1.513583 S    
C238  H155  1.111063 S    
C126  H30   1.077100 S    
C246  H176  1.108461 S    
O29   Zn9   2.005031 S    
C207  H75   1.110602 S    
C236  H151  1.110905 S    
C142  C156  1.400657 A    
C112  C122  1.414819 A    
C187  C195  1.397633 A    
C141  C147  1.408492 A    
C232  H132  1.110656 S    
C122  H26   1.077099 S    
C163  C179  1.400985 A    
C114  C128  1.414813 A    
O30   C54   1.285906 A    
C157  C165  1.392068 A    
C215  H95   1.110643 S    
C68   C112  1.418610 A    
C234  H145  1.111068 S    
C150  N6    1.366053 A    
C73   H9    1.077196 S    
C110  C124  1.414792 A    
O36   Zn6   2.011670 S    
C160  C168  1.392584 A    
O5    C5    1.283227 A    
C30   C38   1.331684 D    
C229  C230  1.526086 S    
C189  C197  1.398114 A    
C63   C69   1.419854 A    
C61   C113  1.418430 A    
C140  C150  1.400910 A    
C93   C105  1.401761 A    
C155  N7    1.366128 A    
C18   C34   1.465218 S    
C150  O58   1.349711 S    
C27   C245  1.538823 S    
O9    C1    1.279565 A    
C10   C182  1.413741 A    
C164  C180  1.401291 A    
O33   Zn7   1.989342 S    
C223  H116  1.111570 S    
O43   C57   1.280312 A    
C45   C173  1.464381 S    
C240  H161  1.110888 S    
C26   C243  1.541484 S    
C243  H173  1.110974 S    
C113  C127  1.414743 A    
N1    C177  1.434153 S    
C219  H105  1.108971 S    
C59   C200  1.462995 S    
N3    C179  1.433584 S    
C90   C98   1.407479 A    
C13   C201  1.525542 S    
C169  C175  1.403521 A    
C112  C118  1.419998 A    
Zn12  O48   2.017309 S    
C35   H191  1.086542 S    
C211  H85   1.110670 S    
C78   H14   1.077136 S    
C24   C239  1.540117 S    
O14   Zn4   1.999698 S    
O39   Zn9   1.989342 S    
C210  H78   1.110676 S    
C201  H60   1.111155 S    
O17   Zn5   2.017609 S    
C215  C216  1.530634 S    
C34   C42   1.331619 D    
C234  H146  1.108323 S    
O19   Zn7   2.020344 S    
C11   C185  1.413710 A    
C230  H129  1.110338 S    
C205  H71   1.111483 S    
C129  C137  1.395637 A    
C74   C82   1.388183 A    
C117  C145  1.418867 A    
C241  H169  1.111295 S    
C232  H134  1.110334 S    
C107  O55   1.349892 S    
C188  C196  1.397839 A    
C229  H130  1.108917 S    
O23   C47   1.281054 A    
C167  H51   1.083112 S    
C28   C56   1.462989 S    
C247  H183  1.111228 S    
C114  C120  1.419800 A    
C21   C49   1.477154 S    
C96   C108  1.401814 A    
C101  N1    1.368673 A    
O46   C60   1.278283 A    
C23   C51   1.476341 S    
C224  H113  1.110844 S    
C210  H79   1.110474 S    
C87   H23   1.083487 S    
C217  H101  1.111648 S    
O28   Zn8   1.993571 S    
C40   H4    1.088435 S    
C239  C240  1.527773 S    
C125  C133  1.388250 A    
C221  C222  1.526404 S    
C93   C99   1.407599 A    
C80   C88   1.388202 A    
C123  C131  1.388162 A    
C11   N7    1.431314 S    
C242  H167  1.110505 S    
C238  H157  1.110543 S    
C75   H11   1.077183 S    
C72   C100  1.418912 A    
C115  C119  1.419897 A    
C248  H181  1.110921 S    
C231  C232  1.525969 S    
C162  C180  1.401246 A    
O2    C2    1.286634 A    
C185  C193  1.397667 A    
C64   C116  1.418495 A    
C196  C200  1.398378 A    
C214  H87   1.110746 S    
C24   C52   1.459957 S    
C73   C81   1.388192 A    
C216  H92   1.110665 S    
C196  H144  1.084055 S    
C201  C202  1.529775 S    
C149  O57   1.349584 S    
C152  O60   1.349699 S    
C128  C136  1.388364 A    
C66   C72   1.419917 A    
C152  N6    1.366068 A    
C220  H103  1.110837 S    
C235  H153  1.111298 S    
O21   C47   1.281384 A    
C65   C109  1.418820 A    
C142  C148  1.408327 A    
C111  C117  1.420123 A    
C181  C217  1.513941 S    
C135  C143  1.395783 A    
C244  H170  1.109522 S    
C140  C146  1.408518 A    
C206  H67   1.110730 S    
C103  O51   1.349908 S    
C119  C147  1.418477 A    
C209  H81   1.111181 S    
C38   H2    1.088509 S    
C12   C186  1.413377 A    
C116  C120  1.420064 A    
C135  H39   1.083496 S    
C136  H40   1.083480 S    
C159  C177  1.401371 A    
C241  C242  1.529579 S    
C156  N8    1.366158 A    
C77   C85   1.388066 A    
C168  H52   1.083085 S    
C83   H19   1.083480 S    
C205  H70   1.111182 S    
C169  H53   1.083062 S    
O16   C8    1.286672 A    
C163  C171  1.392062 A    
C208  H73   1.110936 S    
C218  H99   1.110337 S    
C159  H43   1.082895 S    
C190  C198  1.398140 A    
N2    C178  1.434088 S    
C22   C50   1.461962 S    
O32   C56   1.285783 A    
C203  H65   1.110627 S    
C227  H125  1.108996 S    
C14   C30   1.464909 S    
C212  H83   1.110934 S    
C13   C21   1.367084 D    
C10   N6    1.431194 S    
C192  C198  1.398079 A    
C237  C238  1.529782 S    
C167  C173  1.403449 A    
O19   C45   1.281075 A    
C107  N3    1.368283 A    
C171  C175  1.403888 A    
Zn10  O46   2.020263 S    
C95   C99   1.407736 A    
C247  C248  1.528349 S    
O38   Zn12  2.011670 S    
O20   Zn8   2.020260 S    
C170  H54   1.083088 S    
C225  H121  1.111601 S    
C85   H21   1.083490 S    
C185  C225  1.513528 S    
C191  C197  1.398136 A    
C212  H82   1.110670 S    
C231  H135  1.108862 S    
C166  H50   1.083112 S    
C151  N5    1.366117 A    
C137  C145  1.408413 A    
O21   Zn9   2.017609 S    
C25   C241  1.538740 S    
C27   C55   1.476610 S    
C62   C114  1.418470 A    
C123  H27   1.076984 S    
C214  H89   1.110486 S    
C102  O50   1.349930 S    
O25   C49   1.284915 A    
C211  C212  1.530574 S    
C158  C166  1.391554 A    
C223  C224  1.526431 S    
C64   C70   1.419824 A    
C41   H5    1.088537 S    
O31   Zn11  2.005031 S    
O6    Zn2   1.996591 S    
C12   N8    1.431316 S    
C193  H141  1.084128 S    
C65   C71   1.420136 A    
C94   C106  1.401673 A    
C151  O59   1.349614 S    
C191  H139  1.084211 S    
C3    C40   1.440175 S    
C184  C192  1.397311 A    
C131  C139  1.395614 A    
C244  H172  1.109009 S    
C22   C235  1.540687 S    
C165  C173  1.403376 A    
C195  C199  1.398325 A    
C12   C188  1.413875 A    
C226  H118  1.110822 S    
C233  H148  1.111270 S    
C46   C174  1.464437 S    
O15   C7    1.278955 A    
C243  C244  1.527980 S    
C230  H128  1.110818 S    
C183  C191  1.397533 A    
C44   H8    1.088590 S    
C32   H188  1.086165 S    
C132  C140  1.395704 A    
O9    Zn3   2.005285 S    
O11   Zn3   2.002523 S    
C86   H22   1.083473 S    
O22   C48   1.278856 A    
C65   C77   1.414721 A    
C88   C96   1.396267 A    
C204  H63   1.110952 S    
C228  H122  1.110745 S    
C161  H45   1.082897 S    
C136  C144  1.395779 A    
C218  H97   1.110514 S    
C141  C155  1.400915 A    
O42   C58   1.278268 A    
C81   C89   1.396338 A    
C4    C37   1.438299 S    
C17   C25   1.367537 D    
C139  C149  1.401120 A    
C157  H41   1.082897 S    
C58   C197  1.461461 S    
C160  C178  1.401575 A    
