data_mof_unit_53089.cif
_audit_creation_date              2012-12-11T17:02:22-0500
_audit_creation_method            fapswitch 2.2
_symmetry_space_group_name_H-M    P1
_symmetry_Int_Tables_number       1
_space_group_crystal_system       triclinic
_cell_length_a                    21.746177
_cell_length_b                    7.066993
_cell_length_c                    14.866552
_cell_angle_alpha                 89.895584
_cell_angle_beta                  107.106652
_cell_angle_gamma                 89.735068
_cell_volume                      2183.5800655

loop_
_atom_site_label
_atom_site_type_symbol
_atom_type_description
_atom_site_fract_x
_atom_site_fract_y
_atom_site_fract_z
_atom_type_partial_charge
O1    O     O_R   0.585850 0.505770 0.002130 -0.535602
O2    O     O_R   0.414150 0.005770 0.997870 -0.537487
O3    O     O_R   0.467530 0.173560 0.861970 -0.515189
O4    O     O_R   0.532470 0.673560 0.138030 -0.536806
C1    C     C_R   0.458273 0.345079 0.823876 0.764562
C2    C     C_R   0.542684 0.844367 0.175450 0.719420
O5    O     O_R   0.588690 0.175900 0.993250 -0.541208
O6    O     O_R   0.411310 0.675900 0.006750 -0.545895
O7    O     O_R   0.536170 0.007950 0.130090 -0.546915
O8    O     O_R   0.463830 0.507950 0.869910 -0.553035
C3    C     C_R   0.615117 0.344292 0.998053 0.709165
C4    C     C_R   0.384896 0.844798 0.001877 0.698907
O9    O     O_3   0.482630 0.339970 0.044740 -0.383547
O10   O     O_3   0.517370 0.839970 0.955260 -0.367577
V1    V     V_3+5 0.503220 0.064200 0.991700 1.427044
V2    V     V_3+5 0.496780 0.564200 0.008300 1.399211
C5    C     C_R   0.292041 0.005825 0.040551 0.112079
C6    C     C_R   0.707505 0.505836 0.959026 0.109651
C7    C     C_R   0.316653 0.852246 0.002636 -0.169343
C8    C     C_R   0.683274 0.351382 0.996773 -0.176773
C9    C     C_R   0.273683 0.705555 0.962758 -0.189607
C10   C     C_R   0.726619 0.203856 0.036155 -0.188589
H1    H     H_    0.290585 0.586398 0.930754 0.151104
H2    H     H_    0.710024 0.083936 0.067848 0.148576
C11   C     C_R   0.207307 0.719169 0.954109 0.330205
C12   C     C_R   0.792964 0.217328 0.044769 0.335012
C13   C     C_R   0.182883 0.876731 0.993166 -0.202657
C14   C     C_R   0.817038 0.376485 0.006392 -0.209102
C15   C     C_R   0.227050 0.016995 0.036724 0.037013
C16   C     C_R   0.772496 0.517222 0.963154 0.048255
C17   C     C_3   0.224525 0.222243 0.012128 -0.345300
C18   C     C_3   0.774668 0.721746 0.987949 -0.351184
C19   C     C_3   0.295146 0.210363 0.018343 -0.386054
C20   C     C_3   0.703919 0.710390 0.981061 -0.384293
H3    H     H_    0.215144 0.313982 0.067024 0.180047
H4    H     H_    0.784702 0.813492 0.933444 0.181381
H5    H     H_    0.192965 0.247986 0.939464 0.215566
H6    H     H_    0.805860 0.745534 0.060893 0.217893
H7    H     H_    0.326546 0.290474 0.078667 0.171825
H8    H     H_    0.672588 0.791442 0.920515 0.173419
H9    H     H_    0.304576 0.235084 0.949688 0.180056
H10   H     H_    0.694093 0.734595 0.049464 0.184034
C21   C     C_R   0.921777 0.891890 0.722680 -0.177497
C22   C     C_R   0.081515 0.387766 0.277186 -0.165864
C23   C     C_R   0.565280 0.845456 0.279228 -0.242397
C24   C     C_R   0.440353 0.347331 0.718811 -0.206058
C25   C     C_R   0.928859 0.992921 0.569051 0.365439
C26   C     C_R   0.076182 0.431516 0.437095 0.349918
C27   C     C_R   0.958009 0.958796 0.666132 0.144228
C28   C     C_R   0.045676 0.390495 0.341390 0.130483
C29   C     C_R   0.855613 0.858159 0.683725 0.188208
C30   C     C_R   0.149417 0.396518 0.310337 0.187544
C31   C     C_R   0.827543 0.862246 0.584046 -0.052898
C32   C     C_R   0.181352 0.391516 0.409192 -0.051954
C33   C     C_R   0.863711 0.939139 0.526659 -0.075633
C34   C     C_R   0.144591 0.430599 0.471988 -0.075021
C35   C     C_R   0.763050 0.802198 0.540803 -0.050452
C36   C     C_R   0.248637 0.350888 0.447287 -0.043236
C37   C     C_R   0.731470 0.850790 0.446185 0.008722
C38   C     C_R   0.281106 0.393439 0.542579 0.000887
C39   C     C_R   0.769117 0.905783 0.387836 0.314711
C40   C     C_R   0.244283 0.440124 0.603670 0.299349
C41   C     C_R   0.833884 0.959867 0.428018 0.218839
C42   C     C_R   0.177003 0.461241 0.568683 0.218100
C43   C     C_R   0.731088 0.678748 0.586428 -0.120678
C44   C     C_R   0.282735 0.248566 0.395875 -0.144556
C45   C     C_R   0.667192 0.628080 0.546301 0.367129
C46   C     C_R   0.347326 0.198585 0.434008 0.359358
C47   C     C_R   0.631006 0.712731 0.460617 -0.128750
C48   C     C_R   0.381116 0.250464 0.527698 -0.093326
C49   C     C_R   0.663361 0.826915 0.410232 -0.031544
C50   C     C_R   0.349287 0.366800 0.577700 -0.031532
C51   C     C_R   0.563527 0.689642 0.425102 0.340165
C52   C     C_R   0.443901 0.181821 0.574954 0.295730
C53   C     C_R   0.532034 0.738516 0.330292 0.171845
C54   C     C_R   0.470647 0.217133 0.672823 0.163838
C55   C     C_R   0.626351 0.917299 0.326298 0.290014
C56   C     C_R   0.386187 0.447881 0.663781 0.286976
H11   H     H_    0.756847 0.605653 0.650411 0.174027
H12   H     H_    0.258682 0.191773 0.327234 0.180274
O11   O     O_R   0.036080 0.231270 0.130120 -0.541952
O12   O     O_R   0.963920 0.731270 0.869880 -0.550312
O13   O     O_R   0.911300 0.558970 0.006750 -0.539096
O14   O     O_R   0.088700 0.058970 0.993250 -0.535536
C57   C     C_R   0.885239 0.389620 0.004157 0.676180
C58   C     C_R   0.114611 0.889301 0.995189 0.702051
O15   O     O_R   0.032450 0.561140 0.138040 -0.543949
O16   O     O_R   0.967550 0.061140 0.861960 -0.531573
O17   O     O_R   0.085870 0.728910 0.002130 -0.536316
O18   O     O_R   0.914130 0.228910 0.997870 -0.534867
C59   C     C_R   0.047721 0.392811 0.175099 0.775829
C60   C     C_R   0.951487 0.893918 0.825418 0.784169
O19   O     O_3   0.017320 0.394650 0.955270 -0.372608
O20   O     O_3   0.982680 0.894650 0.044730 -0.374291
V3    V     V_3+5 0.996780 0.670490 0.008300 1.413395
V4    V     V_3+5 0.003220 0.170490 0.991700 1.434860
O21   O     O_3   0.642910 0.490267 0.591753 -0.640756
H13   H     H_    0.615631 0.406001 0.543090 0.306693
O22   O     O_3   0.374750 0.094367 0.377626 -0.624767
H14   H     H_    0.414975 0.159333 0.377755 0.320754
O23   O     O_3   0.962720 0.077562 0.514382 -0.629403
H15   H     H_    0.004415 0.126417 0.553247 0.315306
O24   O     O_3   0.039806 0.466774 0.497553 -0.625468
H16   H     H_    0.995921 0.507617 0.461163 0.306511
N1    N     N_2   0.023011 0.007148 0.711139 -0.534200
H17   H     H_    0.033157 0.147851 0.707360 0.253130
C61   C     C_3   0.070331 0.874631 0.698493 -0.568229
H18   H     H_    0.118548 0.914138 0.745061 0.188187
H19   H     H_    0.071409 0.875356 0.624296 0.223761
H20   H     H_    0.058813 0.730060 0.717691 0.222444
N2    N     N_2   0.979826 0.336401 0.311159 -0.535524
H21   H     H_    0.965197 0.260310 0.360178 0.318353
C62   C     C_3   0.933788 0.478096 0.262888 -0.581522
H22   H     H_    0.898756 0.504412 0.302779 0.190555
H23   H     H_    0.906776 0.424881 0.192815 0.195396
H24   H     H_    0.957526 0.612543 0.253590 0.208437
N3    N     N_2   0.815822 0.850180 0.744838 -0.532423
H25   H     H_    0.835540 0.781349 0.808002 0.245033
C63   C     C_3   0.785062 0.027927 0.754666 -0.516115
H26   H     H_    0.750062 0.005121 0.794883 0.189463
H27   H     H_    0.758299 0.086352 0.684551 0.215609
H28   H     H_    0.821621 0.131864 0.792848 0.185651
N4    N     N_2   0.185099 0.424789 0.244790 -0.536176
H29   H     H_    0.165168 0.366351 0.179380 0.238760
C64   C     C_3   0.207207 0.616375 0.240347 -0.497421
H30   H     H_    0.236976 0.622535 0.191176 0.192325
H31   H     H_    0.237257 0.663198 0.310807 0.214862
H32   H     H_    0.165486 0.714008 0.214428 0.186101
O25   O     O_3   0.744207 0.876755 0.291806 -0.649642
H33   H     H_    0.766336 0.956349 0.256522 0.303886
O26   O     O_3   0.272789 0.428461 0.699784 -0.647803
H34   H     H_    0.255686 0.530970 0.730976 0.295898
O27   O     O_3   0.529721 0.622391 0.484085 -0.633929
H35   H     H_    0.483272 0.649850 0.456407 0.341130
O28   O     O_3   0.474982 0.063892 0.528163 -0.639451
H36   H     H_    0.521937 0.069332 0.559011 0.303702
O29   O     O_3   0.167913 0.583345 0.900559 -0.666210
H37   H     H_    0.124180 0.636512 0.874121 0.288582
O30   O     O_3   0.832524 0.079155 0.097458 -0.664726
H38   H     H_    0.876259 0.130385 0.124343 0.297049
N5    N     N_2   0.868473 0.038350 0.369097 -0.473112
H39   H     H_    0.844890 0.145010 0.324601 0.254896
C65   C     C_3   0.899581 0.901167 0.324970 -0.480823
H40   H     H_    0.863220 0.814702 0.273874 0.188720
H41   H     H_    0.931912 0.808644 0.379269 0.216075
H42   H     H_    0.928955 0.974074 0.286030 0.207362
N6    N     N_2   0.141977 0.510681 0.632322 -0.468238
H43   H     H_    0.158103 0.631778 0.670083 0.240571
C66   C     C_3   0.131449 0.356557 0.689857 -0.440788
H44   H     H_    0.176505 0.315325 0.744271 0.202880
H45   H     H_    0.112749 0.232119 0.644987 0.200670
H46   H     H_    0.096245 0.402446 0.726330 0.187147
N7    N     N_2   0.648490 0.088120 0.294928 -0.484803
H47   H     H_    0.637421 0.108756 0.223460 0.272543
C67   C     C_3   0.640096 0.255744 0.345792 -0.544762
H48   H     H_    0.661435 0.379489 0.320045 0.201737
H49   H     H_    0.664767 0.238068 0.422209 0.198172
H50   H     H_    0.588092 0.283857 0.334698 0.191683
N8    N     N_2   0.368995 0.630365 0.690841 -0.504696
H51   H     H_    0.385904 0.668295 0.760236 0.275961
C68   C     C_3   0.372140 0.783130 0.627520 -0.494237
H52   H     H_    0.357138 0.917736 0.653560 0.188223
H53   H     H_    0.339316 0.756916 0.555876 0.208810
H54   H     H_    0.422173 0.797659 0.623921 0.219881
N9    N     N_2   0.466338 0.687360 0.288141 -0.502082
H55   H     H_    0.441394 0.769345 0.231582 0.255038
C69   C     C_3   0.454536 0.486770 0.272986 -0.527883
H56   H     H_    0.401877 0.461295 0.248308 0.194787
H57   H     H_    0.475127 0.405917 0.339074 0.197211
H58   H     H_    0.476249 0.433752 0.219026 0.216402
N10   N     N_2   0.525536 0.112632 0.726766 -0.510739
H59   H     H_    0.529137 0.975515 0.705173 0.267120
C70   C     C_3   0.585716 0.214209 0.750634 -0.485999
H60   H     H_    0.601285 0.236050 0.686805 0.215135
H61   H     H_    0.623257 0.130275 0.802297 0.182423
H62   H     H_    0.580893 0.353292 0.782684 0.192267

loop_
_geom_bond_atom_site_label_1
_geom_bond_atom_site_label_2
_ccdc_geom_bond_type
C65   H42   S    
C44   C46   A    
N10   H59   S    
O16   V4    S    
O4    V2    S    
N9    H55   S    
C25   O23   S    
C2    C23   S    
O15   C59   A    
C67   H49   S    
C5    C15   A    
C31   C33   A    
N6    H43   S    
O1    C3    A    
C26   C34   A    
O2    C4    A    
C2    O7    A    
C24   C54   A    
C68   H52   S    
O28   H36   S    
C25   C27   A    
C70   H60   S    
O5    C3    A    
N10   C70   S    
O23   H15   S    
C52   C54   A    
N1    H17   S    
C20   H8    S    
C18   H4    S    
N6    C66   S    
O14   C58   A    
C62   H22   S    
C66   H45   S    
C30   N4    S    
N4    C64   S    
C13   C15   A    
C38   C50   A    
C36   C38   A    
C65   H40   S    
O12   C60   A    
C38   C40   A    
O14   V4    S    
C47   C49   A    
C50   C56   A    
O24   H16   S    
C55   N7    S    
C53   N9    S    
C36   C44   A    
N2    H21   S    
C20   H10   S    
C43   C45   A    
C33   C41   A    
C48   C52   A    
C64   H32   S    
C40   C42   A    
C61   H18   S    
C17   C19   S    
N3    C63   S    
C47   C51   A    
C6    C16   A    
C18   H6    S    
N7    C67   S    
C6    C8    A    
C39   O25   S    
C62   H24   S    
C22   C30   A    
C70   H61   S    
O6    V2    S    
C67   H50   S    
C61   H19   S    
N9    C69   S    
N5    H39   S    
C5    C19   S    
C68   H53   S    
C30   C32   A    
O21   H13   S    
C69   H58   S    
C63   H27   S    
C57   O18   A    
C32   C34   A    
C3    C8    S    
C37   C39   A    
O16   C60   A    
N4    H29   S    
C69   H57   S    
C12   O30   S    
C66   H46   S    
C69   H56   S    
C24   C56   A    
O11   V4    S    
C31   C35   A    
C21   C27   A    
C27   N1    S    
O5    V1    S    
C26   O24   S    
C17   H5    S    
O15   V3    S    
C29   C31   A    
C18   C20   S    
O17   V3    S    
C13   C58   S    
C11   O29   S    
N1    C61   S    
N8    H51   S    
O6    C4    A    
O13   V3    S    
C52   O28   S    
C43   H11   S    
C39   C41   A    
C41   N5    S    
N2    C62   S    
O1    V2    S    
C19   H7    S    
C63   H26   S    
O20   V4    S    
O2    V1    S    
C6    C20   S    
C22   C59   S    
C54   N10   S    
O4    C2    A    
O13   C57   A    
C8    C10   A    
O19   V4    S    
C9    H1    S    
C42   N6    S    
C10   C12   A    
C64   H30   S    
C29   N3    S    
C61   H20   S    
C17   H3    S    
C51   C53   A    
O26   H34   S    
C49   C55   A    
C68   H54   S    
O3    V1    S    
C25   C33   A    
O25   H33   S    
C32   C36   A    
C70   H62   S    
C22   C28   A    
C65   H41   S    
C9    C11   A    
O12   V3    S    
C7    C9    A    
C63   H28   S    
C40   O26   S    
C35   C43   A    
O3    C1    A    
C58   O17   A    
C48   C50   A    
O30   H38   S    
O18   V4    S    
C11   C13   A    
C44   H12   S    
O29   H37   S    
C12   C14   A    
C21   C60   S    
O22   H14   S    
C23   C53   A    
C19   H9    S    
N5    C65   S    
N8    C68   S    
O7    V1    S    
C46   O22   S    
C1    O8    A    
C15   C17   S    
O8    V2    S    
C66   H44   S    
C16   C18   S    
C21   C29   A    
C34   C42   A    
O27   H35   S    
C67   H48   S    
C4    C7    S    
C26   C28   A    
C28   N2    S    
C5    C7    A    
C14   C16   A    
C10   H2    S    
O20   V3    S    
C35   C37   A    
C45   O21   S    
O11   C59   A    
C56   N8    S    
O19   V3    S    
C51   O27   S    
O9    V2    S    
C14   C57   S    
C64   H31   S    
C46   C48   A    
O10   V1    S    
C23   C55   A    
C45   C47   A    
N7    H47   S    
N3    H25   S    
C1    C24   S    
C37   C49   A    
C62   H23   S    
