data_mof_unit_33587.cif
_audit_creation_date              2012-12-11T14:43:36-0500
_audit_creation_method            fapswitch 2.2
_symmetry_space_group_name_H-M    P1
_symmetry_Int_Tables_number       1
_space_group_crystal_system       triclinic
_cell_length_a                    20.989367
_cell_length_b                    7.090794
_cell_length_c                    16.313355
_cell_angle_alpha                 90.000025
_cell_angle_beta                  92.214712
_cell_angle_gamma                 90.0
_cell_volume                      2426.12386149

loop_
_atom_site_label
_atom_site_type_symbol
_atom_type_description
_atom_site_fract_x
_atom_site_fract_y
_atom_site_fract_z
_atom_type_partial_charge
O1    O     O_R   0.564840 0.505290 0.579830 -0.537816
O2    O     O_R   0.435160 0.005290 0.420170 -0.537816
O3    O     O_R   0.556720 0.179930 0.409350 -0.536984
O4    O     O_R   0.443280 0.679930 0.590650 -0.536984
C1    C     C_R   0.570291 0.345101 0.380675 0.693107
C2    C     C_R   0.429709 0.845101 0.619325 0.693108
O5    O     O_R   0.572280 0.175810 0.578530 -0.542738
O6    O     O_R   0.427720 0.675810 0.421470 -0.542738
O7    O     O_R   0.450830 0.001920 0.590540 -0.535760
O8    O     O_R   0.549170 0.501920 0.409460 -0.535760
C3    C     C_R   0.590754 0.343419 0.604226 0.706868
C4    C     C_R   0.409246 0.843419 0.395774 0.706867
O9    O     O_3   0.460130 0.338030 0.503750 -0.371247
O10   O     O_3   0.539870 0.838030 0.496250 -0.371247
V1    V     V_3+5 0.507400 0.064560 0.499310 1.398617
V2    V     V_3+5 0.492600 0.564560 0.500690 1.398617
C5    C     C_R   0.145474 0.929220 0.165148 -0.043359
C6    C     C_R   0.854526 0.429220 0.834852 -0.043356
C7    C     C_R   0.353483 0.841751 0.335404 -0.131820
C8    C     C_R   0.646517 0.341751 0.664596 -0.131819
C9    C     C_R   0.286370 0.651675 0.240590 -0.186895
C10   C     C_R   0.713630 0.151675 0.759410 -0.186895
C11   C     C_R   0.340835 0.673164 0.291496 -0.194728
C12   C     C_R   0.659164 0.173164 0.708504 -0.194729
C13   C     C_R   0.309796 0.993866 0.324972 0.205225
C14   C     C_R   0.690204 0.493866 0.675028 0.205224
C15   C     C_R   0.254853 0.971955 0.272119 0.121452
C16   C     C_R   0.745146 0.471955 0.727881 0.121452
C17   C     C_R   0.242686 0.799039 0.230591 0.110879
C18   C     C_R   0.757314 0.299039 0.769409 0.110880
C19   C     C_R   0.187674 0.777430 0.178386 -0.244850
C20   C     C_R   0.812326 0.277430 0.821614 -0.244849
C21   C     C_R   0.159104 0.100902 0.205834 -0.094102
C22   C     C_R   0.840896 0.600901 0.794166 -0.094103
C23   C     C_R   0.211950 0.121289 0.259052 -0.177247
C24   C     C_R   0.788050 0.621289 0.740948 -0.177246
H1    H     H_    0.179017 0.645599 0.146196 0.120390
H2    H     H_    0.820983 0.145599 0.853804 0.120388
H3    H     H_    0.129189 0.223384 0.195745 0.178399
H4    H     H_    0.870811 0.723384 0.804255 0.178396
H5    H     H_    0.278579 0.519067 0.208730 0.124261
H6    H     H_    0.721420 0.019067 0.791270 0.124261
H7    H     H_    0.219455 0.256678 0.288566 0.166751
H8    H     H_    0.780545 0.756678 0.711434 0.166750
H9    H     H_    0.373234 0.554615 0.296982 0.140150
H10   H     H_    0.626766 0.054615 0.703018 0.140150
C25   C     C_R   0.378978 0.885683 0.837597 -0.162426
C26   C     C_R   0.621022 0.385685 0.162403 -0.162426
H11   H     H_    0.468259 0.864748 0.778535 0.100679
H12   H     H_    0.531741 0.364750 0.221465 0.100678
H13   H     H_    0.298378 0.918034 0.958080 0.121273
H14   H     H_    0.701622 0.418039 0.041920 0.121273
H15   H     H_    0.402043 0.894182 0.898083 0.112219
H16   H     H_    0.597957 0.394186 0.101917 0.112219
C27   C     C_R   0.388814 0.856354 0.690804 -0.040197
C28   C     C_R   0.611186 0.356354 0.309196 -0.040198
C29   C     C_R   0.078436 0.893611 0.728102 0.455995
C30   C     C_R   0.921564 0.393608 0.271897 0.455995
C31   C     C_R   0.114718 0.882868 0.658408 -0.137421
C32   C     C_R   0.885283 0.382865 0.341592 -0.137421
C33   C     C_R   0.180844 0.882294 0.664337 -0.247452
C34   C     C_R   0.819156 0.382292 0.335663 -0.247452
C35   C     C_R   0.213908 0.890485 0.741132 0.086687
C36   C     C_R   0.786092 0.390485 0.258868 0.086687
C37   C     C_R   0.177222 0.905886 0.813177 0.009527
C38   C     C_R   0.822778 0.405886 0.186823 0.009527
C39   C     C_R   0.282215 0.882356 0.748561 0.098160
C40   C     C_R   0.717785 0.382357 0.251439 0.098160
C41   C     C_R   0.312218 0.892763 0.827968 0.133872
C42   C     C_R   0.687782 0.392765 0.172032 0.133873
C43   C     C_R   0.275573 0.910035 0.897410 -0.198819
C44   C     C_R   0.724427 0.410038 0.102590 -0.198820
C45   C     C_R   0.209348 0.916063 0.890322 -0.162615
C46   C     C_R   0.790651 0.416066 0.109678 -0.162615
C47   C     C_R   0.322073 0.863224 0.680219 -0.215505
C48   C     C_R   0.677927 0.363224 0.319781 -0.215505
C49   C     C_R   0.416848 0.868328 0.769638 -0.169571
C50   C     C_R   0.583152 0.368330 0.230362 -0.169571
C51   C     C_R   0.109125 0.907736 0.806615 -0.233224
C52   C     C_R   0.890875 0.407736 0.193385 -0.233223
H17   H     H_    0.303118 0.854075 0.618050 0.090554
H18   H     H_    0.696882 0.354073 0.381949 0.090554
H19   H     H_    0.204584 0.873199 0.607151 0.141477
H20   H     H_    0.795416 0.373197 0.392849 0.141478
H21   H     H_    0.091641 0.871309 0.598108 0.197978
H22   H     H_    0.908359 0.371304 0.401892 0.197979
H23   H     H_    0.183489 0.928094 0.946238 0.089756
H24   H     H_    0.816511 0.428098 0.053762 0.089756
O11   O     O_R   0.950790 0.256670 0.090520 -0.525772
O12   O     O_R   0.049210 0.756670 0.909480 -0.525773
O13   O     O_R   0.927720 0.590370 0.921470 -0.545221
O14   O     O_R   0.072280 0.090370 0.078530 -0.545220
C53   C     C_R   0.909576 0.423082 0.895624 0.727056
C54   C     C_R   0.090424 0.923082 0.104376 0.727057
O15   O     O_R   0.943270 0.586180 0.090640 -0.530373
O16   O     O_R   0.056730 0.086180 0.909360 -0.530373
O17   O     O_R   0.064850 0.759970 0.079840 -0.525996
O18   O     O_R   0.935150 0.259970 0.920160 -0.525996
C55   C     C_R   0.930284 0.417461 0.119466 0.790333
C56   C     C_R   0.069715 0.917461 0.880534 0.790332
O19   O     O_3   0.039850 0.428050 0.996240 -0.378238
O20   O     O_3   0.960150 0.928050 0.003760 -0.378239
V3    V     V_3+5 0.992610 0.701540 0.000700 1.541445
V4    V     V_3+5 0.007390 0.201540 0.999300 1.541447
S1    S     S_3+6 0.994684 0.873636 0.714378 -0.001627
O21   O     O_2   0.974413 0.916934 0.626961 -0.315603
O22   O     O_2   0.976529 0.674148 0.733703 -0.340319
O23   O     O_3   0.957529 0.022184 0.777052 -0.517211
H25   H     H_    0.913286 0.031172 0.754018 0.347519
S2    S     S_3+6 0.005315 0.373631 0.285622 -0.001629
O24   O     O_2   0.025587 0.416926 0.373039 -0.315605
O25   O     O_2   0.023471 0.174144 0.266295 -0.340318
O26   O     O_3   0.042472 0.522180 0.222948 -0.517213
H26   H     H_    0.086713 0.531177 0.245985 0.347521
N1    N     N_2   0.319428 0.168020 0.367231 -0.543303
H27   H     H_    0.363486 0.229276 0.361441 0.269673
C57   C     C_3   0.295544 0.173630 0.449183 -0.471755
H28   H     H_    0.322323 0.073635 0.489995 0.176128
H29   H     H_    0.244055 0.136796 0.447830 0.207047
H30   H     H_    0.301270 0.318247 0.474515 0.196716
N2    N     N_2   0.680572 0.668020 0.632769 -0.543303
H31   H     H_    0.636514 0.729276 0.638559 0.269674
C58   C     C_3   0.704457 0.673630 0.550817 -0.471753
H32   H     H_    0.677677 0.573634 0.510005 0.176127
H33   H     H_    0.755945 0.636796 0.552170 0.207047
H34   H     H_    0.698730 0.818247 0.525485 0.196716

loop_
_geom_bond_atom_site_label_1
_geom_bond_atom_site_label_2
_ccdc_geom_bond_type
C29   S1    S    
C35   C37   A    
C28   C48   A    
C15   C17   A    
C29   C51   A    
C1    C28   S    
O1    C3    A    
C2    C27   S    
O2    C4    A    
C2    O7    A    
C37   C45   A    
C58   H32   S    
C26   H16   S    
S1    O22   D    
C21   H3    S    
H13   C43   S    
O11   C55   A    
C37   C51   A    
C36   C40   A    
C13   N1    S    
C27   C49   A    
O15   C55   A    
C58   H33   S    
C30   C32   A    
N1    H27   S    
C38   C46   A    
C28   C50   A    
O23   H25   S    
C32   C34   A    
C26   C50   A    
C41   C43   A    
S2    O24   D    
C25   C41   A    
C34   C36   A    
C45   H23   S    
C8    C12   A    
N1    C57   S    
C14   N2    S    
C20   H2    S    
C23   H7    S    
O13   V3    S    
C22   C24   A    
C30   C52   A    
C25   H15   S    
C27   C47   A    
O5    V1    S    
O6    V2    S    
C17   C19   A    
C5    C21   A    
C11   H9    S    
H12   C50   S    
O12   C56   A    
O15   V3    S    
O5    C3    A    
S1    O23   S    
C35   C39   A    
C3    C8    S    
C31   C33   A    
C51   C56   S    
C44   C46   A    
C33   H19   S    
C57   H30   S    
C48   H18   S    
C43   C45   A    
C32   H22   S    
C47   H17   S    
C58   H34   S    
C54   O17   A    
C15   C23   A    
C9    C17   A    
C19   H1    S    
C39   C41   A    
C36   C38   A    
O4    V2    S    
C7    C11   A    
C31   H21   S    
H14   C44   S    
O13   C53   A    
O6    C4    A    
O14   C54   A    
O1    V2    S    
O20   V4    S    
O2    V1    S    
C6    C22   A    
S2    O26   S    
N2    H31   S    
O17   V3    S    
C9    H5    S    
O4    C2    A    
O19   V4    S    
C9    C11   A    
O11   V4    S    
C13   C15   A    
C5    C19   A    
C22   H4    S    
C24   H8    S    
C6    C20   A    
C25   C49   A    
O3    V1    S    
O26   H26   S    
C6    C53   S    
O16   V4    S    
C34   H20   S    
C10   C18   A    
C30   S2    S    
C33   C35   A    
C26   C42   A    
O3    C1    A    
C40   C48   A    
C38   C52   A    
S1    O21   D    
C14   C16   A    
C12   H10   S    
C57   H29   S    
O7    V1    S    
C1    O8    A    
C52   C55   S    
O8    V2    S    
C57   H28   S    
C18   C20   A    
C10   H6    S    
C8    C14   A    
O18   V4    S    
O16   C56   A    
C4    C7    S    
C16   C18   A    
C21   C23   A    
H11   C49   S    
C10   C12   A    
O20   V3    S    
C7    C13   A    
S2    O25   D    
O12   V3    S    
N2    C58   S    
C29   C31   A    
O14   V4    S    
C39   C47   A    
C16   C24   A    
O19   V3    S    
O9    V2    S    
C40   C42   A    
O10   V1    S    
C42   C44   A    
C5    C54   S    
C46   H24   S    
C53   O18   A    
