data_mof_unit_59058.cif
_audit_creation_date              2012-12-11T15:35:40-0500
_audit_creation_method            fapswitch 2.2
_symmetry_space_group_name_H-M    P1
_symmetry_Int_Tables_number       1
_space_group_crystal_system       triclinic
_cell_length_a                    17.352197
_cell_length_b                    24.303684
_cell_length_c                    14.899643
_cell_angle_alpha                 89.935396
_cell_angle_beta                  124.772568
_cell_angle_gamma                 90.072967
_cell_volume                      5161.41237827

loop_
_atom_site_label
_atom_site_type_symbol
_atom_type_description
_atom_site_fract_x
_atom_site_fract_y
_atom_site_fract_z
_atom_type_partial_charge
C1    C     C_R   0.311653 0.127497 0.908464 -0.128449
C2    C     C_R   0.348760 0.848759 0.907972 -0.127485
C3    C     C_R   0.816368 0.632784 0.909452 -0.127441
C4    C     C_R   0.816670 0.366881 0.909446 -0.123199
C5    C     C_R   0.646642 0.151412 0.093528 -0.130985
C6    C     C_R   0.646778 0.848635 0.093708 -0.129678
C7    C     C_R   0.189520 0.623700 0.093091 -0.121114
C8    C     C_R   0.149552 0.349355 0.093958 -0.123450
C9    C     C_R   0.555318 0.845950 0.913364 -0.124961
C10   C     C_R   0.555331 0.153995 0.913085 -0.125260
C11   C     C_R   0.056455 0.346274 0.913342 -0.128245
C12   C     C_R   0.101344 0.624237 0.911642 -0.122737
C13   C     C_R   0.428510 0.999717 0.627258 -0.075126
C14   C     C_R   0.922584 0.498623 0.624910 -0.064646
C15   C     C_R   0.824620 0.999973 0.276917 -0.004247
C16   C     C_R   0.298796 0.499386 0.366229 -0.002507
C17   C     C_R   0.614805 0.185007 0.004815 0.034429
C18   C     C_R   0.614969 0.815003 0.005157 0.033925
C19   C     C_R   0.189734 0.636762 0.002824 0.026052
C20   C     C_R   0.118155 0.315762 0.005101 0.031125
C21   C     C_3   0.078729 0.948450 0.469434 -0.404676
C22   C     C_3   0.026940 0.998457 0.575387 -0.399421
C23   C     C_3   0.526691 0.447386 0.622094 -0.401455
C24   C     C_3   0.526018 0.550727 0.624343 -0.398377
C25   C     C_3   0.976777 0.948188 0.367871 -0.398264
C26   C     C_3   0.926418 0.999709 0.474286 -0.389256
C27   C     C_3   0.421360 0.447703 0.531846 -0.413535
C28   C     C_3   0.421203 0.551080 0.532061 -0.414489
C29   C     C_3   0.077768 0.051879 0.471686 -0.406030
C30   C     C_3   0.559204 0.500627 0.500394 -0.412370
C31   C     C_3   0.095862 0.999529 0.541450 0.400030
C32   C     C_3   0.573555 0.499634 0.612536 0.400081
C33   C     C_3   0.924360 0.999806 0.368633 0.392229
C34   C     C_3   0.396590 0.499464 0.459036 0.405458
C35   C     C_R   0.442420 0.847425 0.090513 -0.140923
C36   C     C_R   0.408344 0.133802 0.091159 -0.129806
C37   C     C_R   0.910597 0.364797 0.092206 -0.129529
C38   C     C_R   0.910705 0.635183 0.092213 -0.129851
C39   C     C_3   0.977104 0.051318 0.368010 -0.398224
C40   C     C_3   0.454968 0.499762 0.409866 -0.381082
C41   C     C_R   0.292079 0.731364 0.902451 -0.171591
C42   C     C_R   0.162451 0.189189 0.906644 -0.176650
C43   C     C_R   0.664792 0.308903 0.907583 -0.178078
C44   C     C_R   0.664870 0.691112 0.908005 -0.177568
C45   C     C_R   0.608678 0.269071 0.908772 -0.175549
C46   C     C_R   0.608873 0.730915 0.909326 -0.174015
C47   C     C_R   0.245860 0.685137 0.903513 -0.169937
C48   C     C_R   0.110134 0.231435 0.908077 -0.178074
C49   C     C_R   0.639565 0.242333 0.007183 0.142533
C50   C     C_R   0.639978 0.757718 0.007681 0.143412
C51   C     C_R   0.262819 0.666752 0.002671 0.145101
C52   C     C_R   0.142524 0.258328 0.006831 0.144576
C53   C     C_R   0.712187 0.265372 0.106284 -0.170256
C54   C     C_R   0.712922 0.734813 0.106741 -0.168379
C55   C     C_R   0.340792 0.686879 0.101209 -0.169224
C56   C     C_R   0.213172 0.234103 0.105705 -0.170529
C57   C     C_R   0.387262 0.732922 0.100249 -0.170249
C58   C     C_R   0.264846 0.191335 0.104352 -0.171690
C59   C     C_R   0.768042 0.305420 0.105247 -0.170304
C60   C     C_R   0.768611 0.694757 0.105594 -0.172193
C61   C     C_R   0.356334 0.758632 0.000633 0.142869
C62   C     C_R   0.246164 0.173603 0.004194 0.149314
C63   C     C_R   0.750427 0.322227 0.005128 0.150714
C64   C     C_R   0.750614 0.677787 0.005406 0.149891
C65   C     C_R   0.379021 0.949899 0.453399 -0.174499
C66   C     C_R   0.378240 0.048505 0.452057 -0.174416
C67   C     C_R   0.877938 0.447383 0.454711 -0.169151
C68   C     C_R   0.864428 0.545125 0.445417 -0.167617
C69   C     C_R   0.388945 0.949383 0.367847 -0.181739
C70   C     C_R   0.387183 0.048424 0.365706 -0.178647
C71   C     C_R   0.900783 0.447858 0.379913 -0.177610
C72   C     C_R   0.889632 0.546738 0.372124 -0.181444
C73   C     C_R   0.405908 0.998850 0.334450 0.151389
C74   C     C_R   0.919678 0.498153 0.350531 0.150203
C75   C     C_R   0.489031 0.044760 0.260036 -0.128819
C76   C     C_R   0.481477 0.953487 0.250164 -0.132998
C77   C     C_R   0.995030 0.545190 0.266465 -0.127306
C78   C     C_R   0.996890 0.454142 0.267451 -0.125383
C79   C     C_R   0.391269 0.999382 0.509059 0.141847
C80   C     C_R   0.880535 0.496765 0.505144 0.133903
C81   C     C_R   0.238844 0.953443 0.703807 -0.146530
C82   C     C_R   0.240043 0.045743 0.701227 -0.155228
C83   C     C_R   0.730317 0.453769 0.728518 -0.152066
C84   C     C_R   0.730127 0.545965 0.728014 -0.153199
C85   C     C_R   0.318397 0.145193 0.001228 0.042821
C86   C     C_R   0.379937 0.816288 0.999428 0.046159
C87   C     C_R   0.822936 0.649711 0.002325 0.043884
C88   C     C_R   0.823005 0.350110 0.002246 0.040619
C89   C     C_R   0.454305 0.998970 0.280967 0.044028
C90   C     C_R   0.969152 0.499313 0.297966 0.036786
C91   C     C_R   0.190354 0.999454 0.643181 -0.000334
C92   C     C_R   0.674153 0.499784 0.694809 0.014963
C93   C     C_R   0.449524 0.045166 0.695079 0.023169
C94   C     C_R   0.449688 0.954530 0.695566 0.023439
C95   C     C_R   0.944769 0.544678 0.692262 0.012907
C96   C     C_R   0.947780 0.454040 0.695291 0.022890
C97   C     C_R   0.767995 0.953688 0.248859 -0.139105
C98   C     C_R   0.768113 0.046301 0.249098 -0.138014
C99   C     C_R   0.253534 0.453611 0.303053 -0.141532
C100  C     C_R   0.252719 0.545530 0.304785 -0.155961
H1    H     H_    0.253352 0.132245 0.824545 0.088897
H2    H     H_    0.309173 0.835530 0.823765 0.083937
H3    H     H_    0.762789 0.643874 0.826675 0.080873
H4    H     H_    0.763584 0.355360 0.826788 0.083633
H5    H     H_    0.090718 0.909607 0.515022 0.143781
H6    H     H_    0.037844 0.960638 0.623640 0.157686
H7    H     H_    0.538302 0.445895 0.703648 0.160680
H8    H     H_    0.535794 0.549945 0.704947 0.161669
H9    H     H_    0.943145 0.909665 0.369466 0.145902
H10   H     H_    0.888151 0.963277 0.475770 0.154744
H11   H     H_    0.380583 0.447465 0.568459 0.157906
H12   H     H_    0.378873 0.551762 0.566698 0.157203
H13   H     H_    0.975599 0.947567 0.292425 0.158730
H14   H     H_    0.890835 0.037069 0.477286 0.155092
H15   H     H_    0.404566 0.409206 0.483979 0.145695
H16   H     H_    0.406245 0.589562 0.484484 0.146351
H17   H     H_    0.128856 0.054037 0.449213 0.158210
H18   H     H_    0.086089 0.089754 0.518163 0.145148
H19   H     H_    0.593663 0.464385 0.491605 0.156621
H20   H     H_    0.591476 0.538294 0.492332 0.158079
H21   H     H_    0.978314 0.051047 0.294140 0.160383
H22   H     H_    0.942508 0.090016 0.366453 0.144729
H23   H     H_    0.438844 0.462599 0.358239 0.159293
H24   H     H_    0.437294 0.536459 0.356560 0.156064
H25   H     H_    0.270816 0.748036 0.824211 0.103868
H26   H     H_    0.141650 0.173075 0.828258 0.104140
H27   H     H_    0.644539 0.325209 0.829450 0.104419
H28   H     H_    0.644375 0.674768 0.829857 0.104373
H29   H     H_    0.548047 0.255292 0.831377 0.122635
H30   H     H_    0.548046 0.744589 0.832016 0.121953
H31   H     H_    0.190778 0.667902 0.825823 0.112651
H32   H     H_    0.051266 0.246382 0.830562 0.123025
H33   H     H_    0.733543 0.248407 0.184346 0.105405
H34   H     H_    0.734558 0.751859 0.184799 0.104338
H35   H     H_    0.360039 0.671275 0.179403 0.103490
H36   H     H_    0.235720 0.251476 0.183850 0.105292
H37   H     H_    0.440613 0.750809 0.178055 0.104634
H38   H     H_    0.324317 0.176418 0.181706 0.103164
H39   H     H_    0.829022 0.318946 0.182746 0.103957
H40   H     H_    0.829731 0.681301 0.183039 0.102577
H41   H     H_    0.368063 0.910856 0.477334 0.148152
H42   H     H_    0.367253 0.087655 0.475493 0.146297
H43   H     H_    0.864945 0.408017 0.475795 0.148334
H44   H     H_    0.839841 0.582324 0.460255 0.141455
H45   H     H_    0.489499 0.833028 0.173474 0.083461
H46   H     H_    0.440967 0.149000 0.172879 0.082851
H47   H     H_    0.943295 0.350976 0.174760 0.081480
H48   H     H_    0.943731 0.649149 0.174728 0.081640
H49   H     H_    0.391412 0.910110 0.335557 0.113485
H50   H     H_    0.387545 0.087424 0.330876 0.108913
H51   H     H_    0.908959 0.408867 0.351430 0.108205
H52   H     H_    0.889782 0.585845 0.337460 0.111385
H53   H     H_    0.491575 0.086001 0.287204 0.084854
H54   H     H_    0.469418 0.910679 0.257367 0.095449
H55   H     H_    0.995302 0.586816 0.290538 0.082065
H56   H     H_    0.000072 0.412359 0.292515 0.081241
H57   H     H_    0.221150 0.910687 0.682776 0.080717
H58   H     H_    0.224079 0.088054 0.675797 0.077696
H59   H     H_    0.709078 0.412390 0.699495 0.075685
H60   H     H_    0.708491 0.587219 0.698088 0.075814
H61   H     H_    0.788890 0.911082 0.264709 0.091435
H62   H     H_    0.789059 0.088908 0.265126 0.091106
H63   H     H_    0.267361 0.410778 0.326192 0.084978
H64   H     H_    0.265106 0.587918 0.331101 0.086542
H65   H     H_    0.683633 0.163829 0.178007 0.082141
H66   H     H_    0.683701 0.836206 0.178200 0.080581
H67   H     H_    0.245943 0.628679 0.177991 0.089195
H68   H     H_    0.188826 0.337333 0.178866 0.082532
H69   H     H_    0.506320 0.829560 0.833447 0.129781
H70   H     H_    0.506683 0.170163 0.832801 0.130119
H71   H     H_    0.006754 0.329597 0.833903 0.132193
H72   H     H_    0.078811 0.629733 0.829618 0.125753
H73   H     H_    0.128022 0.948980 0.444236 0.159884
H74   H     H_    0.039110 0.034509 0.628126 0.155331
H75   H     H_    0.556596 0.409185 0.612859 0.143551
H76   H     H_    0.556763 0.589777 0.619540 0.142533
N1    N     N_R   0.392140 0.102630 0.941800 -0.038809
N2    N     N_R   0.392140 0.897370 0.941800 -0.037160
N3    N     N_R   0.892140 0.602630 0.941800 -0.039459
N4    N     N_R   0.892140 0.397370 0.941800 -0.037098
N5    N     N_R   0.450890 0.896450 0.057150 -0.037161
N6    N     N_R   0.450890 0.103550 0.057150 -0.037637
N7    N     N_R   0.950890 0.396450 0.057150 -0.038149
N8    N     N_R   0.950890 0.603550 0.057150 -0.038428
N9    N     N_R   0.525160 0.027960 0.206160 -0.040224
N10   N     N_R   0.525160 0.972040 0.206160 -0.041469
N11   N     N_R   0.025160 0.527960 0.206160 -0.035792
N12   N     N_R   0.025160 0.472040 0.206160 -0.036563
N13   N     N_R   0.317870 0.971120 0.792790 -0.033208
N14   N     N_R   0.317870 0.028880 0.792790 -0.032879
N15   N     N_R   0.817870 0.471120 0.792790 -0.034661
N16   N     N_R   0.817870 0.528880 0.792790 -0.037912
N17   N     N_R   0.473480 0.027920 0.793480 -0.065461
N18   N     N_R   0.473480 0.972080 0.793480 -0.065743
N19   N     N_R   0.973480 0.527920 0.793480 -0.068613
N20   N     N_R   0.973480 0.472080 0.793480 -0.066117
N21   N     N_R   0.681610 0.971120 0.207570 -0.038741
N22   N     N_R   0.681610 0.028880 0.207570 -0.038815
N23   N     N_R   0.181610 0.471120 0.207570 -0.034418
N24   N     N_R   0.181610 0.528880 0.207570 -0.034621
N25   N     N_R   0.605410 0.102620 0.056870 -0.037917
N26   N     N_R   0.605410 0.897380 0.056870 -0.036537
N27   N     N_R   0.105410 0.602620 0.056870 -0.041447
N28   N     N_R   0.105410 0.397380 0.056870 -0.040646
N29   N     N_R   0.549680 0.896430 0.944180 -0.041077
N30   N     N_R   0.549680 0.103570 0.944180 -0.042270
N31   N     N_R   0.049680 0.396430 0.944180 -0.042666
N32   N     N_R   0.049680 0.603570 0.944180 -0.041822
Ni1   Ni    Ni4+2 0.433410 0.064680 0.868830 0.213213
Ni2   Ni    Ni4+2 0.433410 0.935320 0.868830 0.211942
Ni3   Ni    Ni4+2 0.933410 0.564680 0.868830 0.212645
Ni4   Ni    Ni4+2 0.933410 0.435320 0.868830 0.213669
Ni5   Ni    Ni4+2 0.565650 0.934380 0.131170 0.203426
Ni6   Ni    Ni4+2 0.565650 0.065620 0.131170 0.205836
Ni7   Ni    Ni4+2 0.065650 0.434380 0.131170 0.207496
Ni8   Ni    Ni4+2 0.065650 0.565620 0.131170 0.210294
C101  C     C_R   0.450801 0.103447 0.669748 0.110719
C102  C     C_R   0.372423 0.137300 0.631889 -0.204346
C103  C     C_R   0.373334 0.191958 0.602994 -0.130783
C104  C     C_R   0.452282 0.213043 0.611553 -0.120970
C105  C     C_R   0.530440 0.179499 0.648934 -0.125854
C106  C     C_R   0.529712 0.124779 0.677608 -0.145904
H77   H     H_    0.310049 0.121115 0.621454 0.112740
H78   H     H_    0.312606 0.217849 0.573273 0.110275
H79   H     H_    0.452913 0.255360 0.589257 0.100804
H80   H     H_    0.591482 0.195866 0.655450 0.109665
H81   H     H_    0.590280 0.098988 0.705485 0.115738
C107  C     C_R   0.448406 0.896019 0.670326 0.112501
C108  C     C_R   0.525573 0.873311 0.676191 -0.149375
C109  C     C_R   0.523587 0.818330 0.647296 -0.128682
C110  C     C_R   0.444514 0.785888 0.611848 -0.116700
C111  C     C_R   0.367332 0.808344 0.605357 -0.133034
C112  C     C_R   0.369058 0.863293 0.634259 -0.207330
H82   H     H_    0.586817 0.898239 0.702606 0.116449
H83   H     H_    0.583258 0.800892 0.652235 0.109552
H84   H     H_    0.443089 0.743354 0.589488 0.100909
H85   H     H_    0.305918 0.783295 0.577205 0.109100
H86   H     H_    0.307980 0.880548 0.625384 0.112927
C113  C     C_R   0.931715 0.603274 0.659648 0.102962
C114  C     C_R   0.874047 0.637509 0.673187 -0.148963
C115  C     C_R   0.866155 0.693491 0.647634 -0.122175
C116  C     C_R   0.916936 0.715953 0.609938 -0.079807
C117  C     C_R   0.976305 0.682552 0.598537 -0.126512
C118  C     C_R   0.984424 0.626575 0.624085 -0.210570
H87   H     H_    0.835835 0.621215 0.704137 0.109846
H88   H     H_    0.821113 0.719550 0.657807 0.102673
H89   H     H_    0.910909 0.759331 0.590486 0.093935
H90   H     H_    0.016593 0.700094 0.570730 0.104158
H91   H     H_    0.032165 0.601346 0.617056 0.127795
C119  C     C_R   0.937143 0.395332 0.668073 0.109969
C120  C     C_R   0.007591 0.367944 0.666347 -0.163681
C121  C     C_R   0.995898 0.312705 0.634815 -0.142453
C122  C     C_R   0.914167 0.284615 0.605130 -0.115936
C123  C     C_R   0.843901 0.311730 0.606695 -0.127833
C124  C     C_R   0.855106 0.367028 0.637720 -0.189291
H92   H     H_    0.070803 0.389498 0.688424 0.120941
H93   H     H_    0.050184 0.291662 0.633519 0.112245
H94   H     H_    0.905299 0.241848 0.580917 0.101559
H95   H     H_    0.780463 0.290017 0.583095 0.108041
H96   H     H_    0.799402 0.387972 0.635737 0.113598

loop_
_geom_bond_atom_site_label_1
_geom_bond_atom_site_label_2
_ccdc_geom_bond_type
C68   C80   A    
C38   C87   A    
C13   C79   S    
C58   C62   A    
C65   C79   A    
C63   C88   S    
C14   C95   A    
C37   C88   A    
C9    H69   S    
C113  C114  A    
C70   H50   S    
C41   C61   A    
C67   H43   S    
C6    H66   S    
C84   H60   S    
C43   C63   A    
C120  C121  A    
C12   H72   S    
C54   C60   A    
C44   C64   A    
C45   H29   S    
C83   C92   A    
C21   C31   S    
N28   Ni7   S    
C8    C20   A    
C39   H22   S    
C34   C40   S    
C12   N32   A    
C83   N15   A    
N14   Ni1   S    
C4    N4    A    
C28   H12   S    
C6    N26   A    
C48   C52   A    
N13   Ni2   S    
C5    N25   A    
C122  C123  A    
C82   H58   S    
C35   C86   A    
C65   C69   A    
N8    Ni8   S    
C23   H75   S    
C30   H19   S    
C2    H2    S    
C10   C17   A    
C117  C118  A    
C54   H34   S    
N10   Ni5   S    
N3    Ni3   S    
C101  C106  A    
C38   N8    A    
N9    Ni6   S    
N2    Ni2   S    
C93   C101  S    
C115  C116  A    
C35   H45   S    
C7    H67   S    
N1    Ni1   S    
C108  H82   S    
N4    Ni4   S    
C3    N3    A    
C104  C105  A    
C7    N27   A    
C28   H16   S    
C16   C34   S    
C103  H78   S    
C124  H96   S    
C52   C56   A    
C1    N1    A    
C122  H94   S    
C4    H4    S    
C71   H51   S    
N9    N10   A    
C56   C58   A    
C72   H52   S    
N26   N29   A    
C66   H42   S    
N25   N30   A    
C69   C73   A    
C110  H84   S    
C24   H8    S    
C23   C27   S    
C8    H68   S    
C26   H10   S    
C64   C87   S    
C51   C55   A    
C53   C59   A    
N4    N7    A    
C94   C107  S    
C76   C89   A    
C58   H38   S    
C27   H11   S    
N23   N24   A    
C82   N14   A    
C1    C85   A    
C75   N9    A    
C11   N31   A    
C15   C97   A    
C29   C31   S    
C40   H24   S    
C57   H37   S    
C14   C96   A    
C107  C108  A    
C56   H36   S    
N12   Ni7   S    
C44   C46   A    
C121  H93   S    
C116  C117  A    
C55   H35   S    
C13   C93   A    
C27   C34   S    
N7    Ni7   S    
C6    C18   A    
C62   C85   S    
C77   C90   A    
C81   H57   S    
C22   C31   S    
C98   N22   A    
C81   N13   A    
C3    C87   A    
N15   N16   A    
C97   N21   A    
N27   Ni8   S    
C102  H77   S    
C53   H33   S    
C72   C74   A    
C59   H39   S    
C22   H74   S    
C84   N16   A    
C17   C49   S    
C103  C104  A    
C75   C89   A    
C16   C100  A    
C95   C113  S    
C32   C92   S    
C119  C120  A    
C22   H6    S    
C29   H17   S    
C11   C20   A    
N13   N14   A    
C78   C90   A    
C82   C91   A    
C115  H88   S    
C47   H31   S    
C81   C91   A    
C42   C48   A    
C112  H86   S    
C24   C32   S    
N16   Ni3   S    
N19   Ni3   S    
C108  C109  A    
C66   C79   A    
C25   H13   S    
N18   Ni2   S    
C105  C106  A    
C65   H41   S    
C75   H53   S    
C26   C33   S    
N17   Ni1   S    
N28   N31   A    
C8    N28   A    
C68   C72   A    
C23   H7    S    
C29   C39   S    
C70   C73   A    
C45   C49   A    
C41   C47   A    
C30   C40   S    
C109  H83   S    
C100  H64   S    
C33   C39   S    
N29   Ni2   S    
C37   H47   S    
C5    C17   A    
C123  H95   S    
C43   C45   A    
C38   H48   S    
C107  C112  A    
C113  C118  A    
N5    Ni5   S    
C60   H40   S    
C99   H63   S    
C100  N24   A    
C36   H46   S    
N17   N18   A    
C78   N12   A    
C21   H73   S    
C14   C80   S    
C55   C57   A    
C111  H85   S    
C77   N11   A    
N23   Ni7   S    
C36   N6    A    
C27   H15   S    
C15   C98   A    
C43   H27   S    
N22   Ni6   S    
C1    H1    S    
C11   H71   S    
C98   H62   S    
C76   N10   A    
C18   C50   S    
N3    N8    A    
N27   N32   A    
C3    H3    S    
C119  C124  A    
C40   H23   S    
C21   C25   S    
N11   Ni8   S    
C44   H28   S    
C95   N19   A    
C94   N18   A    
C59   C63   A    
C102  C103  A    
C93   N17   A    
C67   C80   A    
C24   C28   S    
C31   C91   S    
C46   H30   S    
C71   C74   A    
C47   C51   A    
N31   Ni4   S    
C16   C99   A    
C57   C61   A    
C2    C86   A    
C4    C88   A    
C25   H9    S    
C36   C85   A    
C35   N5    A    
C37   N7    A    
C84   C92   A    
C29   H18   S    
C46   C50   A    
C7    C19   A    
C116  H89   S    
C39   H21   S    
C13   C94   A    
C60   C64   A    
C69   H49   S    
C23   C32   S    
C74   C90   S    
C123  C124  A    
C118  H91   S    
C96   C119  S    
C101  C102  A    
C73   C89   S    
C109  C110  A    
C50   C54   A    
C9    N29   A    
C77   H55   S    
C30   C32   S    
N30   Ni1   S    
C78   H56   S    
C120  H92   S    
C114  H87   S    
C30   H20   S    
C106  H81   S    
N32   Ni3   S    
C49   C53   A    
C10   H70   S    
C105  H80   S    
C12   C19   A    
C76   H54   S    
C114  C115  A    
N24   Ni8   S    
C41   H25   S    
C104  H79   S    
C68   H44   S    
C26   H14   S    
C67   C71   A    
C5    H65   S    
N26   Ni5   S    
C10   N30   A    
N21   N22   A    
N15   Ni4   S    
N25   Ni6   S    
N2    N5    A    
C25   C33   S    
C61   C86   S    
C42   H26   S    
C28   C34   S    
N19   N20   A    
N20   Ni4   S    
C19   C51   S    
C9    C18   A    
C96   N20   A    
N21   Ni5   S    
C83   H59   S    
C66   C70   A    
C20   C52   S    
C117  H90   S    
C22   C26   S    
C99   N23   A    
C110  C111  A    
N6    Ni6   S    
C48   H32   S    
N11   N12   A    
C2    N2    A    
C42   C62   A    
C15   C33   S    
C21   H5    S    
N1    N6    A    
C97   H61   S    
C111  C112  A    
C121  C122  A    
C24   H76   S    
