data_mof_unit_47271.cif
_audit_creation_date              2013-03-05T15:42:20-0500
_audit_creation_method            fapswitch 2.2
_symmetry_space_group_name_H-M    P1
_symmetry_Int_Tables_number       1
_space_group_crystal_system       triclinic
_cell_length_a                    7.760351
_cell_length_b                    8.566628
_cell_length_c                    19.110252
_cell_angle_alpha                 90.698683
_cell_angle_beta                  86.24449
_cell_angle_gamma                 93.65734
_cell_volume                      1265.09934831

loop_
_atom_site_label
_atom_site_type_symbol
_atom_site_description
_atom_site_fract_x
_atom_site_fract_y
_atom_site_fract_z
_atom_type_partial_charge
O1    O     O_R   0.389250 0.738570 0.504600 -0.610274
O2    O     O_R   0.610750 0.261430 0.495400 -0.610274
O3    O     O_R   0.678400 0.711620 0.492580 -0.626065
O4    O     O_R   0.321600 0.288380 0.507420 -0.626122
C1    C     C_R   0.545802 0.794740 0.497949 0.985052
C2    C     C_R   0.454198 0.205260 0.502047 0.984675
O5    O     O_R   0.355380 0.513500 0.607880 -0.573665
O6    O     O_R   0.644620 0.486500 0.392120 -0.573413
O7    O     O_R   0.644530 0.486550 0.595850 -0.634895
O8    O     O_R   0.355470 0.513450 0.404150 -0.634909
C3    C     C_R   0.502762 0.499695 0.634098 0.888914
C4    C     C_R   0.497228 0.500253 0.365901 0.888379
Zn1   Zn    Zn3+2 0.306930 0.517990 0.508030 1.010801
Zn2   Zn    Zn3+2 0.693070 0.482010 0.491970 1.010940
C5    C     C_R   0.459284 0.642832 0.745373 0.347665
C6    C     C_R   0.540549 0.356531 0.254777 0.347737
C7    C     C_R   0.469414 0.654550 0.818556 -0.114301
C8    C     C_R   0.530024 0.344271 0.181634 -0.114290
C9    C     C_R   0.526642 0.525866 0.854138 -0.087848
C10   C     C_R   0.472282 0.472544 0.145930 -0.087659
C11   C     C_R   0.582578 0.394193 0.817611 -0.064844
C12   C     C_R   0.416380 0.604409 0.182324 -0.065197
H1    H     H_    0.624693 0.296762 0.846439 0.199304
H2    H     H_    0.373934 0.701561 0.153408 0.199072
C13   C     C_R   0.575722 0.382566 0.745258 -0.104812
C14   C     C_R   0.423755 0.616617 0.254641 -0.104607
C15   C     C_R   0.511486 0.507106 0.709472 -0.252294
C16   C     C_R   0.488395 0.492443 0.290536 -0.252215
N1    N     N_R   0.646062 0.461742 0.963962 -0.141755
N2    N     N_R   0.352578 0.536139 0.036087 -0.141783
N3    N     N_R   0.630880 0.444576 0.033011 -0.154815
N4    N     N_R   0.367756 0.553301 0.967038 -0.154803
C17   C     C_R   0.483332 0.480107 0.069931 0.281565
C18   C     C_R   0.515335 0.517828 0.930124 0.281637
C19   C     C_2   0.569917 0.958254 0.496831 -0.285203
C20   C     C_2   0.430083 0.041746 0.503167 -0.285328
H3    H     H_    0.701947 0.009380 0.490904 0.183760
H4    H     H_    0.298052 0.990620 0.509093 0.183742
N5    N     N_2   0.950330 0.457950 0.481240 -0.168973
N6    N     N_2   0.049670 0.542050 0.518760 -0.169050
H5    H     H_    0.013536 0.382666 0.447569 0.218041
H6    H     H_    0.986464 0.617334 0.552431 0.217959
N7    N     N_R   0.402781 0.770245 0.706582 0.239370
O9    O     O_R   0.513906 0.854310 0.666705 -0.395286
O10   O     O_R   0.238243 0.788649 0.703870 -0.327240
N8    N     N_R   0.597229 0.229395 0.293689 0.239126
O11   O     O_R   0.485997 0.144717 0.333257 -0.395476
O12   O     O_R   0.761816 0.211659 0.296729 -0.327448
C21   C     C_2   0.432215 0.801996 0.857732 0.514159
H7    H     H_    0.475578 0.820868 0.910151 0.062559
O13   O     O_2   0.354205 0.904660 0.832481 -0.487418
C22   C     C_2   0.567498 0.196685 0.142633 0.514677
H8    H     H_    0.523393 0.177101 0.090370 0.062530
O14   O     O_2   0.646684 0.094773 0.167846 -0.487503
C23   C     C_2   0.627731 0.236804 0.708604 0.544383
H9    H     H_    0.603506 0.216170 0.653931 0.062707
O15   O     O_2   0.698147 0.136771 0.739342 -0.507996
C24   C     C_2   0.371818 0.762578 0.291143 0.544404
H10   H     H_    0.396411 0.783636 0.345754 0.063126
O16   O     O_2   0.301064 0.862300 0.260346 -0.508524

loop_
_geom_bond_atom_site_label_1
_geom_bond_atom_site_label_2
_geom_bond_distance
_ccdc_geom_bond_type
C6    C16   1.410989 A    
O5    C3    1.291090 A    
O7    Zn2   1.996581 S    
N3    C17   1.354599 A    
C9    C11   1.397006 A    
C2    C20   1.401567 S    
C13   C15   1.408811 A    
O7    C3    1.290645 A    
C5    C15   1.411011 A    
C19   C20   1.335483 D    
C3    C15   1.446875 S    
O6    C4    1.291104 A    
C23   H9    1.084064 S    
N6    H6    1.029300 S    
C9    C18   1.451236 S    
Zn2   N5    2.016951 S    
C5    N7    1.434069 S    
N5    H5    1.029301 S    
N2    N4    1.326222 A    
N7    O10   1.300959 A    
O2    C2    1.276853 A    
O3    Zn2   1.977361 S    
O8    C4    1.290645 A    
C4    C16   1.446883 S    
O1    C1    1.276854 A    
C10   C17   1.451262 S    
C1    C19   1.401568 S    
C20   H4    1.087756 S    
C14   C16   1.408799 A    
C7    C9    1.412495 A    
C22   O14   1.220442 D    
C8    C10   1.412452 A    
C23   O15   1.221510 D    
C11   H1    1.084700 S    
N7    O9    1.300421 A    
O2    Zn2   1.956174 S    
C12   H2    1.084696 S    
O4    C2    1.286184 A    
O1    Zn1   1.956174 S    
C8    C22   1.494692 S    
N8    O12   1.300969 A    
O5    Zn1   1.970159 S    
C22   H8    1.084510 S    
C6    C8    1.407753 A    
C21   H7    1.084494 S    
C12   C14   1.389321 A    
C21   O13   1.220403 D    
C6    N8    1.434006 S    
N5    N6    1.271389 D    
C5    C7    1.407885 A    
C11   C13   1.389299 A    
N8    O11   1.300416 A    
Zn1   N6    2.016952 S    
O6    Zn2   1.970161 S    
N2    C17   1.354255 A    
C19   H3    1.087756 S    
C24   H10   1.084086 S    
N1    N3    1.326217 A    
C24   O16   1.221514 D    
N1    C18   1.354206 A    
C14   C24   1.489530 S    
C7    C21   1.494808 S    
C13   C23   1.489536 S    
O4    Zn1   1.977361 S    
C10   C12   1.397081 A    
O3    C1    1.286185 A    
O8    Zn1   1.996585 S    
N4    C18   1.354601 A    
