data_mof_unit_63367.cif
_audit_creation_date              2012-10-26T18:49:08-0400
_audit_creation_method            fapswitch 2.2
_symmetry_space_group_name_H-M    P1
_symmetry_Int_Tables_number       1
_space_group_crystal_system       triclinic
_cell_length_a                    10.754812
_cell_length_b                    10.952589
_cell_length_c                    9.68692
_cell_angle_alpha                 89.925256
_cell_angle_beta                  90.074354
_cell_angle_gamma                 90.093926
_cell_volume                      1141.04825072

loop_
_atom_site_label
_atom_site_type_symbol
_atom_type_description
_atom_site_fract_x
_atom_site_fract_y
_atom_site_fract_z
_atom_type_partial_charge
C1    C     C_R   0.502270 0.265356 0.499983 0.618772
C2    C     C_2   0.427104 0.430646 0.077858 0.062024
C3    C     C_R   0.259881 0.499030 0.499726 0.551292
C4    C     C_R   0.497739 0.734603 0.499795 0.554806
C5    C     C_R   0.740198 0.500504 0.499939 0.622572
C6    C     C_3   0.071794 0.381907 0.572347 0.326365
C7    C     C_3   0.927674 0.380290 0.568556 0.703815
C8    C     C_3   0.073142 0.613215 0.575227 -0.236711
C9    C     C_3   0.071156 0.500769 0.348274 0.193478
C10   C     C_3   0.121957 0.498366 0.499013 -0.118771
C11   C     C_3   0.878343 0.499777 0.499710 -0.029828
C12   C     C_3   0.929665 0.612705 0.579162 0.223457
C13   C     C_3   0.928565 0.505659 0.348688 0.183036
C14   C     C_2   0.506015 0.934002 0.387199 0.431525
C15   C     C_2   0.485610 0.866129 0.500333 -0.076108
C16   C     C_2   0.489294 0.066297 0.389158 0.394024
C17   C     C_2   0.516531 0.133930 0.501159 0.340337
C18   C     C_2   0.425853 0.431979 0.922066 0.052947
Cu1   Cu    Cu3+1 0.500030 0.500020 0.638630 1.147112
Cu2   Cu    Cu3+1 0.499970 0.499980 0.361370 1.144372
F1    F     F_    0.113354 0.377309 0.708004 -0.551966
F2    F     F_    0.889508 0.612147 0.283964 -0.599267
F3    F     F_    0.536693 0.881797 0.264442 -0.522497
F4    F     F_    0.447796 0.119234 0.270512 -0.566158
F5    F     F_    0.567937 0.083680 0.616476 -0.607251
F6    F     F_    0.887526 0.279666 0.493761 -0.591847
F7    F     F_    0.881649 0.368503 0.701715 -0.431709
F8    F     F_    0.889914 0.612499 0.715347 -0.523473
F9    F     F_    0.109906 0.398062 0.276361 -0.598046
H1    H     H_    0.106255 0.697109 0.521548 0.102768
H2    H     H_    0.558100 0.558882 0.106068 0.250315
H3    H     H_    0.891487 0.427425 0.287876 0.256562
H4    H     H_    0.562905 0.553967 0.893922 0.247814
H5    H     H_    0.108348 0.299361 0.519301 0.193347
H6    H     H_    0.110589 0.616612 0.682321 0.252860
H7    H     H_    0.108069 0.582483 0.293281 0.221525
H8    H     H_    0.894435 0.698022 0.530476 0.197250
H9    H     H_    0.454028 0.906947 0.595985 0.139762
H10   H     H_    0.359716 0.372573 0.870571 0.203902
H11   H     H_    0.363336 0.368778 0.129333 0.222123
N1    N     N_2   0.498630 0.498660 0.846910 -0.337595
N2    N     N_2   0.498590 0.498630 0.153040 -0.337568
O1    O     O_R   0.500020 0.321960 0.617040 -0.458242
O2    O     O_R   0.499980 0.321920 0.382900 -0.471670
O3    O     O_R   0.317710 0.500000 0.617070 -0.482870
O4    O     O_R   0.317670 0.499960 0.382930 -0.484079
O5    O     O_R   0.500020 0.678080 0.617100 -0.504289
O6    O     O_R   0.499980 0.678040 0.382960 -0.433912
O7    O     O_R   0.682330 0.500040 0.617070 -0.399753
O8    O     O_R   0.682290 0.500000 0.382930 -0.474551

loop_
_geom_bond_atom_site_label_1
_geom_bond_atom_site_label_2
_ccdc_geom_bond_type
C14   F3    S    
C6    C10   S    
C9    H7    S    
Cu2   N2    S    
C11   C12   S    
Cu1   O3    S    
C15   H9    S    
C6    C7    S    
H2    N2    S    
C8    C12   S    
C2    C18   S    
C9    C10   S    
Cu1   O7    S    
C1    O2    A    
C1    C17   S    
Cu1   Cu2   S    
C9    F9    S    
C8    H6    S    
C18   H10   S    
C17   F5    S    
C4    C15   S    
Cu1   N1    S    
C8    H1    S    
C16   F4    S    
C3    C10   S    
C7    C11   S    
C11   C13   S    
C3    O4    A    
C5    O7    A    
Cu2   O6    S    
C7    F6    S    
C2    N2    D    
Cu2   O2    S    
C12   F8    S    
C13   F2    S    
C5    C11   S    
C14   C16   S    
C3    O3    A    
Cu1   O5    S    
C5    O8    A    
C2    H11   S    
C7    F7    S    
H4    N1    S    
C8    C10   S    
C4    O6    A    
C18   N1    D    
C12   H8    S    
C9    C13   S    
C14   C15   D    
Cu2   O8    S    
C13   H3    S    
C6    F1    S    
C1    O1    A    
Cu2   O4    S    
C6    H5    S    
Cu1   O1    S    
C16   C17   D    
C4    O5    A    
