data_mof_unit_65527.cif
_audit_creation_date              2013-03-05T16:46:16-0500
_audit_creation_method            fapswitch 2.2
_symmetry_space_group_name_H-M    P1
_symmetry_Int_Tables_number       1
_space_group_crystal_system       triclinic
_cell_length_a                    15.775337
_cell_length_b                    17.106093
_cell_length_c                    23.528036
_cell_angle_alpha                 90.349404
_cell_angle_beta                  92.179572
_cell_angle_gamma                 96.235985
_cell_volume                      6306.67474664

loop_
_atom_site_label
_atom_site_type_symbol
_atom_site_description
_atom_site_fract_x
_atom_site_fract_y
_atom_site_fract_z
_atom_type_partial_charge
O1    O     O_R   0.420530 0.382500 0.497430 -0.591422
O2    O     O_R   0.579470 0.617500 0.502570 -0.591317
O3    O     O_R   0.563720 0.388950 0.502070 -0.542330
O4    O     O_R   0.436280 0.611050 0.497930 -0.542489
C1    C     C_R   0.489683 0.348697 0.501105 0.860672
C2    C     C_R   0.510316 0.651303 0.498895 0.860635
O5    O     O_R   0.428390 0.496750 0.415560 -0.564140
O6    O     O_R   0.571610 0.503250 0.584440 -0.564266
O7    O     O_R   0.571580 0.503200 0.420200 -0.597958
O8    O     O_R   0.428420 0.496800 0.579800 -0.597855
C3    C     C_R   0.500339 0.499918 0.390806 0.831225
C4    C     C_R   0.499662 0.500082 0.609194 0.831222
Cu1   Cu    Cu3+1 0.415220 0.496180 0.497250 1.008501
Cu2   Cu    Cu3+1 0.584780 0.503820 0.502750 1.008527
C5    C     C_R   0.533141 0.566083 0.881563 0.547683
C6    C     C_R   0.466867 0.433916 0.118438 0.547687
N1    N     N_R   0.498012 0.500494 0.851954 -0.471222
N2    N     N_R   0.501997 0.499504 0.148046 -0.471225
C7    C     C_R   0.463427 0.434794 0.879297 0.551081
C8    C     C_R   0.536583 0.565205 0.120704 0.551081
C9    C     C_R   0.463328 0.433296 0.938909 -0.020493
C10   C     C_R   0.536682 0.566702 0.061092 -0.020492
C11   C     C_R   0.499527 0.500126 0.969996 -0.013862
C12   C     C_R   0.500483 0.499873 0.030005 -0.013862
C13   C     C_R   0.534799 0.567198 0.941222 -0.018512
C14   C     C_R   0.465210 0.432800 0.058779 -0.018514
C15   C     C_R   0.428375 0.366692 0.968042 -0.140292
C16   C     C_R   0.571635 0.633306 0.031959 -0.140291
C17   C     C_R   0.429311 0.366445 0.027360 -0.139989
C18   C     C_R   0.570699 0.633553 0.972641 -0.139986
O9    O     O_2   0.565845 0.630145 0.853306 -0.515419
O10   O     O_2   0.434163 0.369854 0.146695 -0.515416
O11   O     O_2   0.430006 0.370910 0.848873 -0.510355
O12   O     O_2   0.570003 0.629089 0.151127 -0.510352
H1    H     H_    0.400212 0.314555 0.945138 0.198682
H2    H     H_    0.599797 0.685443 0.054863 0.198684
C19   C     C_R   0.424524 0.497720 0.236638 -0.082005
C20   C     C_R   0.421318 0.498228 0.758956 -0.077220
C21   C     C_R   0.424038 0.497826 0.295857 -0.155562
C22   C     C_R   0.421610 0.498104 0.699683 -0.192442
C23   C     C_R   0.500998 0.499898 0.328256 -0.051175
C24   C     C_R   0.499004 0.500103 0.671744 -0.051172
C25   C     C_R   0.578392 0.501884 0.300318 -0.192423
C26   C     C_R   0.575966 0.502186 0.704142 -0.155568
H3    H     H_    0.638633 0.503400 0.324186 0.175619
H4    H     H_    0.636555 0.503665 0.683799 0.185752
C27   C     C_R   0.578686 0.501760 0.241045 -0.077180
C28   C     C_R   0.575483 0.502292 0.763361 -0.081946
C29   C     C_R   0.501775 0.499645 0.209011 0.328967
C30   C     C_R   0.498231 0.500355 0.790990 0.328954
C31   C     C_R   0.484092 0.262789 0.502309 -0.150024
C32   C     C_R   0.515906 0.737212 0.497691 -0.150000
C33   C     C_R   0.545756 0.223401 0.532502 0.295694
C34   C     C_R   0.454230 0.776598 0.467509 0.295681
C35   C     C_R   0.542038 0.141613 0.527661 -0.189953
C36   C     C_R   0.457947 0.858386 0.472350 -0.189920
C37   C     C_R   0.476451 0.098452 0.494478 0.322618
C38   C     C_R   0.523544 0.901549 0.505523 0.322640
C39   C     C_R   0.414272 0.137949 0.466734 -0.146837
C40   C     C_R   0.585734 0.862053 0.533258 -0.146900
C41   C     C_R   0.417930 0.219377 0.470481 -0.247350
C42   C     C_R   0.582076 0.780625 0.529510 -0.247379
N3    N     N_2   0.470045 0.015507 0.488236 -0.223047
N4    N     N_2   0.529950 0.984494 0.511766 -0.223053
H5    H     H_    0.363314 0.105400 0.441414 0.176862
H6    H     H_    0.636699 0.894603 0.558570 0.176825
H7    H     H_    0.370094 0.248698 0.447236 0.185928
H8    H     H_    0.629921 0.751306 0.552748 0.185883
N5    N     N_R   0.712130 0.509560 0.506880 -0.211868
N6    N     N_R   0.287870 0.490440 0.493120 -0.211958
C43   C     C_R   0.750438 0.465605 0.469077 -0.004022
C44   C     C_R   0.249587 0.534636 0.530774 -0.003738
C45   C     C_R   0.839933 0.472284 0.465351 0.175213
C46   C     C_R   0.160100 0.527997 0.534516 0.175037
C47   C     C_R   0.891690 0.523279 0.503746 0.185753
C48   C     C_R   0.108310 0.476764 0.496293 0.185786
C49   C     C_R   0.850014 0.569525 0.541979 0.179394
C50   C     C_R   0.149965 0.430235 0.458228 0.179411
C51   C     C_R   0.759956 0.560542 0.542927 -0.028912
C52   C     C_R   0.240027 0.439217 0.457254 -0.029037
N7    N     N_2   0.983654 0.531281 0.504192 -0.092704
N8    N     N_2   0.016342 0.468797 0.495856 -0.092736
H9    H     H_    0.289287 0.572719 0.560254 0.176494
H10   H     H_    0.710756 0.427694 0.439483 0.176489
H11   H     H_    0.727747 0.596336 0.571411 0.172681
H12   H     H_    0.272234 0.403239 0.428900 0.172887
N9    N     N_R   0.124256 0.568057 0.580125 0.168346
O13   O     O_R   0.066300 0.530559 0.610722 -0.278807
O14   O     O_R   0.159866 0.636608 0.597629 -0.289625
N10   N     N_R   0.875823 0.432497 0.419624 0.168406
O15   O     O_R   0.934008 0.470103 0.389262 -0.279059
O16   O     O_R   0.840117 0.364128 0.401814 -0.289890
N11   N     N_R   0.897746 0.626418 0.579448 0.170809
O17   O     O_R   0.865785 0.646629 0.626857 -0.319261
O18   O     O_R   0.968482 0.664912 0.563613 -0.239283
N12   N     N_R   0.102227 0.373069 0.420957 0.170762
O19   O     O_R   0.134419 0.352122 0.373814 -0.319594
O20   O     O_R   0.031165 0.335106 0.436733 -0.239331
H13   H     H_    0.401803 0.314137 0.048468 0.198634
H14   H     H_    0.598207 0.685861 0.951532 0.198634
H15   H     H_    0.364868 0.496360 0.212124 0.161453
H16   H     H_    0.361378 0.496939 0.780064 0.161246
H17   H     H_    0.363450 0.496358 0.316199 0.185748
H18   H     H_    0.361368 0.496578 0.675816 0.175632
H19   H     H_    0.638626 0.503039 0.219938 0.161257
H20   H     H_    0.635140 0.503661 0.787874 0.161491
N13   N     N_R   0.389883 0.735242 0.430243 0.139712
O21   O     O_R   0.410158 0.681920 0.395060 -0.343079
O22   O     O_R   0.314360 0.758975 0.425129 -0.308706
N14   N     N_R   0.610090 0.264756 0.569778 0.139737
O23   O     O_R   0.589805 0.318086 0.604951 -0.343083
O24   O     O_R   0.685607 0.241014 0.574912 -0.308735
H21   H     H_    0.410497 0.888081 0.449110 0.199267
H22   H     H_    0.589478 0.111916 0.550910 0.199264

loop_
_geom_bond_atom_site_label_1
_geom_bond_atom_site_label_2
_geom_bond_distance
_ccdc_geom_bond_type
C33   N14   1.438182 S    
C19   H15   1.082889 S    
N9    O13   1.301486 A    
N11   O17   1.301506 A    
C15   C17   1.395178 A    
N13   O22   1.301350 A    
C33   C35   1.397695 A    
C31   C41   1.402490 A    
N7    N8    1.253663 D    
C27   C29   1.400735 A    
O5    C3    1.291395 A    
C46   C48   1.422426 A    
C34   N13   1.438179 S    
O1    C1    1.289351 A    
C7    C9    1.403003 A    
C48   C50   1.420240 A    
C45   N10   1.436117 S    
C50   C52   1.413427 A    
C37   C39   1.394794 A    
Cu1   N6    1.999324 S    
C38   C40   1.394793 A    
C18   H14   1.083078 S    
C19   C29   1.400188 A    
C40   C42   1.389947 A    
O4    Cu1   1.956821 S    
N5    C43   1.361273 A    
N14   O23   1.301474 A    
C52   H12   1.081988 S    
C50   N12   1.439335 S    
C28   H20   1.082890 S    
C26   H4    1.083040 S    
C27   H19   1.082846 S    
N12   O20   1.301004 A    
C4    C24   1.472101 S    
C36   H21   1.082677 S    
C46   N9    1.436054 S    
C8    O12   1.349493 S    
C28   C30   1.400195 A    
C9    C15   1.404902 A    
C40   H6    1.083229 S    
N11   O18   1.300997 A    
C10   C16   1.404899 A    
Cu1   Cu2   2.662004 S    
C38   N4    1.417796 S    
C23   C25   1.405761 A    
O2    C2    1.289358 A    
C24   C26   1.405797 A    
C32   C34   1.414414 A    
C37   N3    1.417795 S    
C49   C51   1.413338 A    
C6    C14   1.402876 A    
C34   C36   1.397693 A    
C39   C41   1.389947 A    
C17   H13   1.083076 S    
N6    C52   1.359541 A    
C44   C46   1.410042 A    
C7    O11   1.349497 S    
C48   N8    1.442037 S    
C43   C45   1.410119 A    
C47   N7    1.441966 S    
C15   H1    1.083079 S    
C31   C33   1.414412 A    
O7    Cu2   1.945323 S    
C22   H18   1.083055 S    
O7    C3    1.292743 A    
C41   H7    1.083665 S    
N10   O16   1.301389 A    
O6    C4    1.291391 A    
N12   O19   1.301595 A    
C6    N2    1.370114 A    
C21   H17   1.083036 S    
C25   H3    1.083055 S    
C16   H2    1.083078 S    
O3    Cu2   1.956823 S    
O8    C4    1.292747 A    
O4    C2    1.289122 A    
C8    C10   1.403010 A    
C35   C37   1.410931 A    
Cu2   N5    1.999324 S    
C10   C12   1.408604 A    
N5    C51   1.359583 A    
O1    Cu1   1.955517 S    
C45   C47   1.422387 A    
N13   O21   1.301476 A    
C51   H11   1.081983 S    
C43   H10   1.081858 S    
C13   C18   1.404943 A    
C5    N1    1.370124 A    
O6    Cu2   1.941012 S    
C12   C14   1.408468 A    
C22   C24   1.405760 A    
O3    C1    1.289125 A    
O8    Cu1   1.945321 S    
N1    C30   1.434506 S    
C5    O9    1.349522 S    
C20   C30   1.400742 A    
C35   H22   1.082677 S    
C6    O10   1.349517 S    
C42   H8    1.083665 S    
C9    C11   1.408607 A    
C16   C18   1.395178 A    
C19   C21   1.393613 A    
C32   C42   1.402490 A    
C39   H5    1.083228 S    
C20   C22   1.394750 A    
N10   O15   1.301476 A    
C49   N11   1.439141 S    
N1    C7    1.370012 A    
C36   C38   1.410931 A    
C3    C23   1.472105 S    
N2    C8    1.370003 A    
C11   C13   1.408470 A    
O2    Cu2   1.955519 S    
N14   O24   1.301351 A    
C44   H9    1.081902 S    
C5    C13   1.402871 A    
C11   C12   1.411441 A    
N3    N4    1.246470 D    
O5    Cu1   1.941012 S    
C21   C23   1.405792 A    
C14   C17   1.404944 A    
C20   H16   1.082848 S    
C47   C49   1.420051 A    
N9    O14   1.301402 A    
C1    C31   1.463112 S    
N6    C44   1.361213 A    
C2    C32   1.463120 S    
C25   C27   1.394756 A    
C26   C28   1.393604 A    
N2    C29   1.434517 S    
