data_mof_unit_32678.cif
_audit_creation_date              2012-10-26T19:02:56-0400
_audit_creation_method            fapswitch 2.2
_symmetry_space_group_name_H-M    P1
_symmetry_Int_Tables_number       1
_space_group_crystal_system       triclinic
_cell_length_a                    15.000681
_cell_length_b                    11.056102
_cell_length_c                    10.066437
_cell_angle_alpha                 111.893691
_cell_angle_beta                  98.430919
_cell_angle_gamma                 93.648259
_cell_volume                      1519.57734251

loop_
_atom_site_label
_atom_site_type_symbol
_atom_type_description
_atom_site_fract_x
_atom_site_fract_y
_atom_site_fract_z
_atom_type_partial_charge
C1    C     C_R   0.496848 0.254746 0.439962 0.569236
C2    C     C_2   0.483334 0.520471 0.936825 0.150965
C3    C     C_R   0.329981 0.505113 0.501924 0.557703
C4    C     C_R   0.670218 0.496777 0.498564 0.552038
C5    C     C_R   0.823914 0.610394 0.575631 -0.107984
C6    C     C_R   0.176836 0.392324 0.432764 -0.100984
C7    C     C_R   0.766565 0.493869 0.496763 0.014795
C8    C     C_R   0.233798 0.510145 0.504398 0.012386
C9    C     C_R   0.800732 0.379020 0.415534 0.004739
C10   C     C_R   0.199392 0.628119 0.576601 0.007342
C11   C     C_R   0.896072 0.378167 0.435017 0.013998
C12   C     C_R   0.502316 0.745119 0.559935 0.558367
C13   C     C_R   0.103694 0.627181 0.561317 0.013152
C14   C     C_R   0.953293 0.500258 0.501096 -0.017204
C15   C     C_R   0.046965 0.504146 0.499536 -0.018041
C16   C     C_R   0.916969 0.617887 0.572687 0.000133
C17   C     C_R   0.083499 0.385475 0.432645 -0.000605
C18   C     C_R   0.935695 0.259593 0.392177 -0.008908
C19   C     C_R   0.062920 0.744977 0.607642 -0.007828
C20   C     C_3   0.736245 0.266365 0.297236 -0.367929
C21   C     C_3   0.263695 0.748398 0.682903 -0.375374
C22   C     C_3   0.888689 0.138029 0.401634 -0.310785
C23   C     C_R   0.027001 0.262628 0.373497 0.270233
C24   C     C_3   0.105094 0.867651 0.594838 -0.307669
C25   C     C_3   0.382535 0.495791 0.878004 -0.299473
C26   C     C_3   0.584696 0.626597 0.193050 -0.267680
C27   C     C_3   0.631058 0.622006 0.926262 -0.170234
C28   C     C_3   0.419514 0.313648 0.037666 -0.212906
C29   C     C_R   0.973395 0.740259 0.633792 0.269944
C30   C     C_2   0.490064 0.114077 0.405671 -0.082487
C31   C     C_2   0.507159 0.885634 0.593774 -0.082165
C32   C     C_2   0.521065 0.064368 0.505166 0.206716
C33   C     C_2   0.477132 0.934157 0.492736 0.202867
C34   C     C_2   0.509300 0.520310 0.089846 0.187081
Cu1   Cu    Cu3+1 0.515770 0.521810 0.644910 0.996838
Cu2   Cu    Cu3+1 0.484230 0.478190 0.355090 0.999585
H1    H     H_    0.792576 0.696636 0.628452 0.190992
H2    H     H_    0.328576 0.723967 0.727416 0.157214
H3    H     H_    0.837134 0.163688 0.472943 0.174163
H4    H     H_    0.855138 0.065894 0.292700 0.187127
H5    H     H_    0.938315 0.090430 0.452641 0.200678
H6    H     H_    0.147609 0.935022 0.699470 0.181891
H7    H     H_    0.146269 0.841462 0.507367 0.170891
H8    H     H_    0.051938 0.921297 0.561161 0.204405
H9    H     H_    0.018604 0.910680 0.139713 0.390866
H10   H     H_    0.989779 0.085143 0.890474 0.394022
H11   H     H_    0.259755 0.916635 0.263459 0.396934
H12   H     H_    0.208712 0.305214 0.386122 0.197242
H13   H     H_    0.733715 0.083750 0.747159 0.395908
H14   H     H_    0.341313 0.485780 0.956941 0.130686
H15   H     H_    0.360778 0.583646 0.861139 0.165914
H16   H     H_    0.365337 0.404458 0.778084 0.154014
H17   H     H_    0.651169 0.601709 0.164148 0.074898
H18   H     H_    0.569269 0.724020 0.195431 0.138848
H19   H     H_    0.601534 0.643026 0.305870 0.194771
H20   H     H_    0.657836 0.661292 0.852532 0.183298
H21   H     H_    0.632193 0.715975 0.018353 0.077360
H22   H     H_    0.677691 0.554050 0.946202 0.144988
H23   H     H_    0.548683 0.947587 0.697597 0.154515
H24   H     H_    0.449560 0.239999 0.074161 0.162339
H25   H     H_    0.345342 0.303190 0.036735 0.138677
H26   H     H_    0.432005 0.287914 0.924984 0.122005
H27   H     H_    0.446719 0.053556 0.303044 0.155734
H28   H     H_    0.772239 0.197672 0.218619 0.142374
H29   H     H_    0.695098 0.212345 0.345321 0.168034
H30   H     H_    0.690232 0.303844 0.229120 0.168993
H31   H     H_    0.280420 0.816754 0.630518 0.174364
H32   H     H_    0.233310 0.799565 0.779856 0.146545
N1    N     N_2   0.460520 0.445420 0.137370 -0.235129
N2    N     N_2   0.539480 0.554580 0.862630 -0.234716
O1    O     O_R   0.508410 0.332340 0.577400 -0.414171
O2    O     O_2   0.130335 0.077570 0.388381 -0.301970
O3    O     O_3   0.986776 0.987312 0.185109 -0.505099
O4    O     O_2   0.871297 0.932181 0.641349 -0.299700
O5    O     O_2   0.881619 0.863097 0.847556 -0.279129
O6    O     O_3   0.019300 0.008698 0.836502 -0.499743
O7    O     O_2   0.405312 0.796095 0.209198 -0.331674
O8    O     O_2   0.328617 0.744099 0.383548 -0.274874
O9    O     O_3   0.305369 0.962009 0.353870 -0.516110
O10   O     O_2   0.672185 0.248238 0.606823 -0.283248
O11   O     O_2   0.591248 0.212308 0.786150 -0.318720
O12   O     O_R   0.491590 0.667660 0.422600 -0.452200
O13   O     O_3   0.690470 0.037102 0.654240 -0.523093
O14   O     O_R   0.481780 0.295500 0.332650 -0.528681
O15   O     O_R   0.518220 0.704500 0.667350 -0.521853
O16   O     O_R   0.383570 0.518390 0.622380 -0.546515
O17   O     O_R   0.616430 0.481610 0.377620 -0.546085
O18   O     O_R   0.356940 0.481550 0.377630 -0.442223
O19   O     O_R   0.643060 0.518450 0.622370 -0.481869
O20   O     O_2   0.124307 0.131118 0.171992 -0.275030
S1    S     S_3+6 0.069967 0.112627 0.278786 -0.016055
S2    S     S_3+6 0.933239 0.888125 0.741108 -0.013697
S3    S     S_3+6 0.377801 0.852335 0.355670 -0.026676
S4    S     S_3+6 0.620274 0.146796 0.642028 -0.022291

loop_
_geom_bond_atom_site_label_1
_geom_bond_atom_site_label_2
_ccdc_geom_bond_type
C32   S4    S    
C11   C18   A    
C5    H1    S    
C24   H6    S    
C28   N1    S    
H11   O9    S    
C26   H19   S    
H10   O6    S    
C4    O17   A    
Cu2   O18   S    
C1    O14   A    
C1    O1    A    
C6    H12   S    
C12   O15   A    
C20   H30   S    
O9    S3    S    
Cu1   O16   S    
C22   H5    S    
O8    S3    D    
O4    S2    D    
H9    O3    S    
C31   H23   S    
C25   H14   S    
C5    C16   A    
C26   C34   S    
C21   H2    S    
Cu1   Cu2   S    
Cu1   N2    S    
Cu2   O12   S    
C31   C33   D    
C28   H25   S    
C2    C34   S    
Cu1   O1    S    
Cu2   O17   S    
C30   H27   S    
C21   H31   S    
C3    O16   A    
C4    C7    S    
C26   H18   S    
C28   H24   S    
C10   C21   S    
C13   C19   A    
C18   C23   A    
C20   H29   S    
O3    S1    S    
C3    C8    S    
C27   H21   S    
C5    C7    A    
O2    S1    D    
C27   H20   S    
C6    C8    A    
C16   C29   A    
O13   S4    S    
C10   C13   A    
C20   H28   S    
C25   H15   S    
C9    C20   S    
C22   H4    S    
C12   O12   A    
C17   C23   A    
C9    C11   A    
C34   N1    D    
C27   N2    S    
O5    S2    D    
O6    S2    S    
Cu1   O19   S    
C13   C15   A    
C12   C31   S    
C24   H8    S    
C14   C16   A    
O10   S4    D    
C19   C29   A    
C26   H17   S    
Cu2   N1    S    
C4    O19   A    
C15   C17   A    
C6    C17   A    
C3    O18   A    
C18   C22   S    
C27   H22   S    
C33   S3    S    
C32   C33   S    
H13   O13   S    
C19   C24   S    
C25   H16   S    
C21   H32   S    
C30   C32   D    
O11   S4    D    
Cu1   O15   S    
O20   S1    D    
Cu2   O14   S    
C22   H3    S    
O7    S3    D    
C1    C30   S    
C11   C14   A    
C2    C25   S    
C23   S1    S    
C7    C9    A    
C8    C10   A    
C24   H7    S    
C14   C15   A    
C2    N2    D    
C29   S2    S    
C28   H26   S    
