data_mof_unit_33884.cif
_audit_creation_date              2012-12-11T14:20:58-0500
_audit_creation_method            fapswitch 2.2
_symmetry_space_group_name_H-M    P1
_symmetry_Int_Tables_number       1
_space_group_crystal_system       triclinic
_cell_length_a                    11.411919
_cell_length_b                    11.603308
_cell_length_c                    19.577769
_cell_angle_alpha                 90.14881
_cell_angle_beta                  89.725003
_cell_angle_gamma                 60.065145
_cell_volume                      2246.50215424

loop_
_atom_site_label
_atom_site_type_symbol
_atom_type_description
_atom_site_fract_x
_atom_site_fract_y
_atom_site_fract_z
_atom_type_partial_charge
C1    C     C_R   0.640698 0.116538 0.599436 0.543782
C2    C     C_1   0.653517 0.148426 0.668776 0.003165
C3    C     C_R   0.679623 0.592660 0.204364 0.007866
C4    C     C_R   0.614071 0.743181 0.598055 0.551863
C5    C     C_R   0.544180 0.651451 0.231435 -0.012183
C6    C     C_R   0.511356 0.738089 0.286575 0.004760
C7    C     C_R   0.751480 0.660319 0.304250 -0.102185
C8    C     C_R   0.782442 0.592593 0.242846 0.322253
C9    C     C_R   0.437432 0.634743 0.203277 -0.064603
C10   C     C_R   0.303727 0.714043 0.222466 -0.052867
C11   C     C_R   0.271693 0.806243 0.273178 -0.059934
C12   C     C_1   0.651570 0.683777 0.664274 0.001959
C13   C     C_R   0.373464 0.821000 0.303074 -0.071005
C14   C     C_R   0.616711 0.736443 0.325504 -0.051180
C15   C     C_R   0.139768 0.196503 0.193740 0.029466
C16   C     C_R   0.295965 0.121050 0.605190 0.553978
C17   C     C_R   0.198117 0.264666 0.224593 0.043231
C18   C     C_R   0.187564 0.280880 0.295655 0.015150
C19   C     C_R   0.114619 0.117955 0.305315 -0.175526
C20   C     C_R   0.095770 0.125185 0.234832 -0.140986
C21   C     C_R   0.254789 0.327716 0.186169 -0.117390
C22   C     C_R   0.275734 0.424393 0.216028 -0.078395
C23   C     C_1   0.145418 0.190926 0.862907 0.003405
C24   C     C_R   0.241925 0.458503 0.284335 0.350045
C25   C     C_R   0.194010 0.390681 0.323225 -0.011387
C26   C     C_R   0.170574 0.187058 0.335818 -0.007111
C27   C     C_R   0.662632 0.179945 0.190588 -0.011965
C28   C     C_R   0.646694 0.108870 0.401343 0.538577
C29   C     C_R   0.730677 0.048262 0.214663 0.028227
C30   C     C_R   0.755404 0.027077 0.285212 0.024416
C31   C     C_R   0.592230 0.261568 0.305792 -0.142108
C32   C     C_R   0.593810 0.284398 0.236810 -0.153914
C33   C     C_R   0.785986 0.938338 0.169302 -0.091457
C34   C     C_1   0.224632 0.146597 0.735220 -0.029488
C35   C     C_R   0.883840 0.813357 0.191411 -0.098886
C36   C     C_R   0.926916 0.796713 0.258644 -0.128504
C37   C     C_R   0.863411 0.901211 0.305401 -0.113755
C38   C     C_R   0.672962 0.134063 0.331289 -0.007836
C39   C     C_R   0.083811 0.230742 0.929193 0.533998
C40   C     C_R   0.586820 0.792532 0.393942 0.543367
C41   C     C_R   0.709665 0.545848 0.922438 0.561002
C42   C     C_R   0.707850 0.207302 0.930021 0.538692
C43   C     C_R   0.083605 0.235054 0.125166 0.548913
C44   C     C_R   0.707723 0.549050 0.133436 0.595178
C45   C     C_1   0.185759 0.166721 0.804727 -0.027706
C46   C     C_R   0.704219 0.209312 0.125164 0.527712
C47   C     C_R   0.238047 0.145758 0.402871 0.526830
C48   C     C_1   0.699564 0.581217 0.851703 0.001031
C49   C     C_1   0.673081 0.645384 0.722444 -0.027359
C50   C     C_1   0.689650 0.609278 0.791980 -0.029814
C51   C     C_1   0.255777 0.133812 0.675605 0.001228
C52   C     C_1   0.677714 0.192430 0.860674 0.001661
C53   C     C_1   0.658716 0.166583 0.729062 -0.030156
C54   C     C_1   0.665177 0.181449 0.800304 -0.030435
Cr1   Cr    Cr6+3 0.404720 0.198220 0.499960 1.038277
Cr2   Cr    Cr6+3 0.698290 0.897110 0.500380 1.026530
Cr3   Cr    Cr6+3 0.396970 0.904720 0.499610 1.039403
Cr4   Cr    Cr6+3 0.926180 0.151990 0.028120 1.017545
Cr5   Cr    Cr6+3 0.921330 0.451820 0.027470 1.051431
Cr6   Cr    Cr6+3 0.626260 0.446870 0.028710 1.000921
F1    F     F_    0.257999 0.555056 0.314099 -0.679240
F2    F     F_    0.912975 0.526593 0.221081 -0.653636
H1    H     H_    0.833347 0.653072 0.335102 0.154582
H2    H     H_    0.343868 0.898094 0.338788 0.155249
H3    H     H_    0.279647 0.305141 0.132554 0.123893
H4    H     H_    0.044220 0.077035 0.212791 0.148994
H5    H     H_    0.757721 0.950300 0.115954 0.130694
H6    H     H_    0.546016 0.384499 0.220293 0.132830
H7    H     H_    0.224593 0.702964 0.198507 0.120083
H8    H     H_    0.085202 0.059792 0.336537 0.117032
H9    H     H_    0.314455 0.474412 0.185048 0.093127
H10   H     H_    0.159456 0.427691 0.374400 0.160233
H11   H     H_    0.531178 0.344590 0.339625 0.182856
H12   H     H_    0.930057 0.730772 0.155777 0.168433
H13   H     H_    0.007930 0.701570 0.275131 0.189769
H14   H     H_    0.907157 0.882036 0.355597 0.161700
H15   H     H_    0.451420 0.561748 0.165438 0.134866
H16   H     H_    0.167794 0.863847 0.289620 0.114296
O1    O     O_R   0.267740 0.231960 0.575440 -0.495636
O2    O     O_R   0.596130 0.579390 0.952730 -0.494065
O3    O     O_R   0.639060 0.321160 0.958670 -0.511864
O4    O     O_R   0.527280 0.186640 0.570530 -0.503937
O5    O     O_R   0.821240 0.124200 0.104370 -0.514359
O6    O     O_R   0.036890 0.167040 0.097840 -0.510485
O7    O     O_R   0.056180 0.349610 0.102880 -0.478131
O8    O     O_R   0.797660 0.564870 0.097950 -0.438366
O9    O     O_R   0.595880 0.584250 0.104270 -0.546676
O10   O     O_R   0.638830 0.325670 0.099150 -0.534520
O11   O     O_3   0.824590 0.350230 0.028100 -0.293180
O12   O     O_R   0.685970 0.784660 0.430010 -0.502375
O13   O     O_R   0.728090 0.003450 0.576380 -0.500964
O14   O     O_R   0.682970 0.789190 0.570490 -0.490122
O15   O     O_R   0.499290 0.771880 0.575530 -0.501675
O16   O     O_R   0.285330 0.030870 0.569730 -0.486472
O17   O     O_R   0.270980 0.227080 0.423890 -0.524618
O18   O     O_R   0.530280 0.182120 0.430050 -0.488456
O19   O     O_R   0.731330 0.998570 0.424830 -0.537130
O20   O     O_R   0.502530 0.767000 0.423990 -0.494775
O21   O     O_R   0.288330 0.026350 0.429250 -0.525555
O22   O     O_3   0.499990 0.000020 0.499980 -0.289729
O23   O     O_R   0.821500 0.119340 0.952830 -0.501714
O24   O     O_R   0.037130 0.162530 0.957360 -0.491661
O25   O     O_R   0.056440 0.344740 0.951340 -0.519753
O26   O     O_R   0.797900 0.560360 0.957470 -0.487267

loop_
_geom_bond_atom_site_label_1
_geom_bond_atom_site_label_2
_ccdc_geom_bond_type
C28   O19   A    
C35   H12   S    
C24   F1    S    
C23   C45   T    
C27   C29   A    
C19   C20   A    
C18   C26   A    
C16   C51   S    
C41   O2    A    
C12   C49   T    
Cr6   O10   S    
C7    C8    A    
C53   C54   S    
C18   C25   A    
C34   C51   T    
Cr5   O26   S    
C20   H4    S    
C36   C37   A    
C11   H16   S    
Cr4   O23   S    
C40   O20   A    
C5    C6    A    
C31   H11   S    
Cr3   O21   S    
C29   C33   A    
C47   O21   A    
C30   C38   A    
C1    C2    S    
Cr5   O11   S    
C19   C26   A    
Cr2   O13   S    
C35   C36   A    
Cr1   O22   S    
Cr4   O24   S    
C4    C12   S    
C44   O9    A    
C9    C10   A    
C32   H6    S    
Cr2   O12   S    
C1    O13   A    
Cr3   O15   S    
C21   C22   A    
C43   O6    A    
C42   O3    A    
Cr2   O19   S    
C44   O8    A    
Cr6   O9    S    
C52   C54   T    
C46   O10   A    
C7    C14   A    
C15   C20   A    
C3    C44   S    
C43   O7    A    
C24   C25   A    
Cr1   O17   S    
C3    C8    A    
C34   C45   S    
C1    O4    A    
Cr6   O11   S    
Cr3   O22   S    
C17   C21   A    
C46   O5    A    
C30   C37   A    
Cr5   O7    S    
C5    C9    A    
C29   C30   A    
C36   H13   S    
Cr4   O6    S    
C6    C14   A    
Cr1   O1    S    
Cr6   O3    S    
C31   C32   A    
C28   C38   S    
C17   C18   A    
C25   H10   S    
C9    H15   S    
Cr1   O4    S    
C7    H1    S    
C26   C47   S    
C27   C46   S    
C37   H14   S    
Cr3   O16   S    
C22   C24   A    
Cr2   O22   S    
C42   O23   A    
C22   H9    S    
C33   H5    S    
C39   O24   A    
C15   C17   A    
Cr6   O2    S    
C21   H3    S    
C27   C32   A    
Cr1   O18   S    
C3    C5    A    
C2    C53   T    
C31   C38   A    
C39   O25   A    
C16   O16   A    
C41   O26   A    
C28   O18   A    
C16   O1    A    
Cr5   O25   S    
Cr5   O8    S    
C15   C43   S    
Cr4   O5    S    
C6    C13   A    
C11   C13   A    
C13   H2    S    
C23   C39   S    
Cr3   O20   S    
C48   C50   T    
C33   C35   A    
C41   C48   S    
Cr4   O11   S    
C10   C11   A    
C14   C40   S    
C4    O15   A    
C10   H7    S    
Cr2   O14   S    
C49   C50   S    
C8    F2    S    
C47   O17   A    
C19   H8    S    
C40   O12   A    
C42   C52   S    
C4    O14   A    
