data_mof_unit_22295.cif
_audit_creation_date              2012-12-11T15:55:48-0500
_audit_creation_method            fapswitch 2.2
_symmetry_space_group_name_H-M    P1
_symmetry_Int_Tables_number       1
_space_group_crystal_system       triclinic
_cell_length_a                    11.048479
_cell_length_b                    11.066181
_cell_length_c                    18.749318
_cell_angle_alpha                 90.429524
_cell_angle_beta                  90.855105
_cell_angle_gamma                 59.066326
_cell_volume                      1966.09563323

loop_
_atom_site_label
_atom_site_type_symbol
_atom_type_description
_atom_site_fract_x
_atom_site_fract_y
_atom_site_fract_z
_atom_type_partial_charge
C1    C     C_R   0.361504 0.765410 0.395308 0.530593
C2    C     C_R   0.618273 0.135601 0.162631 0.037484
C3    C     C_R   0.361987 0.342833 0.158932 -0.013545
C4    C     C_R   0.495350 0.271856 0.269185 -0.159975
C5    C     C_R   0.492986 0.259237 0.195451 -0.033459
C6    C     C_R   0.087601 0.694036 0.324429 -0.043950
C7    C     C_R   0.968723 0.789307 0.362529 -0.103067
C8    C     C_R   0.676305 0.148181 0.098858 -0.070790
C9    C     C_R   0.775768 0.027117 0.062281 -0.070962
C10   C     C_R   0.244900 0.448078 0.196360 -0.160562
C11   C     C_R   0.245814 0.454608 0.270503 -0.041810
C12   C     C_R   0.389996 0.359517 0.385413 0.544544
C13   C     C_R   0.860132 0.763795 0.371366 -0.128866
C14   C     C_R   0.874046 0.640527 0.344333 -0.105157
C15   C     C_R   0.001000 0.535559 0.314132 -0.098829
C16   C     C_R   0.111996 0.560519 0.305641 0.035298
C17   C     C_R   0.372195 0.358609 0.307792 -0.006506
C18   C     C_R   0.864025 0.330680 0.182911 0.025739
C19   C     C_R   0.944834 0.220641 0.230809 0.005708
C20   C     C_R   0.917601 0.236444 0.302676 -0.020134
C21   C     C_R   0.725885 0.472941 0.280134 -0.165946
C22   C     C_R   0.757399 0.459898 0.208176 -0.168003
C23   C     C_R   0.771316 0.381929 0.401745 0.546172
C24   C     C_3   0.973630 0.073109 0.231189 -0.250363
C25   C     C_3   0.942341 0.092029 0.309985 -0.290343
C26   C     C_R   0.806904 0.361612 0.327838 0.021743
C27   C     C_R   0.365940 0.838098 0.173880 0.016943
C28   C     C_R   0.389501 0.918650 0.223881 0.017296
C29   C     C_R   0.391279 0.894760 0.296241 -0.003844
C30   C     C_R   0.380394 0.688532 0.270103 -0.179113
C31   C     C_R   0.372854 0.715028 0.196930 -0.178069
C32   C     C_3   0.314208 0.073897 0.234346 -0.257918
C33   C     C_3   0.317727 0.047646 0.313863 -0.293234
C34   C     C_R   0.342291 0.772180 0.603341 0.546334
C35   C     C_R   0.366558 0.790920 0.319958 0.004031
C36   C     C_R   0.297719 0.305387 0.807652 0.019880
C37   C     C_R   0.404360 0.192130 0.770138 0.042417
C38   C     C_R   0.415409 0.195765 0.697909 0.024165
C39   C     C_R   0.197057 0.419400 0.693844 -0.170210
C40   C     C_R   0.186233 0.414508 0.768327 -0.168343
C41   C     C_3   0.560118 0.112562 0.782939 -0.276689
C42   C     C_3   0.573933 0.114704 0.703113 -0.269439
C43   C     C_R   0.320900 0.316935 0.659701 0.016502
C44   C     C_R   0.809954 0.331608 0.836806 0.013572
C45   C     C_R   0.368934 0.348579 0.594665 0.549667
C46   C     C_R   0.746769 0.463553 0.803566 0.019371
C47   C     C_R   0.738953 0.472855 0.730589 0.044642
C48   C     C_R   0.830916 0.224262 0.719820 -0.173461
C49   C     C_R   0.840705 0.213097 0.794498 -0.165671
C50   C     C_3   0.773152 0.583876 0.809152 -0.272961
C51   C     C_3   0.769041 0.589463 0.728656 -0.266934
C52   C     C_R   0.789358 0.353995 0.687276 0.021848
C53   C     C_R   0.288357 0.871294 0.820236 0.022389
C54   C     C_R   0.179980 0.871562 0.781700 0.025954
C55   C     C_R   0.187897 0.856660 0.708661 0.023553
C56   C     C_R   0.760804 0.378084 0.611292 0.546393
C57   C     C_R   0.395191 0.875543 0.707866 -0.159892
C58   C     C_R   0.390179 0.885138 0.782113 -0.149047
C59   C     C_3   0.119194 0.779840 0.790579 -0.287000
C60   C     C_3   0.129024 0.761471 0.710428 -0.263977
C61   C     C_R   0.303335 0.844607 0.671519 0.018864
C62   C     C_R   0.911274 0.315157 0.111198 0.540079
C63   C     C_R   0.330264 0.296837 0.091013 0.534079
C64   C     C_R   0.310601 0.896605 0.104134 0.538030
C65   C     C_R   0.879980 0.310630 0.905684 0.549289
C66   C     C_R   0.292721 0.285916 0.883812 0.542632
C67   C     C_R   0.820276 0.892268 0.089625 0.020803
C68   C     C_R   0.271942 0.900671 0.896133 0.544994
C69   C     C_R   0.770168 0.880323 0.155819 -0.101098
C70   C     C_R   0.670879 0.000494 0.192060 -0.117025
Cr1   Cr    Cr6+3 0.601740 0.606840 0.505840 1.004005
Cr2   Cr    Cr6+3 0.291500 0.601560 0.495070 1.014460
Cr3   Cr    Cr6+3 0.606780 0.291630 0.499130 0.998137
Cr4   Cr    Cr6+3 0.062440 0.063060 0.008240 0.971811
Cr5   Cr    Cr6+3 0.062950 0.375000 0.998920 0.979767
Cr6   Cr    Cr6+3 0.374550 0.061770 0.992470 1.013935
H1    H     H_    0.594708 0.206290 0.297001 0.139181
H2    H     H_    0.763826 0.840967 0.397290 0.111092
H3    H     H_    0.783835 0.630966 0.347083 0.158584
H4    H     H_    0.011568 0.437940 0.295538 0.124255
H5    H     H_    0.640530 0.571373 0.299385 0.139677
H6    H     H_    0.697688 0.548486 0.172559 0.129052
H7    H     H_    0.085353 0.993872 0.220325 0.163809
H8    H     H_    0.896088 0.060041 0.199305 0.166092
H9    H     H_    0.844503 0.092647 0.323579 0.143802
H10   H     H_    0.036410 0.025020 0.344048 0.134799
H11   H     H_    0.389501 0.591873 0.288076 0.134455
H12   H     H_    0.814121 0.038384 0.011424 0.113037
H13   H     H_    0.364208 0.644907 0.159375 0.120523
H14   H     H_    0.207852 0.129948 0.209548 0.147405
H15   H     H_    0.381053 0.115180 0.219236 0.160964
H16   H     H_    0.387310 0.075344 0.344216 0.148636
H17   H     H_    0.212032 0.088163 0.337102 0.140428
H18   H     H_    0.116589 0.509919 0.664646 0.121579
H19   H     H_    0.096324 0.499034 0.795030 0.117043
H20   H     H_    0.600948 0.005058 0.804436 0.128324
H21   H     H_    0.596783 0.175977 0.812160 0.141323
H22   H     H_    0.621721 0.176998 0.687166 0.173979
H23   H     H_    0.959219 0.883791 0.384397 0.110535
H24   H     H_    0.621344 0.008557 0.678361 0.123606
H25   H     H_    0.861479 0.131197 0.687852 0.124081
H26   H     H_    0.885943 0.109591 0.818195 0.139683
H27   H     H_    0.878126 0.556244 0.830564 0.163811
H28   H     H_    0.683618 0.678281 0.834101 0.124990
H29   H     H_    0.680335 0.687998 0.706702 0.142736
H30   H     H_    0.873155 0.556345 0.704871 0.136856
H31   H     H_    0.477151 0.880724 0.679781 0.118175
H32   H     H_    0.467875 0.900313 0.809582 0.133669
H33   H     H_    0.008743 0.839498 0.809743 0.129085
H34   H     H_    0.190792 0.681306 0.820442 0.136811
H35   H     H_    0.208768 0.652882 0.694186 0.167674
H36   H     H_    0.024475 0.808010 0.683139 0.129784
H37   H     H_    0.804415 0.777705 0.178495 0.116198
H38   H     H_    0.630306 0.987005 0.241683 0.107860
H39   H     H_    0.157649 0.727084 0.309261 0.134874
H40   H     H_    0.638852 0.250972 0.075628 0.100328
H41   H     H_    0.145946 0.516322 0.168663 0.141220
O1    O     O_R   0.748670 0.497520 0.427970 -0.535626
O2    O     O_R   0.300170 0.471020 0.567120 -0.505868
O3    O     O_R   0.491630 0.259030 0.574940 -0.523778
O4    O     O_R   0.718640 0.304340 0.577850 -0.510333
O5    O     O_3   0.500010 0.500010 0.500020 -0.253600
O6    O     O_R   0.186620 0.923750 0.087000 -0.540172
O7    O     O_R   0.957350 0.194160 0.084660 -0.505826
O8    O     O_R   0.935120 0.407280 0.085350 -0.532036
O9    O     O_R   0.203800 0.365060 0.067090 -0.515010
O10   O     O_R   0.417470 0.174910 0.067830 -0.501977
O11   O     O_R   0.375160 0.946380 0.070880 -0.490985
O12   O     O_R   0.476470 0.723930 0.429450 -0.503576
O13   O     O_R   0.160500 0.919670 0.926690 -0.538691
O14   O     O_R   0.933140 0.190380 0.936050 -0.517357
O15   O     O_R   0.909010 0.403210 0.925030 -0.526798
O16   O     O_R   0.179590 0.361290 0.918480 -0.512481
O17   O     O_R   0.391360 0.170840 0.907510 -0.525225
O18   O     O_R   0.350950 0.942600 0.922260 -0.513619
O19   O     O_3   0.166650 0.166610 0.999880 -0.240802
O20   O     O_R   0.264730 0.744140 0.416740 -0.537595
O21   O     O_R   0.309440 0.472410 0.418220 -0.490127
O22   O     O_R   0.501630 0.260530 0.414310 -0.536714
O23   O     O_R   0.727920 0.305730 0.428950 -0.507191
O24   O     O_R   0.738670 0.496020 0.588600 -0.514493
O25   O     O_R   0.467190 0.722540 0.578350 -0.504111
O26   O     O_R   0.254720 0.742640 0.577370 -0.522514
C71   C     C_3   0.913892 0.761571 0.046798 -0.294815
C72   C     C_3   0.063640 0.733359 0.042832 -0.419282
H42   H     H_    0.063297 0.819712 0.013394 0.199700
H43   H     H_    0.108264 0.725033 0.097291 0.156457
H44   H     H_    0.131159 0.633219 0.013868 0.145088
H45   H     H_    0.918340 0.667901 0.070945 0.168288
H46   H     H_    0.869239 0.773626 0.992009 0.124130

loop_
_geom_bond_atom_site_label_1
_geom_bond_atom_site_label_2
_ccdc_geom_bond_type
C44   C49   A    
Cr2   O26   S    
Cr4   O7    S    
C21   C26   A    
C50   H28   S    
C41   C42   S    
C54   C55   A    
Cr1   O5    S    
C19   C20   A    
C65   O15   A    
C23   O1    A    
C62   O7    A    
C72   H42   S    
Cr6   O19   S    
C53   C54   A    
C70   H38   S    
C69   H37   S    
C71   H45   S    
C7    H23   S    
C30   C35   A    
C22   H6    S    
C21   C22   A    
C28   C29   A    
C24   H7    S    
C38   C42   S    
C1    O12   A    
C42   H22   S    
C9    H12   S    
C30   C31   A    
C36   C66   S    
C32   H15   S    
C20   C25   S    
C15   C16   A    
C29   C33   S    
C59   H34   S    
C18   C19   A    
C23   C26   S    
C4    H1    S    
C53   C68   S    
C36   C40   A    
C71   H46   S    
C7    C13   A    
C72   H43   S    
C66   O17   A    
C32   H14   S    
C8    C9    A    
C64   O11   A    
Cr4   O19   S    
C12   C17   S    
C58   H32   S    
Cr1   O24   S    
C45   O2    A    
Cr2   O21   S    
Cr4   O6    S    
C59   C60   S    
Cr3   O3    S    
C13   C14   A    
C44   C65   S    
C67   C71   S    
C65   O14   A    
Cr6   O18   S    
C44   C46   A    
C54   C59   S    
Cr4   O14   S    
C34   O26   A    
C27   C31   A    
C23   O23   A    
C28   C32   S    
C24   C25   S    
C10   C11   A    
C33   H16   S    
C49   H26   S    
Cr6   O17   S    
Cr5   O19   S    
C18   C62   S    
C39   C43   A    
Cr3   O22   S    
C31   H13   S    
C34   C61   S    
C33   H17   S    
C67   C69   A    
C9    C67   A    
C39   H18   S    
C37   C38   A    
C60   H36   S    
C42   H24   S    
Cr1   O12   S    
C66   O16   A    
C34   O25   A    
C11   C16   S    
C15   H4    S    
C48   C52   A    
C51   H29   S    
C25   H9    S    
C50   C51   S    
C12   O22   A    
C14   H3    S    
C68   O13   A    
C43   C45   S    
C47   C52   A    
Cr1   O25   S    
C56   O24   A    
C45   O3    A    
Cr2   O20   S    
C57   H31   S    
C21   H5    S    
Cr3   O4    S    
Cr4   O13   S    
Cr6   O11   S    
C12   O21   A    
C2    C5    S    
C4    C17   A    
C40   H19   S    
C39   C40   A    
C72   H44   S    
C1    O20   A    
Cr5   O15   S    
C1    C35   S    
C46   C50   S    
C46   C47   A    
C36   C37   A    
Cr1   O1    S    
Cr2   O5    S    
C18   C22   A    
C68   O18   A    
C2    C8    A    
C4    C5    A    
C3    C5    A    
C11   C17   A    
C62   O8    A    
C47   C51   S    
C53   C58   A    
Cr5   O16   S    
C57   C61   A    
C6    C7    A    
Cr3   O23   S    
C3    C63   S    
C64   O6    A    
C29   C35   A    
C8    H40   S    
C10   H41   S    
C71   C72   S    
Cr5   O9    S    
C32   C33   S    
C19   C24   S    
C24   H8    S    
C38   C43   A    
C60   H35   S    
C2    C70   A    
C56   O4    A    
C57   C58   A    
C20   C26   A    
C51   H30   S    
C48   C49   A    
C48   H25   S    
C55   C61   A    
Cr2   O2    S    
C25   H10   S    
C59   H33   S    
C41   H21   S    
C37   C41   S    
C69   C70   A    
C6    H39   S    
C63   O9    A    
C27   C64   S    
C13   H2    S    
C6    C16   A    
C41   H20   S    
C50   H27   S    
Cr3   O5    S    
C27   C28   A    
C3    C10   A    
Cr6   O10   S    
C14   C15   A    
Cr5   O8    S    
C30   H11   S    
C55   C60   S    
C63   O10   A    
C52   C56   S    
