data_mof_unit_15899.cif
_audit_creation_date              2012-10-26T19:57:24-0400
_audit_creation_method            fapswitch 2.2
_symmetry_space_group_name_H-M    P1
_symmetry_Int_Tables_number       1
_space_group_crystal_system       triclinic
_cell_length_a                    12.995135
_cell_length_b                    10.889716
_cell_length_c                    9.728926
_cell_angle_alpha                 90.115007
_cell_angle_beta                  97.101185
_cell_angle_gamma                 91.200603
_cell_volume                      1365.89741234

loop_
_atom_site_label
_atom_site_type_symbol
_atom_type_description
_atom_site_fract_x
_atom_site_fract_y
_atom_site_fract_z
_atom_type_partial_charge
C1    C     C_R   0.503059 0.265528 0.501055 0.561921
C2    C     C_2   0.510466 0.133596 0.508310 -0.124579
C3    C     C_2   0.478439 0.404190 0.918024 -0.030011
C4    C     C_R   0.300694 0.506673 0.473906 0.548520
C5    C     C_2   0.461723 0.410421 0.067941 0.066652
C6    C     C_R   0.502842 0.734489 0.500358 0.550407
C7    C     C_R   0.699287 0.501957 0.526922 0.545947
C8    C     C_R   0.811892 0.511429 0.543936 0.002058
C9    C     C_R   0.187237 0.514988 0.460423 -0.007532
C10   C     C_R   0.022523 0.452808 0.334103 -0.148898
C11   C     C_R   0.129066 0.465379 0.342468 -0.155010
C12   C     C_R   0.027617 0.547380 0.562742 0.037695
C13   C     C_R   0.136285 0.563422 0.569082 -0.023891
C14   C     C_R   0.396245 0.308872 0.110733 0.104666
C15   C     C_R   0.435407 0.189706 0.124747 -0.092282
C16   C     C_R   0.369725 0.090195 0.147282 -0.118961
C17   C     C_R   0.263946 0.108070 0.149730 -0.104239
C18   C     C_R   0.223446 0.224982 0.126800 -0.126915
C19   C     C_R   0.289292 0.324644 0.105569 -0.080060
C20   C     C_R   0.195569 0.636651 0.682886 0.047163
C21   C     C_R   0.214892 0.588879 0.817510 -0.078124
C22   C     C_R   0.272758 0.657914 0.922616 -0.118693
C23   C     C_R   0.971768 0.490110 0.444508 0.031433
C24   C     C_R   0.312117 0.774177 0.893940 -0.104444
C25   C     C_R   0.293472 0.821994 0.760250 -0.099220
C26   C     C_R   0.235707 0.753453 0.654815 -0.080069
C27   C     C_R   0.642478 0.877273 0.346543 0.065301
C28   C     C_R   0.627591 0.870865 0.201247 -0.085865
C29   C     C_R   0.701927 0.816523 0.129733 -0.124428
C30   C     C_R   0.792224 0.770248 0.202588 -0.103141
C31   C     C_R   0.808196 0.778065 0.347056 -0.105365
C32   C     C_R   0.733221 0.830281 0.419124 -0.078399
C33   C     C_R   0.865014 0.472529 0.436235 -0.130628
C34   C     C_R   0.865885 0.567761 0.661532 -0.150294
C35   C     C_R   0.972718 0.586901 0.670459 -0.149634
C36   C     C_2   0.563962 0.934505 0.423348 -0.046009
C37   C     C_2   0.503532 0.867003 0.499528 -0.116081
C38   C     C_2   0.555544 0.069151 0.416040 -0.160276
Cu1   Cu    Cu3+1 0.500020 0.500020 0.638640 0.939156
Cu2   Cu    Cu3+1 0.499980 0.499980 0.361360 0.945144
H1    H     H_    0.503400 0.582766 0.895677 0.209327
H2    H     H_    0.463896 0.316857 0.864678 0.145617
H3    H     H_    0.516387 0.174070 0.116395 0.086680
H4    H     H_    0.400205 0.998916 0.160956 0.103624
H5    H     H_    0.213067 0.030885 0.165936 0.110069
H6    H     H_    0.140808 0.237980 0.123127 0.101137
H7    H     H_    0.256733 0.413389 0.080194 0.084039
H8    H     H_    0.185468 0.498413 0.840423 0.099727
H9    H     H_    0.287507 0.621561 0.026363 0.114281
H10   H     H_    0.357152 0.827130 0.975307 0.097993
H11   H     H_    0.323886 0.912163 0.738360 0.095928
H12   H     H_    0.547542 0.562442 0.115203 0.204314
H13   H     H_    0.222340 0.791133 0.551345 0.089750
H14   H     H_    0.558350 0.906630 0.143441 0.086113
H15   H     H_    0.689685 0.810678 0.017801 0.100851
H16   H     H_    0.849996 0.728814 0.147135 0.105996
H17   H     H_    0.878735 0.743740 0.403207 0.122298
H18   H     H_    0.746148 0.835019 0.531173 0.097345
H19   H     H_    0.591332 0.117023 0.335884 0.137165
H20   H     H_    0.825089 0.600453 0.744602 0.125032
H21   H     H_    0.979995 0.411335 0.242135 0.104087
H22   H     H_    0.011120 0.632967 0.761803 0.117415
H23   H     H_    0.166212 0.432585 0.257890 0.126692
H24   H     H_    0.448190 0.907600 0.559300 0.073782
H25   H     H_    0.822905 0.429511 0.344787 0.122419
H26   H     H_    0.486182 0.091853 0.600230 0.091805
N1    N     N_2   0.498860 0.498660 0.846770 -0.354750
N2    N     N_2   0.498840 0.498630 0.152900 -0.357128
O1    O     O_R   0.500020 0.321960 0.617050 -0.506263
O2    O     O_R   0.499980 0.321920 0.382890 -0.479590
O3    O     O_R   0.349010 0.500000 0.598060 -0.476491
O4    O     O_R   0.348980 0.499950 0.363910 -0.499651
O5    O     O_R   0.500020 0.678080 0.617110 -0.500273
O6    O     O_R   0.499980 0.678040 0.382950 -0.486759
O7    O     O_R   0.651020 0.500050 0.636090 -0.496642
O8    O     O_R   0.650990 0.500000 0.401940 -0.498952

loop_
_geom_bond_atom_site_label_1
_geom_bond_atom_site_label_2
_ccdc_geom_bond_type
C3    H2    S    
C32   H18   S    
C33   H25   S    
C7    C8    S    
H1    N1    S    
C12   C23   A    
Cu2   O2    S    
C36   C37   D    
C17   H5    S    
C34   C35   A    
C11   H23   S    
C30   C31   A    
C19   H7    S    
C15   C16   A    
C1    C2    S    
C9    C13   A    
C16   C17   A    
C23   C33   A    
Cu1   O7    S    
C16   H4    S    
H12   N2    S    
C21   H8    S    
C21   C22   A    
C34   H20   S    
C5    N2    D    
C18   H6    S    
C6    O6    A    
C24   H10   S    
C24   C25   A    
Cu1   Cu2   S    
C28   H14   S    
C18   C19   A    
C7    O7    A    
C29   H15   S    
C2    H26   S    
C25   C26   A    
C30   H16   S    
C1    O1    A    
Cu2   O8    S    
C25   H11   S    
C29   C30   A    
C2    C38   D    
C31   C32   A    
C17   C18   A    
Cu1   O1    S    
C6    C37   S    
C8    C34   A    
C12   C13   A    
C12   C35   A    
C9    C11   A    
C5    C14   S    
C22   H9    S    
C27   C36   S    
C22   C24   A    
C10   H21   S    
C26   H13   S    
C4    O4    A    
C37   H24   S    
C6    O5    A    
C28   C29   A    
Cu2   O4    S    
C13   C20   S    
C27   C32   A    
Cu1   N1    S    
C14   C19   A    
C3    N1    D    
C3    C5    S    
C7    O8    A    
C10   C23   A    
C1    O2    A    
C31   H17   S    
C36   C38   S    
C15   H3    S    
C20   C26   A    
Cu2   O6    S    
C35   H22   S    
C8    C33   A    
Cu1   O5    S    
C10   C11   A    
C38   H19   S    
C20   C21   A    
Cu2   N2    S    
C27   C28   A    
Cu1   O3    S    
C14   C15   A    
C4    C9    S    
C4    O3    A    
