data_mof_unit_21049.cif
_audit_creation_date              2012-10-26T18:50:04-0400
_audit_creation_method            fapswitch 2.2
_symmetry_space_group_name_H-M    P1
_symmetry_Int_Tables_number       1
_space_group_crystal_system       triclinic
_cell_length_a                    10.797281
_cell_length_b                    12.992241
_cell_length_c                    11.697662
_cell_angle_alpha                 99.992954
_cell_angle_beta                  93.700326
_cell_angle_gamma                 90.44095
_cell_volume                      1612.39629162

loop_
_atom_site_label
_atom_site_type_symbol
_atom_type_description
_atom_site_fract_x
_atom_site_fract_y
_atom_site_fract_z
_atom_type_partial_charge
C1    C     C_R   0.497587 0.299096 0.478554 0.528247
C2    C     C_R   0.483978 0.860472 0.434791 -0.143861
C3    C     C_R   0.512539 0.031437 0.555245 0.047584
C4    C     C_R   0.487454 0.968563 0.444754 0.047579
C5    C     C_R   0.394944 0.393288 0.019887 -0.155783
C6    C     C_R   0.605047 0.606721 0.980110 -0.155848
C7    C     C_R   0.400405 0.405509 0.142910 0.421330
C8    C     C_R   0.599567 0.594514 0.857082 0.421406
C9    C     C_R   0.543695 0.547446 0.157667 0.000387
C10   C     C_R   0.456317 0.452546 0.842331 0.000373
C11   C     C_R   0.537562 0.539077 0.034813 -0.048631
C12   C     C_R   0.502411 0.700904 0.521446 0.528263
C13   C     C_R   0.462449 0.460917 0.965183 -0.048675
C14   C     C_R   0.262848 0.499850 0.500472 0.522440
C15   C     C_R   0.737153 0.500146 0.499523 0.522373
C16   C     C_R   0.131739 0.331493 0.572295 -0.117840
C17   C     C_R   0.868261 0.668464 0.427610 -0.117918
C18   C     C_R   0.068377 0.248156 0.604050 -0.129262
C19   C     C_R   0.931632 0.751799 0.395846 -0.129222
C20   C     C_R   0.939592 0.246958 0.600715 -0.124199
C21   C     C_R   0.060428 0.752999 0.399180 -0.124198
C22   C     C_R   0.873709 0.329275 0.566002 -0.101656
C23   C     C_R   0.505227 0.814366 0.533747 -0.008584
C24   C     C_R   0.126303 0.670691 0.433916 -0.101736
C25   C     C_R   0.936180 0.415654 0.534645 0.003618
C26   C     C_R   0.063824 0.584318 0.465293 0.003540
C27   C     C_R   0.066764 0.416486 0.537111 -0.000706
C28   C     C_R   0.933237 0.583482 0.462820 -0.000808
C29   C     C_R   0.870841 0.499491 0.498329 -0.025341
C30   C     C_R   0.129161 0.500492 0.501638 -0.025319
C31   C     C_3   0.791133 0.656743 0.824924 -0.013140
C32   C     C_3   0.856588 0.727347 0.755978 -0.359798
C33   C     C_3   0.208766 0.343686 0.175352 -0.012949
C34   C     C_R   0.494768 0.185634 0.466252 -0.008614
C35   C     C_3   0.143226 0.272691 0.243797 -0.360008
C36   C     C_R   0.466293 0.014737 0.345960 -0.147216
C37   C     C_R   0.533698 0.985263 0.654040 -0.147235
C38   C     C_R   0.469990 0.122936 0.356644 -0.134543
C39   C     C_R   0.530000 0.877065 0.643356 -0.134559
C40   C     C_R   0.516017 0.139528 0.565209 -0.143859
Cu1   Cu    Cu3+1 0.509250 0.507730 0.615930 0.969343
Cu2   Cu    Cu3+1 0.490750 0.492270 0.384070 0.969196
H1    H     H_    0.109653 0.818313 0.375571 0.112008
H2    H     H_    0.226429 0.676495 0.437103 0.131974
H3    H     H_    0.464478 0.812469 0.349881 0.117859
H4    H     H_    0.535518 0.187530 0.650118 0.117873
H5    H     H_    0.547145 0.842616 0.720660 0.167387
H6    H     H_    0.452842 0.157386 0.279342 0.167385
H7    H     H_    0.446837 0.967318 0.260797 0.104138
H8    H     H_    0.553153 0.032682 0.739203 0.104137
H9    H     H_    0.397099 0.393216 0.788419 0.119613
H10   H     H_    0.602912 0.606775 0.211578 0.119614
H11   H     H_    0.821512 0.574995 0.796747 0.147577
H12   H     H_    0.890376 0.181642 0.624315 0.112023
H13   H     H_    0.820555 0.682769 0.918373 0.104729
H14   H     H_    0.836676 0.810473 0.789593 0.141777
H15   H     H_    0.958421 0.715841 0.763751 0.105274
H16   H     H_    0.823077 0.708734 0.663032 0.173720
H17   H     H_    0.179089 0.318308 0.081843 0.104535
H18   H     H_    0.178687 0.425424 0.204209 0.148039
H19   H     H_    0.176991 0.290603 0.336686 0.173645
H20   H     H_    0.041471 0.284501 0.236417 0.105336
H21   H     H_    0.162733 0.189663 0.209457 0.141753
H22   H     H_    0.339569 0.330437 0.967371 0.085862
H23   H     H_    0.660386 0.669583 0.032640 0.085686
H24   H     H_    0.231750 0.327286 0.573947 0.128137
H25   H     H_    0.768252 0.672655 0.425934 0.128160
H26   H     H_    0.119463 0.183775 0.630249 0.111893
H27   H     H_    0.880547 0.816175 0.369644 0.111880
H28   H     H_    0.773590 0.323473 0.562814 0.131957
N1    N     N_R   0.523180 0.519350 0.790130 -0.216463
N2    N     N_R   0.476820 0.480650 0.209870 -0.216527
O1    O     O_R   0.506570 0.354460 0.582000 -0.537323
O2    O     O_3   0.338353 0.335203 0.196092 -0.533832
O3    O     O_R   0.493430 0.645540 0.418000 -0.537342
O4    O     O_R   0.490940 0.341410 0.386200 -0.448582
O5    O     O_R   0.509060 0.658590 0.613800 -0.448530
O6    O     O_R   0.327470 0.506520 0.597900 -0.510414
O7    O     O_R   0.672530 0.493480 0.402100 -0.510440
O8    O     O_R   0.311840 0.493460 0.402100 -0.487584
O9    O     O_R   0.688160 0.506540 0.597900 -0.487337
O10   O     O_3   0.661542 0.664844 0.803864 -0.533771

loop_
_geom_bond_atom_site_label_1
_geom_bond_atom_site_label_2
_ccdc_geom_bond_type
C4    C36   A    
Cu2   O8    S    
Cu1   Cu2   S    
C9    N2    A    
C32   H16   S    
C15   O9    A    
C40   H4    S    
C12   C23   S    
Cu2   O3    S    
C31   O10   S    
C8    O10   S    
C28   C29   A    
C19   C21   A    
C24   C26   A    
Cu1   O5    S    
C18   H26   S    
C17   C19   A    
C21   H1    S    
C6    H23   S    
C15   O7    A    
C22   C25   A    
C14   O8    A    
C5    C13   A    
Cu1   N1    S    
C10   N1    A    
C16   C27   A    
Cu2   O7    S    
C33   H17   S    
C27   C30   A    
C1    O4    A    
C9    H10   S    
C32   H15   S    
C14   C30   S    
C10   H9    S    
C26   C28   A    
C1    C34   S    
C15   C29   S    
C7    O2    S    
C2    H3    S    
C25   C29   A    
C17   H25   S    
Cu1   O6    S    
C20   H12   S    
C7    N2    A    
C5    C7    A    
C6    C8    A    
C5    H22   S    
C2    C4    A    
C31   C32   S    
Cu1   O9    S    
C12   O5    A    
Cu2   N2    S    
C35   H19   S    
C31   H11   S    
C9    C11   A    
C20   C22   A    
C3    C40   A    
C26   C30   A    
C33   H18   S    
C24   H2    S    
C34   C40   A    
C19   H27   S    
C16   H24   S    
C3    C4    A    
C6    C11   A    
C39   H5    S    
C8    N1    A    
C34   C38   A    
C17   C28   A    
C38   H6    S    
C10   C13   A    
C25   C27   A    
Cu2   O4    S    
C1    O1    A    
C36   C38   A    
C37   C39   A    
C37   H8    S    
C11   C13   A    
C23   C39   A    
C33   C35   S    
C32   H14   S    
C35   H20   S    
C18   C20   A    
C14   O6    A    
C12   O3    A    
Cu1   O1    S    
C33   O2    S    
C3    C37   A    
C16   C18   A    
C21   C24   A    
C2    C23   A    
C35   H21   S    
C31   H13   S    
C22   H28   S    
C36   H7    S    
