data_mof_unit_32526.cif
_audit_creation_date              2012-12-10T17:02:05-0500
_audit_creation_method            fapswitch 2.2
_symmetry_space_group_name_H-M    P1
_symmetry_Int_Tables_number       1
_space_group_crystal_system       triclinic
_cell_length_a                    10.795656
_cell_length_b                    10.954132
_cell_length_c                    9.827134
_cell_angle_alpha                 110.225095
_cell_angle_beta                  98.909285
_cell_angle_gamma                 90.526031
_cell_volume                      1074.84751961

loop_
_atom_site_label
_atom_site_type_symbol
_atom_type_description
_atom_site_fract_x
_atom_site_fract_y
_atom_site_fract_z
_atom_type_partial_charge
C1    C     C_R   0.498228 0.254192 0.442453 0.861576
C2    C     C_R   0.079327 0.617546 0.588603 0.083974
C3    C     C_R   0.129350 0.502896 0.503101 -0.159215
C4    C     C_R   0.051737 0.389543 0.419667 -0.073295
C5    C     C_R   0.921906 0.392349 0.413368 -0.077644
C6    C     C_R   0.871212 0.505087 0.500118 -0.160224
C7    C     C_2   0.510155 0.115165 0.415527 -0.334164
C8    C     C_2   0.572127 0.071170 0.517868 -0.103942
C9    C     C_2   0.529277 0.885259 0.586757 -0.446808
C10   C     C_2   0.568622 0.931144 0.488854 0.447312
C11   C     C_2   0.506828 0.513104 0.080530 0.105807
C12   C     C_R   0.262877 0.500309 0.500810 0.797125
C13   C     C_2   0.491595 0.486847 0.917153 -0.018939
C14   C     C_R   0.513231 0.745925 0.557807 0.846132
C15   C     C_R   0.737258 0.502585 0.500046 0.780431
C16   C     C_R   0.156272 0.732564 0.672442 -0.160320
C17   C     C_R   0.105478 0.842845 0.759950 -0.135043
C18   C     C_R   0.977448 0.842111 0.763793 -0.143160
C19   C     C_R   0.899518 0.731214 0.679492 -0.190159
C20   C     C_R   0.948957 0.617527 0.590190 0.083423
Cu1   Cu    Cu3+1 0.521920 0.521810 0.644910 0.953352
Cu2   Cu    Cu3+1 0.478080 0.478190 0.355090 0.996980
H1    H     H_    0.464930 0.046184 0.309797 0.183263
H2    H     H_    0.423338 0.410799 0.842114 0.193283
H3    H     H_    0.567638 0.596197 0.154174 0.113725
H4    H     H_    0.618703 0.627068 0.935533 0.195945
H5    H     H_    0.256082 0.738973 0.671588 0.143998
H6    H     H_    0.165854 0.929024 0.825154 0.144767
H7    H     H_    0.938024 0.928098 0.831332 0.150812
H8    H     H_    0.800320 0.736892 0.684051 0.140268
H9    H     H_    0.509663 0.952226 0.690962 0.135789
N1    N     N_2   0.445130 0.445430 0.137370 -0.014595
N2    N     N_2   0.554930 0.554500 0.862630 -0.302475
O1    O     O_R   0.511700 0.332330 0.577400 -0.567954
O2    O     O_R   0.474680 0.295500 0.332650 -0.542431
O3    O     O_R   0.338160 0.518420 0.622400 -0.583407
O4    O     O_R   0.301140 0.481590 0.377650 -0.606588
O5    O     O_R   0.525320 0.704500 0.667350 -0.589150
O6    O     O_R   0.488300 0.667670 0.422600 -0.548576
O7    O     O_R   0.698860 0.518410 0.622350 -0.567776
O8    O     O_R   0.661840 0.481580 0.377600 -0.585358
C21   C     C_1   0.105816 0.267397 0.348954 0.210474
N3    N     N_1   0.148421 0.169481 0.293935 -0.331234
O9    O     O_3   0.391499 0.330204 0.040830 -0.531388
C22   C     C_3   0.264965 0.322608 0.057744 0.197956
H10   H     H_    0.225619 0.420323 0.096620 0.138563
H11   H     H_    0.257772 0.272572 0.136912 0.190572
C23   C     C_3   0.186829 0.243022 0.908842 -0.433725
H12   H     H_    0.190421 0.295624 0.830781 0.225175
H13   H     H_    0.227430 0.147450 0.863749 0.228038
C24   C     C_3   0.050030 0.220553 0.921685 -0.876039
H14   H     H_    0.043866 0.164686 0.995869 0.263508
H15   H     H_    0.995970 0.163872 0.811357 0.263630
H16   H     H_    0.007345 0.315214 0.965367 0.267476
C25   C     C_1   0.840667 0.278114 0.320051 0.265578
N4    N     N_1   0.775731 0.187645 0.245033 -0.287004
O10   O     O_3   0.601061 0.848726 0.358387 -0.595196
C26   C     C_3   0.730551 0.826847 0.382363 0.044211
H17   H     H_    0.742646 0.723809 0.316813 0.158928
H18   H     H_    0.768942 0.839937 0.498831 0.121441
C27   C     C_3   0.807778 0.915555 0.331585 -0.339792
H19   H     H_    0.771227 0.900617 0.214443 0.238654
H20   H     H_    0.799196 0.018923 0.399084 0.230017
C28   C     C_3   0.946386 0.887167 0.347823 -0.880268
H21   H     H_    0.985434 0.904655 0.464932 0.262488
H22   H     H_    0.999841 0.952453 0.309526 0.278262
H23   H     H_    0.958121 0.784403 0.280572 0.254097
C29   C     C_1   0.644877 0.155807 0.656338 0.253045
N5    N     N_1   0.703086 0.222850 0.766675 -0.264205

loop_
_geom_bond_atom_site_label_1
_geom_bond_atom_site_label_2
_ccdc_geom_bond_type
C11   N1    D    
C27   C28   S    
C9    C14   S    
C13   N2    D    
Cu1   O1    S    
C2    C16   A    
C12   O3    A    
C6    C20   A    
C9    C10   D    
Cu2   N1    S    
H4    N2    S    
C19   C20   A    
C25   N4    T    
C24   H16   S    
C28   H21   S    
C17   H6    S    
C26   C27   S    
C23   H13   S    
C17   C18   A    
N1    O9    S    
C7    C8    D    
C18   H7    S    
C27   H20   S    
Cu1   Cu2   S    
Cu2   O2    S    
C11   C13   S    
C15   O8    A    
O10   C26   S    
C27   H19   S    
Cu1   O7    S    
C4    C21   S    
C16   H5    S    
C7    H1    S    
Cu2   O6    S    
C23   H12   S    
C5    C25   S    
C1    O1    A    
C2    C3    A    
C22   H11   S    
C5    C6    A    
C15   O7    A    
C26   H17   S    
Cu2   O8    S    
C14   O5    A    
C21   N3    T    
C9    H9    S    
C26   H18   S    
C3    C4    A    
C28   H23   S    
C22   H10   S    
C4    C5    A    
C10   O10   S    
Cu1   N2    S    
O9    C22   S    
C1    O2    A    
C8    C10   S    
C18   C19   A    
C22   C23   S    
C8    C29   S    
C12   O4    A    
Cu1   O3    S    
C11   H3    S    
C16   C17   A    
C3    C12   S    
C24   H15   S    
C14   O6    A    
C1    C7    S    
C19   H8    S    
C2    C20   A    
Cu2   O4    S    
C23   C24   S    
Cu1   O5    S    
C24   H14   S    
C13   H2    S    
C29   N5    T    
C6    C15   S    
C28   H22   S    
