data_mof_unit_38754.cif
_audit_creation_date              2012-12-11T14:38:08-0500
_audit_creation_method            fapswitch 2.2
_symmetry_space_group_name_H-M    P1
_symmetry_Int_Tables_number       1
_space_group_crystal_system       triclinic
_cell_length_a                    19.459597
_cell_length_b                    11.305227
_cell_length_c                    19.596121
_cell_angle_alpha                 89.811356
_cell_angle_beta                  97.210337
_cell_angle_gamma                 89.809415
_cell_volume                      4276.90675443

loop_
_atom_site_label
_atom_site_type_symbol
_atom_type_description
_atom_site_fract_x
_atom_site_fract_y
_atom_site_fract_z
_atom_type_partial_charge
C1    C     C_R   0.727507 0.950272 0.358064 0.556660
C2    C     C_R   0.272532 0.950415 0.641866 0.560139
C3    C     C_R   0.227508 0.450270 0.358063 0.556651
C4    C     C_R   0.772532 0.450415 0.641865 0.560125
C5    C     C_3   0.673902 0.438198 0.459372 0.138398
C6    C     C_3   0.326047 0.438669 0.540458 0.138627
C7    C     C_3   0.173901 0.938207 0.459371 0.138389
C8    C     C_3   0.826049 0.938681 0.540460 0.138621
C9    C     C_3   0.813594 0.442935 0.532634 -0.236294
C10   C     C_3   0.186237 0.444143 0.467071 -0.235793
C11   C     C_3   0.313609 0.942923 0.532643 -0.236301
C12   C     C_3   0.686227 0.944148 0.467070 -0.235822
C13   C     C_3   0.740134 0.274456 0.568949 -0.051044
C14   C     C_3   0.259955 0.274603 0.432038 -0.050910
C15   C     C_3   0.240125 0.774467 0.568945 -0.051082
C16   C     C_3   0.759959 0.774618 0.432047 -0.050920
C17   C     C_3   0.751784 0.408586 0.572065 0.014828
C18   C     C_3   0.248182 0.408760 0.428022 0.015383
C19   C     C_3   0.251787 0.908593 0.572065 0.014828
C20   C     C_3   0.748179 0.908773 0.428025 0.015384
C21   C     C_3   0.730305 0.347542 0.442497 0.044708
C22   C     C_3   0.269658 0.348775 0.557833 0.045263
C23   C     C_3   0.230311 0.847568 0.442495 0.044713
C24   C     C_3   0.769651 0.848806 0.557837 0.045265
C25   C     C_3   0.802327 0.405246 0.459204 -0.270447
C26   C     C_3   0.197681 0.407692 0.540897 -0.270874
C27   C     C_3   0.302324 0.905311 0.459195 -0.270477
C28   C     C_3   0.697682 0.907757 0.540906 -0.270918
C29   C     C_3   0.725021 0.240537 0.491512 -0.261820
C30   C     C_3   0.275010 0.241307 0.509664 -0.260441
C31   C     C_3   0.225038 0.740556 0.491506 -0.261812
C32   C     C_3   0.774989 0.741332 0.509674 -0.260435
C33   C     C_3   0.553978 0.274861 0.946594 -0.053711
C34   C     C_3   0.572962 0.285523 0.025499 -0.063075
C35   C     C_3   0.054022 0.774787 0.946586 -0.053741
C36   C     C_3   0.072981 0.785484 0.025493 -0.063078
C37   C     C_3   0.437175 0.194404 0.971365 -0.245823
C38   C     C_3   0.563766 0.061682 0.030386 -0.254239
C39   C     C_3   0.937170 0.694480 0.971359 -0.245762
C40   C     C_3   0.063701 0.561632 0.030397 -0.254178
C41   C     C_3   0.533107 0.053014 0.953726 -0.233742
C42   C     C_3   0.459678 0.183223 0.048697 -0.217320
C43   C     C_3   0.033046 0.552966 0.953738 -0.233740
C44   C     C_3   0.959661 0.683328 0.048694 -0.217366
C45   C     C_R   0.536687 0.180159 0.338565 0.550465
C46   C     C_R   0.463383 0.180209 0.661490 0.555141
C47   C     C_R   0.036687 0.680159 0.338565 0.550457
C48   C     C_R   0.963382 0.680209 0.661489 0.555158
C49   C     C_3   0.499784 0.173658 0.930266 0.012176
C50   C     C_3   0.539756 0.179184 0.062390 0.005393
C51   C     C_3   0.999778 0.673649 0.930265 0.012215
C52   C     C_3   0.039739 0.679185 0.062389 0.005389
C53   C     C_1   0.765243 0.433744 0.906489 0.035182
C54   C     C_1   0.238630 0.426412 0.096149 -0.000007
C55   C     C_1   0.265241 0.933735 0.906487 0.035293
C56   C     C_1   0.738629 0.926413 0.096148 -0.000031
C57   C     C_1   0.752215 0.415204 0.037165 -0.013017
C58   C     C_1   0.252808 0.404718 0.965911 -0.015243
C59   C     C_1   0.252213 0.915193 0.037163 -0.013126
C60   C     C_1   0.752807 0.904722 0.965910 -0.015255
C61   C     C_1   0.758358 0.424809 0.966489 -0.015152
C62   C     C_1   0.246961 0.414472 0.036680 -0.020948
C63   C     C_1   0.258354 0.924796 0.966487 -0.015216
C64   C     C_1   0.746960 0.914475 0.036679 -0.021018
C65   C     C_1   0.746223 0.398588 0.096837 0.034120
C66   C     C_1   0.257097 0.390643 0.905692 0.002335
C67   C     C_1   0.246222 0.898581 0.096835 0.034127
C68   C     C_1   0.757096 0.890647 0.905691 0.002386
C69   C     C_R   0.724164 0.312090 0.368003 0.581136
C70   C     C_R   0.275820 0.312775 0.632189 0.579861
C71   C     C_R   0.224167 0.812102 0.368004 0.581131
C72   C     C_R   0.775815 0.812791 0.632189 0.579862
C73   C     C_R   0.722456 0.954211 0.163580 0.544500
C74   C     C_R   0.278481 0.955937 0.837427 0.575798
C75   C     C_R   0.222456 0.454211 0.163580 0.544503
C76   C     C_R   0.778481 0.455938 0.837427 0.575727
C77   C     C_R   0.561522 0.182921 0.137440 0.529638
C78   C     C_R   0.470356 0.178903 0.857502 0.548062
C79   C     C_R   0.061512 0.682921 0.137440 0.529656
C80   C     C_R   0.970355 0.678902 0.857502 0.548042
C81   C     C_R   0.736802 0.360207 0.164670 0.564287
C82   C     C_R   0.264079 0.357450 0.836441 0.560408
C83   C     C_R   0.236802 0.860206 0.164669 0.564326
C84   C     C_R   0.764079 0.857452 0.836441 0.560407
C85   C     C_1   0.485075 0.171018 0.594465 0.015644
C86   C     C_1   0.515167 0.170738 0.405677 0.011919
C87   C     C_1   0.985073 0.671015 0.594465 0.015655
C88   C     C_1   0.015165 0.670737 0.405676 0.011933
C89   C     C_1   0.504708 0.165784 0.464943 -0.048976
C90   C     C_1   0.495618 0.165933 0.535243 -0.048282
C91   C     C_1   0.004706 0.665780 0.464942 -0.048958
C92   C     C_1   0.995615 0.665928 0.535242 -0.048283
C93   C     C_3   0.681742 0.461644 0.537578 -0.241272
C94   C     C_3   0.318186 0.461448 0.462135 -0.241380
C95   C     C_3   0.181748 0.961665 0.537576 -0.241256
C96   C     C_3   0.818182 0.961468 0.462138 -0.241377
Cr1   Cr    Cr6+3 0.765780 0.160710 0.267420 1.010544
Cr2   Cr    Cr6+3 0.234220 0.160710 0.732580 1.032397
Cr3   Cr    Cr6+3 0.265780 0.660710 0.267420 1.010545
Cr4   Cr    Cr6+3 0.734220 0.660710 0.732580 1.032429
Cr5   Cr    Cr6+3 0.612200 0.009560 0.248850 1.039308
Cr6   Cr    Cr6+3 0.387800 0.009560 0.751150 1.042385
Cr7   Cr    Cr6+3 0.112200 0.509560 0.248850 1.039309
Cr8   Cr    Cr6+3 0.887800 0.509560 0.751150 1.042377
Cr9   Cr    Cr6+3 0.616030 0.323720 0.248510 1.051037
Cr10  Cr    Cr6+3 0.383970 0.323720 0.751490 1.039565
Cr11  Cr    Cr6+3 0.116030 0.823720 0.248510 1.051090
Cr12  Cr    Cr6+3 0.883970 0.823720 0.751490 1.039560
H1    H     H_    0.671751 0.554717 0.549232 0.113532
H2    H     H_    0.327972 0.554416 0.449842 0.113555
H3    H     H_    0.171759 0.054739 0.549229 0.113541
H4    H     H_    0.827968 0.054437 0.449846 0.113573
H5    H     H_    0.759613 0.170888 0.479595 0.109594
H6    H     H_    0.240424 0.172344 0.522207 0.111153
H7    H     H_    0.259650 0.670931 0.479596 0.109607
H8    H     H_    0.740379 0.672401 0.522212 0.111178
H9    H     H_    0.864146 0.406131 0.555711 0.207352
H10   H     H_    0.135867 0.406957 0.444397 0.207661
H11   H     H_    0.364144 0.906016 0.555708 0.207369
H12   H     H_    0.635872 0.906895 0.444408 0.207672
H13   H     H_    0.844363 0.341299 0.451392 0.168407
H14   H     H_    0.155485 0.344944 0.549455 0.169334
H15   H     H_    0.344374 0.841410 0.451344 0.168360
H16   H     H_    0.655476 0.845054 0.549493 0.169305
H17   H     H_    0.529679 0.359938 0.927221 0.165417
H18   H     H_    0.630007 0.277203 0.038727 0.118153
H19   H     H_    0.029776 0.859885 0.927183 0.165501
H20   H     H_    0.130020 0.777148 0.038741 0.118123
H21   H     H_    0.414301 0.283741 0.959870 0.177915
H22   H     H_    0.621186 0.058952 0.034959 0.157261
H23   H     H_    0.914314 0.783822 0.959845 0.178053
H24   H     H_    0.121121 0.558825 0.034978 0.157324
H25   H     H_    0.437423 0.257110 0.076149 0.192224
H26   H     H_    0.573714 0.026741 0.921605 0.174297
H27   H     H_    0.937440 0.757275 0.076126 0.192168
H28   H     H_    0.073647 0.526623 0.921624 0.174316
H29   H     H_    0.493084 0.982397 0.947837 0.141023
H30   H     H_    0.437950 0.100443 0.068143 0.128776
H31   H     H_    0.992991 0.482398 0.947853 0.141006
H32   H     H_    0.937892 0.600598 0.068158 0.128763
H33   H     H_    0.546957 0.982820 0.057972 0.156241
H34   H     H_    0.395354 0.129054 0.956071 0.114421
H35   H     H_    0.046852 0.482803 0.057986 0.156218
H36   H     H_    0.895337 0.629149 0.956078 0.114384
H37   H     H_    0.639251 0.416741 0.559662 0.132526
H38   H     H_    0.360758 0.415963 0.440346 0.131348
H39   H     H_    0.139254 0.916777 0.559663 0.132517
H40   H     H_    0.860754 0.915991 0.440346 0.131334
H41   H     H_    0.686853 0.518438 0.434126 0.168548
H42   H     H_    0.313092 0.519532 0.565052 0.166296
H43   H     H_    0.186842 0.018446 0.434119 0.168553
H44   H     H_    0.813101 0.019543 0.565058 0.166306
H45   H     H_    0.323465 0.036583 0.536371 0.084846
H46   H     H_    0.675789 0.037737 0.462017 0.085816
H47   H     H_    0.823385 0.536597 0.536310 0.084806
H48   H     H_    0.175840 0.537743 0.462052 0.085783
H49   H     H_    0.307417 0.983163 0.425170 0.151330
H50   H     H_    0.692912 0.986332 0.574197 0.150774
H51   H     H_    0.807455 0.483050 0.425158 0.151376
H52   H     H_    0.192884 0.486237 0.574209 0.150836
H53   H     H_    0.693086 0.252681 0.593619 0.109309
H54   H     H_    0.307015 0.252014 0.407523 0.105058
H55   H     H_    0.193059 0.752707 0.593594 0.109341
H56   H     H_    0.807030 0.752034 0.407550 0.105082
H57   H     H_    0.670270 0.211899 0.482618 0.131391
H58   H     H_    0.329767 0.211999 0.519005 0.130097
H59   H     H_    0.170291 0.711903 0.482598 0.131387
H60   H     H_    0.829741 0.712004 0.519032 0.130083
O1    O     O_R   0.783100 0.287550 0.345460 -0.530326
O2    O     O_R   0.216900 0.287550 0.654540 -0.530169
O3    O     O_R   0.283100 0.787550 0.345460 -0.530334
O4    O     O_R   0.716900 0.787550 0.654540 -0.530179
O5    O     O_R   0.554710 0.081900 0.170950 -0.506962
O6    O     O_R   0.445290 0.081900 0.829050 -0.508004
O7    O     O_R   0.054710 0.581900 0.170950 -0.506972
O8    O     O_R   0.945290 0.581900 0.829050 -0.508000
O9    O     O_R   0.545650 0.284910 0.163740 -0.491129
O10   O     O_R   0.454350 0.284910 0.836260 -0.512241
O11   O     O_R   0.045650 0.784910 0.163740 -0.491164
O12   O     O_R   0.954350 0.784910 0.836260 -0.512278
O13   O     O_R   0.677950 0.374280 0.185410 -0.470513
O14   O     O_R   0.322050 0.374280 0.814590 -0.494796
O15   O     O_R   0.177950 0.874280 0.185410 -0.470393
O16   O     O_R   0.822050 0.874280 0.814590 -0.494769
O17   O     O_3   0.664670 0.164660 0.254930 -0.311735
O18   O     O_3   0.335330 0.164660 0.745070 -0.297568
O19   O     O_3   0.164670 0.664660 0.254930 -0.311726
O20   O     O_3   0.835330 0.664660 0.745070 -0.297562
O21   O     O_R   0.760020 0.037400 0.337700 -0.538972
O22   O     O_R   0.239980 0.037400 0.662300 -0.537427
O23   O     O_R   0.260020 0.537400 0.337700 -0.538968
O24   O     O_R   0.739980 0.537400 0.662300 -0.537418
O25   O     O_R   0.666600 0.921990 0.332020 -0.472721
O26   O     O_R   0.333400 0.921990 0.667980 -0.474976
O27   O     O_R   0.166600 0.421990 0.332020 -0.472731
O28   O     O_R   0.833400 0.421990 0.667980 -0.474983
O29   O     O_R   0.557260 0.082670 0.312540 -0.500186
O30   O     O_R   0.442740 0.082670 0.687460 -0.505409
O31   O     O_R   0.057260 0.582670 0.312540 -0.500186
O32   O     O_R   0.942740 0.582670 0.687460 -0.505404
O33   O     O_R   0.548410 0.285740 0.316480 -0.491208
O34   O     O_R   0.451590 0.285740 0.683520 -0.485160
O35   O     O_R   0.048410 0.785740 0.316480 -0.491217
O36   O     O_R   0.951590 0.785740 0.683520 -0.485173
O37   O     O_R   0.680500 0.375040 0.327000 -0.470762
O38   O     O_R   0.319500 0.375040 0.673000 -0.469632
O39   O     O_R   0.180500 0.875040 0.327000 -0.470744
O40   O     O_R   0.819500 0.875040 0.673000 -0.469596
O41   O     O_R   0.780350 0.286720 0.192720 -0.512807
O42   O     O_R   0.219650 0.286720 0.807280 -0.500497
O43   O     O_R   0.280350 0.786720 0.192720 -0.512825
O44   O     O_R   0.719650 0.786720 0.807280 -0.500500
O45   O     O_R   0.757470 0.036630 0.196110 -0.500005
O46   O     O_R   0.242530 0.036630 0.803890 -0.482519
O47   O     O_R   0.257470 0.536630 0.196110 -0.500000
O48   O     O_R   0.742530 0.536630 0.803890 -0.482472
O49   O     O_R   0.663840 0.921160 0.179280 -0.504218
O50   O     O_R   0.336160 0.921160 0.820720 -0.511512
O51   O     O_R   0.163840 0.421160 0.179280 -0.504221
O52   O     O_R   0.836160 0.421160 0.820720 -0.511522
C97   C     C_2   0.617033 0.259336 0.908937 0.532139
O53   O     O_2   0.621891 0.318037 0.857243 -0.510568
O54   O     O_R   0.669248 0.178445 0.932608 -0.735765
H61   H     H_    0.707871 0.175977 0.902405 0.344026
C98   C     C_2   0.552626 0.408921 0.047784 0.580195
O55   O     O_2   0.597296 0.477557 0.072388 -0.504869
O56   O     O_R   0.483491 0.446149 0.037392 -0.722464
H62   H     H_    0.477144 0.530074 0.053623 0.344958
C99   C     C_2   0.117085 0.759130 0.908954 0.532101
O57   O     O_2   0.122015 0.817812 0.857267 -0.510616
O58   O     O_R   0.169245 0.678172 0.932656 -0.735771
H63   H     H_    0.207891 0.675618 0.902482 0.344042
C100  C     C_2   0.052638 0.908895 0.047752 0.580099
O59   O     O_2   0.097290 0.977452 0.072492 -0.504772
O60   O     O_R   0.983525 0.946227 0.037189 -0.722588
H64   H     H_    0.977176 0.030145 0.053426 0.344975
O61   O     O_3   0.605207 0.400798 0.435685 -0.560435
C101  C     C_3   0.562453 0.501023 0.417896 0.024420
H65   H     H_    0.575347 0.539890 0.368984 0.188893
H66   H     H_    0.568562 0.568125 0.459697 0.153728
C102  C     C_3   0.486276 0.468321 0.406505 -0.376581
H67   H     H_    0.454379 0.548398 0.412446 0.091501
H68   H     H_    0.471034 0.434125 0.353924 0.165244
H69   H     H_    0.474999 0.401033 0.444380 0.177592
O62   O     O_3   0.394773 0.400608 0.564288 -0.560833
C103  C     C_3   0.437354 0.500383 0.581948 0.023719
H70   H     H_    0.424839 0.538089 0.631183 0.190830
H71   H     H_    0.430664 0.568447 0.540372 0.152836
C104  C     C_3   0.513628 0.467345 0.592485 -0.375495
H72   H     H_    0.524785 0.401498 0.553928 0.177336
H73   H     H_    0.545166 0.547700 0.586949 0.091884
H74   H     H_    0.529436 0.431201 0.644690 0.174149
O63   O     O_3   0.105207 0.900793 0.435691 -0.560432
C105  C     C_3   0.062445 0.001012 0.417910 0.024423
H75   H     H_    0.075329 0.039891 0.368997 0.188860
H76   H     H_    0.068555 0.068111 0.459714 0.153736
C106  C     C_3   0.986270 0.968297 0.406531 -0.376596
H77   H     H_    0.954371 0.048383 0.412448 0.091499
H78   H     H_    0.971025 0.934053 0.353959 0.165265
H79   H     H_    0.974999 0.901041 0.444429 0.177604
O64   O     O_3   0.894773 0.900609 0.564287 -0.560836
C107  C     C_3   0.937360 0.000382 0.581939 0.023705
H80   H     H_    0.924837 0.038122 0.631162 0.190773
H81   H     H_    0.930683 0.068422 0.540350 0.152848
C108  C     C_3   0.013633 0.967334 0.592504 -0.375457
H82   H     H_    0.024797 0.901430 0.553976 0.177327
H83   H     H_    0.045173 0.047679 0.586939 0.091871
H84   H     H_    0.029430 0.931256 0.644730 0.174124
C109  C     C_2   0.797671 0.207562 0.610820 0.536041
O65   O     O_2   0.856839 0.213828 0.596697 -0.591194
O66   O     O_R   0.783570 0.143757 0.668710 -0.695182
H85   H     H_    0.826823 0.108353 0.695327 0.344709
C110  C     C_2   0.202380 0.208194 0.390728 0.534943
O67   O     O_2   0.143407 0.214165 0.405481 -0.591595
O68   O     O_R   0.216158 0.145300 0.332569 -0.699074
H86   H     H_    0.172867 0.110164 0.306320 0.347205
C111  C     C_2   0.297634 0.707539 0.610843 0.536017
O69   O     O_2   0.356820 0.713793 0.596759 -0.591182
O70   O     O_R   0.283487 0.643709 0.668711 -0.695165
H87   H     H_    0.326725 0.608278 0.695347 0.344752
C112  C     C_2   0.702403 0.708188 0.390721 0.534932
O71   O     O_2   0.643420 0.714153 0.405447 -0.591591
O72   O     O_R   0.716211 0.645279 0.332578 -0.699094
H88   H     H_    0.672930 0.610130 0.306316 0.347226

loop_
_geom_bond_atom_site_label_1
_geom_bond_atom_site_label_2
_ccdc_geom_bond_type
C94   H38   S    
C81   O41   A    
C15   C19   S    
C58   C62   S    
C8    C24   S    
C9    H47   S    
C16   C32   S    
Cr4   O4    S    
C2    O22   A    
C9    H9    S    
C14   C18   S    
C6    O62   S    
Cr5   O5    S    
C35   C36   S    
C8    C96   S    
C12   H46   S    
C81   O13   A    
Cr12  O40   S    
C73   O45   A    
C107  C108  S    
Cr3   O19   S    
C82   O14   A    
C9    C25   S    
C72   O40   A    
Cr3   O43   S    
C16   H56   S    
C67   C83   S    
Cr2   O42   S    
C101  C102  S    
C11   C19   S    
C104  H72   S    
C99   O57   D    
C1    O21   A    
C5    O61   S    
C12   C20   S    
C48   O32   A    
C42   H25   S    
C80   O12   A    
C10   C18   S    
C13   C29   S    
C8    H44   S    
C98   O55   D    
C106  H77   S    
C98   O56   S    
C13   C109  S    
Cr6   O30   S    
C95   H39   S    
C30   H6    S    
O64   C107  S    
C106  H78   S    
Cr5   O29   S    
C46   O30   A    
Cr3   O3    S    
C70   O2    A    
C33   C49   S    
O66   H85   S    
C6    C22   S    
Cr11  O19   S    
Cr4   O48   S    
C37   C42   S    
C5    H41   S    
C49   C78   S    
Cr12  O12   S    
C3    C18   S    
C102  H67   S    
Cr6   O50   S    
C29   H57   S    
C16   C112  S    
C4    O24   A    
C51   C80   S    
Cr10  O14   S    
C28   H50   S    
C105  H76   S    
C59   C67   T    
C39   C51   S    
C12   H12   S    
C55   C74   S    
C65   C81   S    
C58   C66   T    
C40   C43   S    
Cr8   O52   S    
C28   H16   S    
O68   H86   S    
C6    C94   S    
C55   C63   T    
C25   H51   S    
O60   H64   S    
C56   C64   T    
C93   H37   S    
C11   C27   S    
C52   C79   S    
C93   H1    S    
C100  O59   D    
C103  H70   S    
Cr11  O39   S    
C36   C52   S    
Cr2   O22   S    
Cr10  O10   S    
C46   C85   S    
Cr11  O11   S    
C34   H18   S    
C44   C52   S    
C44   H27   S    
C71   O39   A    
C40   H24   S    
C11   H11   S    
C44   H32   S    
C45   O33   A    
Cr1   O45   S    
C111  O69   D    
C74   O46   A    
C39   H36   S    
Cr8   O32   S    
C47   O31   A    
Cr4   O24   S    
Cr7   O27   S    
C14   C30   S    
Cr5   O17   S    
Cr6   O26   S    
C41   C49   S    
C41   H26   S    
Cr5   O25   S    
C60   C64   S    
C33   C34   S    
C103  H71   S    
C70   O38   A    
Cr8   O20   S    
C101  H66   S    
C104  H73   S    
C34   C50   S    
C37   H34   S    
Cr12  O16   S    
C45   O29   A    
C73   O49   A    
C68   C84   S    
C79   O7    A    
C84   O16   A    
C34   C98   S    
Cr7   O19   S    
Cr10  O18   S    
O54   H61   S    
Cr8   O8    S    
C21   C25   S    
C10   H48   S    
C91   C92   S    
C27   H15   S    
C27   H49   S    
Cr2   O46   S    
C69   O1    A    
C54   C62   T    
C105  C106  S    
C112  O71   D    
C40   C52   S    
C21   C29   S    
C15   C31   S    
Cr4   O44   S    
C10   C26   S    
C77   O9    A    
C96   H40   S    
C21   C69   S    
C15   C111  S    
C2    O26   A    
C23   C31   S    
C14   H54   S    
C9    C17   S    
Cr1   O17   S    
Cr6   O18   S    
Cr11  O35   S    
C105  H75   S    
C10   H10   S    
Cr7   O7    S    
C3    O23   A    
C66   C82   S    
C97   O53   D    
C100  O60   S    
C17   C93   S    
C76   O48   A    
Cr9   O33   S    
O56   H62   S    
C88   C91   T    
C75   O51   A    
C16   C20   S    
C57   C65   T    
O70   H87   S    
C74   O50   A    
C33   H17   S    
C110  O67   D    
Cr8   O28   S    
C48   C87   S    
C47   O35   A    
C19   C95   S    
Cr12  O36   S    
Cr7   O31   S    
C32   H8    S    
C6    H42   S    
Cr9   O37   S    
C108  H83   S    
C30   H58   S    
C37   C49   S    
C107  H80   S    
Cr1   O41   S    
C42   C50   S    
C7    H43   S    
C4    C17   S    
Cr9   O9    S    
O58   H63   S    
C31   H59   S    
C23   C27   S    
C111  O70   S    
C35   C51   S    
C18   C94   S    
C38   H33   S    
C71   O3    A    
C59   C63   S    
C53   C76   S    
Cr6   O6    S    
C53   C61   T    
C13   H53   S    
C89   C90   S    
C50   C77   S    
C72   O4    A    
C36   H20   S    
C87   C92   T    
C24   C72   S    
C12   C28   S    
C108  H82   S    
C15   H55   S    
C4    O28   A    
C29   H5    S    
C101  H65   S    
C83   O15   A    
C104  H74   S    
C77   O5    A    
C56   C73   S    
C22   C30   S    
Cr4   O20   S    
C2    C19   S    
C78   O10   A    
C41   H29   S    
Cr12  O20   S    
C35   C99   S    
C24   C28   S    
O62   C103  S    
C1    C20   S    
C86   C89   T    
Cr10  O38   S    
C5    C93   S    
C85   C90   T    
C84   O44   A    
C57   C61   S    
C39   C44   S    
C38   C50   S    
C43   H31   S    
C112  O72   S    
C7    C95   S    
C48   O36   A    
C69   O37   A    
C80   O8    A    
C38   H22   S    
C13   C17   S    
C97   O54   S    
C102  H69   S    
Cr9   O13   S    
C47   C88   S    
C106  H79   S    
C35   H19   S    
C109  O66   S    
C45   C86   S    
C36   C100  S    
Cr1   O1    S    
C94   H2    S    
C99   O58   S    
C95   H3    S    
Cr3   O23   S    
C14   C110  S    
C43   C51   S    
C24   C32   S    
O63   C105  S    
C26   H52   S    
Cr3   O47   S    
C76   O52   A    
C38   C41   S    
C7    C23   S    
O61   C101  S    
Cr1   O21   S    
C110  O68   S    
C37   H21   S    
C79   O11   A    
C31   H7    S    
C20   C96   S    
C43   H28   S    
C7    O63   S    
C108  H84   S    
C3    O27   A    
C39   H23   S    
Cr9   O17   S    
C75   O47   A    
C11   H45   S    
C54   C75   S    
Cr2   O2    S    
Cr5   O49   S    
C46   O34   A    
C107  H81   S    
C5    C21   S    
Cr10  O34   S    
C60   C68   T    
C23   C71   S    
Cr2   O18   S    
C22   C26   S    
C40   H35   S    
Cr11  O15   S    
O72   H88   S    
C78   O6    A    
C32   H60   S    
C1    O25   A    
C42   H30   S    
C26   H14   S    
C102  H68   S    
C8    O64   S    
C109  O65   D    
C25   H13   S    
C22   C70   S    
C83   O43   A    
C96   H4    S    
Cr7   O51   S    
C82   O42   A    
C103  C104  S    
C33   C97   S    
