data_mof_unit_31195.cif
_audit_creation_date              2012-12-10T20:53:07-0500
_audit_creation_method            fapswitch 2.2
_symmetry_space_group_name_H-M    P1
_symmetry_Int_Tables_number       1
_space_group_crystal_system       triclinic
_cell_length_a                    18.319808
_cell_length_b                    18.304445
_cell_length_c                    18.33588
_cell_angle_alpha                 60.196708
_cell_angle_beta                  60.262631
_cell_angle_gamma                 60.155577
_cell_volume                      4367.91777661

loop_
_atom_site_label
_atom_site_type_symbol
_atom_type_description
_atom_site_fract_x
_atom_site_fract_y
_atom_site_fract_z
_atom_type_partial_charge
C1    C     C_R   0.389665 0.107750 0.112601 0.565166
C2    C     C_R   0.380873 0.805544 0.781303 -0.099572
C3    C     C_R   0.042566 0.529471 0.904516 0.016294
C4    C     C_R   0.476551 0.956486 0.095659 -0.001989
C5    C     C_R   0.532116 0.041601 0.907396 0.002211
C6    C     C_R   0.943388 0.948312 0.554138 0.002839
C7    C     C_R   0.055253 0.052403 0.444676 -0.000147
C8    C     C_R   0.948067 0.555913 0.943623 0.015938
C9    C     C_R   0.052478 0.444004 0.055157 0.010973
C10   C     C_R   0.556046 0.947245 0.945043 0.008038
C11   C     C_R   0.445510 0.051205 0.057018 0.003015
C12   C     C_3   0.232472 0.951710 0.274455 -0.060670
C13   C     C_R   0.196386 0.222025 0.617187 -0.101217
C14   C     C_3   0.722014 0.064189 0.514282 -0.086778
C15   C     C_3   0.945872 0.282882 0.244876 -0.110208
C16   C     C_3   0.054016 0.571597 0.698168 -0.122706
C17   C     C_3   0.475282 0.939328 0.286768 -0.080971
C18   C     C_3   0.718632 0.050410 0.767832 -0.060455
C19   C     C_R   0.805312 0.780746 0.382039 -0.099418
C20   C     C_R   0.177767 0.576957 0.285703 -0.071510
C21   C     C_R   0.825632 0.419126 0.715013 -0.068486
C22   C     C_R   0.576723 0.284585 0.177438 -0.068600
C23   C     C_R   0.422232 0.715553 0.823279 -0.066776
C24   C     C_R   0.285868 0.179362 0.575595 -0.068620
C25   C     C_R   0.715417 0.822726 0.423177 -0.069802
C26   C     C_R   0.087890 0.585488 0.315495 0.058220
C27   C     C_R   0.610470 0.892141 0.887694 0.559998
C28   C     C_R   0.914413 0.414049 0.685041 0.060179
C29   C     C_R   0.585495 0.314720 0.087501 0.060334
C30   C     C_R   0.414471 0.685324 0.912920 0.059679
C31   C     C_R   0.315384 0.089199 0.584755 0.059266
C32   C     C_R   0.684918 0.912776 0.414829 0.059494
C33   C     C_R   0.040625 0.636113 0.255055 -0.078980
C34   C     C_R   0.961149 0.367362 0.745635 -0.084838
C35   C     C_R   0.636212 0.254257 0.040261 -0.081862
C36   C     C_R   0.364808 0.745770 0.960106 -0.082447
C37   C     C_R   0.254710 0.042244 0.635922 -0.080123
C38   C     C_R   0.112352 0.107804 0.389610 0.561135
C39   C     C_R   0.744938 0.960403 0.364685 -0.090502
C40   C     C_R   0.082897 0.677726 0.165666 -0.105488
C41   C     C_R   0.919400 0.326144 0.835383 -0.105872
C42   C     C_R   0.677477 0.164479 0.082679 -0.109992
C43   C     C_R   0.323414 0.835608 0.917970 -0.105538
C44   C     C_R   0.165385 0.085080 0.677482 -0.106389
C45   C     C_R   0.834693 0.918245 0.323622 -0.109954
C46   C     C_R   0.172433 0.668911 0.136225 -0.102365
C47   C     C_R   0.830933 0.331452 0.865004 -0.100745
C48   C     C_R   0.668329 0.134687 0.172297 -0.104920
C49   C     C_R   0.887454 0.892147 0.610327 0.566135
C50   C     C_R   0.331490 0.865490 0.828653 -0.099916
C51   C     C_R   0.136242 0.174863 0.668119 -0.102490
C52   C     C_R   0.864880 0.828497 0.332333 -0.100340
C53   C     C_R   0.988061 0.591039 0.465107 -0.167108
C54   C     C_R   0.013007 0.408770 0.535121 -0.163149
C55   C     C_R   0.591189 0.464532 0.987297 -0.164236
C56   C     C_R   0.408862 0.535416 0.012701 -0.164068
C57   C     C_R   0.464862 0.988023 0.590868 -0.162161
C58   C     C_R   0.535168 0.012786 0.409043 -0.173668
C59   C     C_R   0.944994 0.552289 0.555249 0.012804
C60   C     C_R   0.107932 0.389557 0.112197 0.561118
C61   C     C_R   0.055843 0.447566 0.444903 0.017901
C62   C     C_R   0.552517 0.555002 0.944325 0.017530
C63   C     C_R   0.447510 0.444968 0.055736 0.017468
C64   C     C_R   0.555028 0.944388 0.552509 0.007067
C65   C     C_R   0.444978 0.056303 0.447426 0.011352
C66   C     C_R   0.957825 0.459826 0.590778 -0.037816
C67   C     C_R   0.043569 0.539903 0.409506 -0.036706
C68   C     C_R   0.460096 0.590889 0.957003 -0.036831
C69   C     C_R   0.539927 0.409083 0.043124 -0.036496
C70   C     C_R   0.590661 0.956911 0.460297 -0.039085
C71   C     C_R   0.891448 0.610497 0.888203 0.563062
C72   C     C_R   0.409408 0.044128 0.539543 -0.034150
C73   C     C_R   0.110928 0.390452 0.389676 0.501904
C74   C     C_R   0.889042 0.609530 0.610333 0.482521
C75   C     C_R   0.390377 0.389778 0.110949 0.493452
C76   C     C_R   0.609628 0.610215 0.889078 0.494186
C77   C     C_R   0.389723 0.111522 0.390336 0.490558
C78   C     C_R   0.610245 0.888810 0.609669 0.495537
C79   C     C_R   0.184299 0.913715 0.423743 0.285664
C80   C     C_R   0.810946 0.088884 0.546265 0.276019
C81   C     C_R   0.913242 0.432247 0.186104 0.289426
C82   C     C_R   0.219881 0.618545 0.196155 -0.102505
C83   C     C_R   0.087361 0.557248 0.810187 0.292607
C84   C     C_R   0.458220 0.910882 0.189517 0.278458
C85   C     C_R   0.569470 0.086793 0.815246 0.285428
C86   C     C_R   0.221005 0.820670 0.458055 -0.102386
C87   C     C_R   0.776638 0.180952 0.531295 -0.113060
C88   C     C_R   0.820676 0.469515 0.222150 -0.099050
C89   C     C_R   0.180712 0.532785 0.776554 -0.094708
C90   C     C_R   0.479154 0.817752 0.223610 -0.104977
C91   C     C_R   0.531921 0.179333 0.778814 -0.097099
C92   C     C_R   0.167071 0.770285 0.525890 -0.169615
C93   C     C_R   0.784040 0.377968 0.804899 -0.101738
C94   C     C_R   0.833291 0.229436 0.491479 -0.179515
C95   C     C_R   0.770716 0.535792 0.167212 -0.172942
C96   C     C_R   0.230802 0.478077 0.833074 -0.170473
C97   C     C_R   0.524991 0.768185 0.167073 -0.178310
C98   C     C_R   0.463456 0.228997 0.833295 -0.175458
C99   C     C_R   0.075634 0.811928 0.557902 -0.110429
C100  C     C_R   0.924973 0.187278 0.464046 -0.125072
C101  C     C_R   0.812205 0.563919 0.075564 -0.115507
C102  C     C_R   0.188818 0.448416 0.924361 -0.115284
C103  C     C_R   0.550664 0.810521 0.075587 -0.116773
C104  C     C_R   0.618025 0.194669 0.219669 -0.101640
C105  C     C_R   0.434326 0.187293 0.924953 -0.116856
C106  C     C_R   0.036839 0.906109 0.526474 -0.048090
C107  C     C_R   0.962217 0.094227 0.479024 -0.057141
C108  C     C_R   0.906141 0.529905 0.037052 -0.046732
C109  C     C_R   0.094653 0.473937 0.961746 -0.045119
C110  C     C_R   0.527438 0.904698 0.038347 -0.043084
C111  C     C_R   0.469538 0.093389 0.963613 -0.044168
C112  C     C_R   0.092719 0.958339 0.464155 0.005675
C113  C     C_R   0.904827 0.042928 0.527037 -0.002064
C114  C     C_R   0.958198 0.468215 0.093335 0.008641
H1    H     H_    0.806059 0.300612 0.479541 0.121290
H2    H     H_    0.338431 0.563111 0.021020 0.142786
H3    H     H_    0.437408 0.979960 0.661104 0.143822
H4    H     H_    0.562650 0.020846 0.338808 0.130908
H5    H     H_    0.291196 0.787257 0.428991 0.116186
H6    H     H_    0.705268 0.215089 0.550123 0.115646
H7    H     H_    0.787140 0.443914 0.292956 0.112201
H8    H     H_    0.214767 0.557228 0.705747 0.105390
H9    H     H_    0.460124 0.783529 0.294853 0.112468
H10   H     H_    0.558948 0.213100 0.708341 0.116585
H11   H     H_    0.035801 0.769458 0.607601 0.162145
H12   H     H_    0.195599 0.698284 0.551023 0.115619
H13   H     H_    0.966141 0.228832 0.430288 0.150837
H14   H     H_    0.769667 0.613306 0.035488 0.113974
H15   H     H_    0.231393 0.405609 0.965201 0.112546
H16   H     H_    0.588465 0.768327 0.034544 0.113449
H17   H     H_    0.383948 0.229615 0.964932 0.115557
H18   H     H_    0.204944 0.700935 0.066925 0.107356
H19   H     H_    0.798765 0.299733 0.934566 0.104939
H20   H     H_    0.700052 0.065079 0.204920 0.106088
H21   H     H_    0.299667 0.935139 0.796229 0.106323
H22   H     H_    0.067003 0.207783 0.700173 0.107507
H23   H     H_    0.302788 0.459036 0.805996 0.105754
H24   H     H_    0.934465 0.796063 0.300720 0.104558
H25   H     H_    0.289328 0.611433 0.173204 0.096957
H26   H     H_    0.715389 0.382499 0.827964 0.096499
H27   H     H_    0.610674 0.171485 0.289164 0.094761
H28   H     H_    0.387444 0.828820 0.712024 0.098688
H29   H     H_    0.173646 0.291661 0.609692 0.095597
H30   H     H_    0.828815 0.711147 0.389059 0.099575
H31   H     H_    0.215099 0.537677 0.331602 0.085787
H32   H     H_    0.788675 0.455511 0.669001 0.090174
H33   H     H_    0.537401 0.330491 0.214747 0.086411
H34   H     H_    0.699032 0.563103 0.195448 0.107223
H35   H     H_    0.460805 0.669661 0.785998 0.089491
H36   H     H_    0.331947 0.216454 0.535926 0.087387
H37   H     H_    0.669820 0.785138 0.462042 0.086797
H38   H     H_    0.971484 0.642594 0.277035 0.098505
H39   H     H_    0.029414 0.363683 0.723474 0.084705
H40   H     H_    0.642888 0.276481 0.971079 0.093278
H41   H     H_    0.358943 0.723446 0.029065 0.092872
H42   H     H_    0.276466 0.972886 0.642906 0.098188
H43   H     H_    0.722332 0.029745 0.358186 0.076975
H44   H     H_    0.046343 0.716531 0.119153 0.108437
H45   H     H_    0.435671 0.300709 0.804875 0.107442
H46   H     H_    0.955508 0.290394 0.882027 0.102376
H47   H     H_    0.716238 0.117927 0.046180 0.102064
H48   H     H_    0.285377 0.882130 0.954451 0.103423
H49   H     H_    0.118698 0.048752 0.716721 0.107150
H50   H     H_    0.880897 0.955061 0.285314 0.097839
H51   H     H_    0.162580 0.978643 0.275353 0.095532
H52   H     H_    0.264462 0.881478 0.275064 0.091873
H53   H     H_    0.269604 0.991649 0.210682 0.182669
H54   H     H_    0.778281 0.038044 0.460307 0.118922
H55   H     H_    0.687869 0.136934 0.486310 0.081182
H56   H     H_    0.541903 0.696279 0.194300 0.105211
H57   H     H_    0.672389 0.031059 0.543545 0.158254
H58   H     H_    0.968765 0.279920 0.177314 0.118066
H59   H     H_    0.875299 0.284973 0.281015 0.101604
H60   H     H_    0.986730 0.220089 0.282029 0.163372
H61   H     H_    0.035193 0.510081 0.739942 0.135129
H62   H     H_    0.123787 0.555637 0.652164 0.084721
H63   H     H_    0.010638 0.617280 0.656261 0.137117
H64   H     H_    0.528729 0.968634 0.235571 0.125795
H65   H     H_    0.504987 0.866906 0.320451 0.082703
H66   H     H_    0.438123 0.970991 0.338801 0.154725
H67   H     H_    0.979841 0.661481 0.437730 0.140178
H68   H     H_    0.716880 0.023443 0.837954 0.102808
H69   H     H_    0.717484 0.120759 0.736546 0.093678
H70   H     H_    0.783049 0.010419 0.731248 0.183005
H71   H     H_    0.021192 0.338337 0.562538 0.141864
H72   H     H_    0.661633 0.436833 0.978926 0.141069
O1    O     O_3   0.250000 0.250000 0.250000 -0.443883
O2    O     O_R   0.865800 0.694910 0.573470 -0.552952
O3    O     O_R   0.305090 0.426530 0.134200 -0.553051
O4    O     O_R   0.694910 0.573470 0.865800 -0.550896
O5    O     O_R   0.426530 0.134200 0.305090 -0.554829
O6    O     O_R   0.573470 0.865800 0.694910 -0.539277
O7    O     O_R   0.134190 0.426530 0.134200 -0.535223
O8    O     O_R   0.865810 0.573470 0.865800 -0.545167
O9    O     O_R   0.426530 0.134200 0.134190 -0.528188
O10   O     O_R   0.573470 0.865800 0.865810 -0.537419
O11   O     O_R   0.134200 0.134190 0.426530 -0.534497
O12   O     O_3   0.750000 0.750000 0.750000 -0.444771
O13   O     O_R   0.865800 0.865810 0.573470 -0.530021
O14   O     O_R   0.426530 0.305080 0.134210 -0.536246
O15   O     O_R   0.573470 0.694920 0.865790 -0.537221
O16   O     O_R   0.305080 0.134210 0.426530 -0.525197
O17   O     O_R   0.694920 0.865790 0.573470 -0.535837
O18   O     O_R   0.134210 0.426530 0.305080 -0.526629
O19   O     O_R   0.865790 0.573470 0.694920 -0.539527
O20   O     O_3   0.236572 0.958818 0.345612 -0.524623
O21   O     O_3   0.751615 0.044633 0.581877 -0.536675
O22   O     O_3   0.957366 0.355775 0.240955 -0.577921
O23   O     O_R   0.305080 0.134200 0.134200 -0.551169
O24   O     O_3   0.040558 0.615727 0.750946 -0.582228
O25   O     O_3   0.414945 0.956629 0.249076 -0.537405
O26   O     O_3   0.648367 0.043236 0.762125 -0.528937
O27   O     O_R   0.694920 0.865800 0.865800 -0.529819
O28   O     O_R   0.134200 0.134200 0.305080 -0.528558
O29   O     O_R   0.865800 0.865800 0.694920 -0.532560
O30   O     O_R   0.134200 0.305080 0.134200 -0.536244
O31   O     O_R   0.865800 0.694920 0.865800 -0.524789
O32   O     O_R   0.134200 0.305090 0.426530 -0.552440
Zn1   Zn    Zn3+2 0.206620 0.206630 0.380140 0.964865
Zn2   Zn    Zn3+2 0.793380 0.793370 0.619860 0.952338
Zn3   Zn    Zn3+2 0.206630 0.380140 0.206620 0.944727
Zn4   Zn    Zn3+2 0.793370 0.619860 0.793380 0.925339
Zn5   Zn    Zn3+2 0.380140 0.206620 0.206630 0.944287
Zn6   Zn    Zn3+2 0.619860 0.793380 0.793370 0.953206
Zn7   Zn    Zn3+2 0.206620 0.206620 0.206620 0.960184
Zn8   Zn    Zn3+2 0.793380 0.793380 0.793380 0.975899

loop_
_geom_bond_atom_site_label_1
_geom_bond_atom_site_label_2
_ccdc_geom_bond_type
C17   H64   S    
C10   C27   S    
O9    Zn5   S    
C55   C62   A    
C19   H30   S    
C22   C29   A    
C20   C82   A    
O18   Zn3   S    
C100  H13   S    
C90   H9    S    
C28   C66   S    
C1    C11   S    
C35   H40   S    
C77   O16   A    
C12   H53   S    
C92   C99   A    
C53   C59   A    
C84   O25   S    
C99   H11   S    
O1    Zn1   S    
C75   O14   A    
C40   C46   A    
C42   C48   A    
C98   C105  A    
O23   Zn7   S    
O17   Zn2   S    
C103  C110  A    
C26   C67   S    
C40   H44   S    
O12   Zn4   S    
C45   H50   S    
C3    C109  A    
C102  C109  A    
C80   C87   A    
C96   C102  A    
C50   H21   S    
O4    Zn4   S    
C59   C66   A    
C12   H52   S    
O1    Zn7   S    
O3    Zn3   S    
C32   C39   A    
C89   H8    S    
C18   H68   S    
C48   C104  A    
C87   C94   A    
O19   Zn4   S    
C58   H4    S    
C101  H14   S    
C22   C104  A    
C7    C112  A    
C55   H72   S    
C108  C114  A    
C35   C42   A    
O28   Zn7   S    
C107  C113  A    
O27   Zn8   S    
C2    C50   A    
C13   C51   A    
C19   C52   A    
C63   C69   A    
C8    C71   S    
C54   H71   S    
C81   C114  A    
C73   O32   A    
C52   H24   S    
C102  H15   S    
C86   H5    S    
C44   H49   S    
C64   C70   A    
C90   C97   A    
C74   O2    A    
C15   O22   S    
C89   C96   A    
O31   Zn8   S    
C39   C45   A    
C5    C85   A    
C17   H65   S    
C101  C108  A    
O7    Zn3   S    
C23   H35   S    
C88   C95   A    
C28   C34   A    
C57   C72   A    
C46   C82   A    
C14   O21   S    
C39   H43   S    
C37   H42   S    
C62   C76   S    
C34   C41   A    
C84   C90   A    
C38   O28   A    
C14   H55   S    
C53   C67   A    
O8    Zn4   S    
C8    C108  A    
C41   C47   A    
C60   O7    A    
C29   C69   S    
O2    Zn2   S    
C9    C109  A    
C83   C89   A    
C73   O18   A    
C38   O11   A    
C33   C40   A    
C65   C77   S    
C15   H59   S    
C1    O23   A    
C77   O5    A    
C23   C30   A    
C78   O6    A    
C78   O17   A    
O6    Zn6   S    
C105  H17   S    
C3    C8    A    
C96   H23   S    
C76   O15   A    
C14   H57   S    
C71   O8    A    
C106  C112  A    
O1    Zn3   S    
C45   C52   A    
C61   C73   S    
C56   C68   A    
C11   C111  A    
C97   H56   S    
C31   C37   A    
C13   C24   A    
C94   C100  A    
C12   O20   S    
O16   Zn1   S    
O12   Zn6   S    
C6    C113  A    
C82   H25   S    
C53   H67   S    
C97   C103  A    
C41   H46   S    
C51   H22   S    
C61   C67   A    
C58   C65   A    
C4    C84   A    
C18   H70   S    
C18   O26   S    
O1    Zn5   S    
C6    C106  A    
C56   C63   A    
C55   C69   A    
C22   H33   S    
C4    C11   A    
C59   C74   S    
O10   Zn6   S    
C24   H36   S    
C81   O22   S    
C79   C112  A    
C16   H61   S    
C31   C72   S    
C21   C28   A    
C91   H10   S    
C42   H47   S    
C3    C83   A    
C91   C98   A    
C2    H28   S    
C7    C107  A    
C98   H45   S    
C21   C93   A    
C9    C114  A    
C14   H54   S    
C79   O20   S    
C85   O26   S    
O5    Zn5   S    
C12   H51   S    
C16   H63   S    
C44   C51   A    
C57   C64   A    
C57   H3    S    
C49   O13   A    
C34   H39   S    
C48   H20   S    
C99   C106  A    
C4    C110  A    
C100  C107  A    
C47   C93   A    
C15   H60   S    
C1    O9    A    
C104  H27   S    
O14   Zn5   S    
C64   C78   S    
O12   Zn2   S    
O13   Zn2   S    
C88   H7    S    
C17   O25   S    
C33   H38   S    
C92   H12   S    
C32   C70   S    
C94   H1    S    
C43   C50   A    
C54   C66   A    
C54   C61   A    
C17   H66   S    
C65   C72   A    
C5    C111  A    
C49   O29   A    
C29   C35   A    
O30   Zn7   S    
C71   O31   A    
C30   C36   A    
C25   H37   S    
O29   Zn8   S    
C21   H32   S    
C9    C60   S    
C37   C44   A    
C16   O24   S    
C60   O30   A    
C24   C31   A    
C87   H6    S    
C20   C26   A    
C93   H26   S    
C86   C92   A    
C58   C70   A    
C46   H18   S    
C16   H62   S    
O32   Zn1   S    
C63   C75   S    
C18   H69   S    
C25   C32   A    
C7    C38   S    
C15   H58   S    
C10   C110  A    
C62   C68   A    
C13   H29   S    
C6    C49   S    
C105  C111  A    
C19   C25   A    
C103  H16   S    
C30   C68   S    
C75   O3    A    
C83   O24   S    
C76   O4    A    
C43   H48   S    
O12   Zn8   S    
C5    C10   A    
C80   O21   S    
C95   H34   S    
C80   C113  A    
C36   H41   S    
C2    C23   A    
C27   O27   A    
C20   H31   S    
C36   C43   A    
C27   O10   A    
O15   Zn6   S    
C81   C88   A    
O11   Zn1   S    
C85   C91   A    
C79   C86   A    
C47   H19   S    
C56   H2    S    
C95   C101  A    
C26   C33   A    
C74   O19   A    
