data_mof_unit_62921.cif
_audit_creation_date              2012-10-26T18:47:08-0400
_audit_creation_method            fapswitch 2.2
_symmetry_space_group_name_H-M    P1
_symmetry_Int_Tables_number       1
_space_group_crystal_system       triclinic
_cell_length_a                    11.065548
_cell_length_b                    15.793094
_cell_length_c                    17.110723
_cell_angle_alpha                 96.774245
_cell_angle_beta                  91.152498
_cell_angle_gamma                 79.870951
_cell_volume                      2923.09990045

loop_
_atom_site_label
_atom_site_type_symbol
_atom_type_description
_atom_site_fract_x
_atom_site_fract_y
_atom_site_fract_z
_atom_type_partial_charge
Br1   Br    Br    0.637756 0.301613 0.260552 -0.481687
Br2   Br    Br    0.362757 0.698550 0.739510 -0.481720
C1    C     C_R   0.502518 0.488737 0.348541 0.574330
C2    C     C_R   0.475083 0.112404 0.483742 0.213515
C3    C     C_R   0.599296 0.834210 0.564799 -0.119097
C4    C     C_R   0.400708 0.165789 0.435199 -0.119135
C5    C     C_R   0.593063 0.745640 0.560623 0.051918
C6    C     C_R   0.406942 0.254359 0.439375 0.051853
C7    C     C_R   0.264970 0.534950 0.501554 0.564690
C8    C     C_R   0.735030 0.465050 0.498445 0.564752
C9    C     C_2   0.131417 0.554848 0.502539 -0.113408
C10   C     C_2   0.868583 0.445152 0.497459 -0.113362
C11   C     C_2   0.066658 0.490646 0.499468 -0.152141
C12   C     C_R   0.497479 0.511264 0.651462 0.574286
C13   C     C_2   0.933342 0.509354 0.500529 -0.152141
C14   C     C_R   0.506838 0.481490 0.262406 0.017833
C15   C     C_R   0.493140 0.518511 0.737601 0.017796
C16   C     C_R   0.458336 0.554506 0.225173 -0.184337
C17   C     C_R   0.541380 0.445435 0.774823 -0.184334
C18   C     C_R   0.461047 0.550836 0.143703 -0.092420
C19   C     C_R   0.538629 0.449095 0.856292 -0.092439
C20   C     C_R   0.513309 0.473537 0.097696 0.196071
C21   C     C_R   0.486604 0.526448 0.902313 0.196069
C22   C     C_R   0.561772 0.400867 0.134689 -0.069483
C23   C     C_R   0.559673 0.403922 0.216429 0.135088
C24   C     C_R   0.438389 0.599175 0.865334 -0.069471
C25   C     C_R   0.440519 0.596132 0.783595 0.135108
C26   C     C_R   0.441250 0.760165 0.461566 0.032058
C27   C     C_R   0.558745 0.239836 0.538437 0.032048
C28   C     C_R   0.444607 0.849054 0.463825 -0.108517
C29   C     C_R   0.555387 0.150947 0.536178 -0.108520
C30   C     C_R   0.524916 0.887597 0.516259 0.213515
Cu1   Cu    Cu3+1 0.494060 0.416090 0.496220 0.989331
Cu2   Cu    Cu3+1 0.505940 0.583910 0.503780 0.989355
H1    H     H_    0.887901 0.576617 0.503866 0.157857
H2    H     H_    0.422299 0.608498 0.117154 0.151546
H3    H     H_    0.602980 0.341642 0.099479 0.155786
H4    H     H_    0.397355 0.658442 0.900556 0.155795
H5    H     H_    0.620651 0.268740 0.578751 0.122396
H6    H     H_    0.379339 0.731262 0.421254 0.122397
H7    H     H_    0.615089 0.113252 0.575080 0.128396
H8    H     H_    0.384900 0.886750 0.424926 0.128395
H9    H     H_    0.662122 0.861169 0.605880 0.117334
H10   H     H_    0.337885 0.138829 0.394116 0.117328
H11   H     H_    0.112099 0.423382 0.496131 0.157866
H12   H     H_    0.650960 0.705411 0.598451 0.135910
H13   H     H_    0.349049 0.294587 0.401544 0.135868
H14   H     H_    0.914165 0.377973 0.494174 0.112238
H15   H     H_    0.085835 0.622026 0.505824 0.112215
H16   H     H_    0.582268 0.385307 0.740801 0.129567
H17   H     H_    0.417267 0.614588 0.259189 0.129502
H18   H     H_    0.577155 0.391379 0.882827 0.151546
N1    N     N_2   0.520082 0.465864 0.014451 -0.239214
N2    N     N_2   0.479825 0.534118 0.985558 -0.239210
N3    N     N_R   0.514860 0.709950 0.509460 -0.219083
N4    N     N_R   0.485140 0.290050 0.490540 -0.219085
N5    N     N_2   0.534334 0.977925 0.522460 -0.232493
N6    N     N_2   0.465665 0.022076 0.477541 -0.232494
O1    O     O_R   0.494450 0.421340 0.382530 -0.456751
O2    O     O_R   0.505550 0.578660 0.617470 -0.456705
O3    O     O_R   0.504470 0.563060 0.388920 -0.519696
O4    O     O_R   0.495530 0.436940 0.611080 -0.519737
O5    O     O_R   0.317520 0.455180 0.497990 -0.511676
O6    O     O_R   0.682480 0.544820 0.502010 -0.511680
O7    O     O_R   0.327540 0.596900 0.504370 -0.485787
O8    O     O_R   0.672460 0.403100 0.495630 -0.485737

loop_
_geom_bond_atom_site_label_1
_geom_bond_atom_site_label_2
_ccdc_geom_bond_type
C16   H17   S    
Br1   C23   S    
Br2   C25   S    
C9    H15   S    
C27   N4    A    
C12   O2    A    
C10   H14   S    
C12   C15   S    
C10   C13   D    
C5    N3    A    
Cu1   O5    S    
C3    C30   A    
C6    N4    A    
Cu1   N4    S    
C26   C28   A    
C22   H3    S    
C24   C25   A    
C6    H13   S    
Cu2   N3    S    
Cu1   O1    S    
C4    H10   S    
N1    N2    D    
C28   C30   A    
C9    C11   D    
C17   H16   S    
C27   H5    S    
N5    N6    D    
C8    C10   S    
C30   N5    S    
C4    C6    A    
C7    C9    S    
Cu2   O7    S    
Cu2   O6    S    
C17   C19   A    
C26   N3    A    
C18   C20   A    
Cu1   O8    S    
Cu1   Cu2   S    
C20   N1    S    
C16   C18   A    
C8    O8    A    
C11   C13   S    
C3    H9    S    
C20   C22   A    
C2    C29   A    
C26   H6    S    
C1    O3    A    
C2    N6    S    
C15   C25   A    
C5    H12   S    
Cu2   O2    S    
C22   C23   A    
C11   H11   S    
C21   N2    S    
C14   C16   A    
C2    C4    A    
Cu2   O3    S    
C21   C24   A    
C13   H1    S    
C14   C23   A    
C3    C5    A    
C12   O4    A    
C24   H4    S    
C7    O7    A    
C29   H7    S    
C15   C17   A    
C27   C29   A    
C7    O5    A    
C28   H8    S    
C19   C21   A    
C19   H18   S    
C8    O6    A    
C1    C14   S    
C1    O1    A    
Cu1   O4    S    
C18   H2    S    
