data_mof_unit_10362.cif
_audit_creation_date              2012-12-10T17:18:20-0500
_audit_creation_method            fapswitch 2.2
_symmetry_space_group_name_H-M    P1
_symmetry_Int_Tables_number       1
_space_group_crystal_system       triclinic
_cell_length_a                    10.265267
_cell_length_b                    10.279056
_cell_length_c                    14.769108
_cell_angle_alpha                 91.165503
_cell_angle_beta                  84.158383
_cell_angle_gamma                 95.442127
_cell_volume                      1543.22517845

loop_
_atom_site_label
_atom_site_type_symbol
_atom_type_description
_atom_site_fract_x
_atom_site_fract_y
_atom_site_fract_z
_atom_type_partial_charge
C1    C     C_R   0.555088 0.735337 0.498980 0.838109
C2    C     C_2   0.061939 0.459189 0.524191 0.331405
C3    C     C_R   0.502577 0.499613 0.672213 0.904636
C4    C     C_R   0.497255 0.501161 0.327805 0.858563
C5    C     C_R   0.441257 0.391232 0.190268 -0.230039
C6    C     C_R   0.534782 0.617601 0.811085 -0.231254
C7    C     C_R   0.489103 0.503773 0.233040 -0.032827
C8    C     C_R   0.506258 0.499745 0.767433 -0.028041
C9    C     C_R   0.520948 0.620554 0.187824 -0.219408
C10   C     C_R   0.457852 0.387643 0.814046 -0.244014
C11   C     C_R   0.508569 0.626230 0.095160 0.005052
C12   C     C_R   0.445749 0.264879 0.510050 0.832675
C13   C     C_R   0.437143 0.391133 0.908296 0.004920
C14   C     C_R   0.469600 0.509160 0.048855 -0.029850
C15   C     C_R   0.474738 0.509045 0.954618 -0.016208
C16   C     C_R   0.430391 0.391028 0.097147 0.048376
C17   C     C_R   0.521206 0.625376 0.905967 0.024315
C18   C     C_R   0.539167 0.745701 0.048351 0.407772
C19   C     C_R   0.382295 0.278420 0.956731 0.375585
C20   C     C_3   0.591712 0.870339 0.895452 -0.399373
C21   C     C_3   0.625468 0.001180 0.943823 -0.231156
C22   C     C_3   0.666132 0.110339 0.875065 -0.906436
C23   C     C_R   0.550871 0.746088 0.952181 0.048692
C24   C     C_3   0.329815 0.151487 0.102585 -0.380506
C25   C     C_3   0.193390 0.164905 0.153228 -0.351840
C26   C     C_3   0.146794 0.045504 0.211725 -0.832803
C27   C     C_3   0.082176 0.315925 0.535961 -0.468611
C28   C     C_3   0.956979 0.222773 0.560341 -0.396827
C29   C     C_3   0.990882 0.084279 0.576825 -0.766356
C30   C     C_3   0.865655 0.548210 0.615626 -0.443729
C31   C     C_3   0.959451 0.608002 0.684082 -0.380075
C32   C     C_3   0.882872 0.640645 0.774417 -0.878311
C33   C     C_R   0.382710 0.276207 0.051524 0.046729
C34   C     C_2   0.583426 0.875385 0.515653 0.195539
C35   C     C_2   0.421183 0.126127 0.532022 0.199881
C36   C     C_2   0.508356 0.931976 0.582965 0.340539
C37   C     C_2   0.505069 0.074344 0.583045 0.363019
C38   C     C_2   0.922058 0.492435 0.525024 0.340735
H1    H     H_    0.415056 0.304833 0.231151 0.133773
H2    H     H_    0.538131 0.029246 0.987609 0.266352
H3    H     H_    0.708728 0.993096 0.985325 0.259682
H4    H     H_    0.680476 0.852036 0.849305 0.185088
H5    H     H_    0.510656 0.884685 0.853119 0.217686
H6    H     H_    0.141356 0.955602 0.168716 0.266852
H7    H     H_    0.215261 0.035090 0.264201 0.261583
H8    H     H_    0.047458 0.057187 0.246591 0.265835
H9    H     H_    0.194748 0.253165 0.197844 0.236405
H10   H     H_    0.121758 0.175351 0.102818 0.241792
H11   H     H_    0.320794 0.065999 0.055741 0.253530
H12   H     H_    0.565617 0.702025 0.768983 0.143058
H13   H     H_    0.400756 0.125542 0.149686 0.190869
H14   H     H_    0.649476 0.096843 0.658552 0.325913
H15   H     H_    0.379441 0.916853 0.688495 0.333883
H16   H     H_    0.280835 0.100721 0.453554 0.322447
H17   H     H_    0.716333 0.892312 0.412675 0.340608
H18   H     H_    0.040841 0.043477 0.513808 0.286078
H19   H     H_    0.055838 0.084015 0.632552 0.255534
H20   H     H_    0.899181 0.020628 0.596527 0.254719
H21   H     H_    0.901685 0.257904 0.623248 0.220055
H22   H     H_    0.892406 0.217306 0.504355 0.294196
H23   H     H_    0.557812 0.705231 0.225731 0.153030
H24   H     H_    0.133246 0.280049 0.471725 0.238765
H25   H     H_    0.141769 0.310449 0.594188 0.224985
H26   H     H_    0.813350 0.713522 0.763267 0.252934
H27   H     H_    0.827465 0.551405 0.805005 0.273896
H28   H     H_    0.951999 0.682942 0.822705 0.262865
H29   H     H_    0.030902 0.538190 0.698367 0.229467
H30   H     H_    0.012319 0.700817 0.658047 0.282911
H31   H     H_    0.802313 0.625440 0.601702 0.249474
H32   H     H_    0.812900 0.462968 0.652338 0.229332
H33   H     H_    0.209692 0.729435 0.521396 0.404758
H34   H     H_    0.436217 0.298877 0.775357 0.158673
H35   H     H_    0.826622 0.372611 0.348879 0.374798
H36   H     H_    0.490800 0.861176 0.148462 0.328331
H37   H     H_    0.279950 0.198042 0.863805 0.329648
H38   H     H_    0.755850 0.088588 0.830916 0.254944
H39   H     H_    0.585566 0.121503 0.831853 0.293679
H40   H     H_    0.687445 0.204140 0.911725 0.259319
N1    N     N_2   0.842700 0.448880 0.462930 0.019249
N2    N     N_2   0.157300 0.551120 0.537070 0.005240
O1    O     O_R   0.431060 0.692470 0.507460 -0.560299
O2    O     O_3   0.328632 0.168930 0.913113 -0.800096
O3    O     O_3   0.594804 0.153733 0.628073 -0.801658
O4    O     O_3   0.426711 0.856956 0.646191 -0.798540
O5    O     O_3   0.324281 0.046587 0.494127 -0.798053
O6    O     O_3   0.675845 0.950669 0.459530 -0.786674
O7    O     O_3   0.129748 0.670749 0.514116 -0.704240
O8    O     O_3   0.899890 0.398330 0.386127 -0.705085
O9    O     O_R   0.568940 0.307530 0.492540 -0.544232
O10   O     O_R   0.651120 0.659650 0.483670 -0.635221
O11   O     O_R   0.348880 0.340350 0.516330 -0.663973
O12   O     O_R   0.389960 0.516440 0.644050 -0.594971
O13   O     O_R   0.610040 0.483560 0.355950 -0.610509
O14   O     O_R   0.610030 0.483620 0.620260 -0.642156
O15   O     O_R   0.389970 0.516380 0.379740 -0.589329
O16   O     O_3   0.559457 0.861154 0.096146 -0.812183
Zn1   Zn    Zn3+2 0.353060 0.521920 0.515880 0.987302
Zn2   Zn    Zn3+2 0.646940 0.478080 0.484120 0.978801

loop_
_geom_bond_atom_site_label_1
_geom_bond_atom_site_label_2
_ccdc_geom_bond_type
C11   C18   A    
C1    O10   A    
N2    Zn1   S    
C18   O16   S    
N1    Zn2   S    
C22   H38   S    
C20   H5    S    
C26   H6    S    
C31   H29   S    
C17   C23   A    
H15   O4    S    
C9    H23   S    
C36   C37   S    
C35   C37   D    
N2    O7    S    
C30   C31   S    
C11   C14   A    
C38   N1    D    
O14   Zn2   S    
C1    O1    A    
C21   H3    S    
C30   C38   S    
C7    C9    A    
C34   O6    S    
C5    C16   A    
C12   O11   A    
C26   H7    S    
O12   Zn1   S    
C2    C27   S    
C19   O2    S    
C25   H9    S    
C24   H13   S    
C21   C22   S    
C4    C7    S    
N1    O8    S    
C30   H32   S    
C1    C34   S    
C28   H22   S    
C31   H30   S    
C13   C19   A    
C18   C23   A    
H36   O16   S    
C12   O9    A    
C24   C25   S    
C32   H26   S    
C3    C8    S    
C19   C33   A    
C5    C7    A    
C6    C8    A    
C25   C26   S    
O11   Zn1   S    
C3    O12   A    
H14   O3    S    
H35   O8    S    
C27   H24   S    
C16   C33   A    
C4    O15   A    
C2    C38   S    
C31   C32   S    
C20   C23   S    
C6    H12   S    
C12   C35   S    
C9    C11   A    
C25   H10   S    
C22   H40   S    
C27   H25   S    
H33   O7    S    
C29   H19   S    
C13   C15   A    
C14   C16   A    
C30   H31   S    
C29   H20   S    
C32   H28   S    
C28   H21   S    
C24   H11   S    
C15   C17   A    
C6    C17   A    
C28   C29   S    
C22   H39   S    
C10   C13   A    
H16   O5    S    
C20   H4    S    
O15   Zn1   S    
H37   O2    S    
C29   H18   S    
C24   C33   S    
O9    Zn2   S    
H17   O6    S    
C5    H1    S    
C35   O5    S    
C21   H2    S    
O1    Zn1   S    
C36   O4    S    
C3    O14   A    
C34   C36   D    
C2    N2    D    
C26   H8    S    
C4    O13   A    
C20   C21   S    
C8    C10   A    
C27   C28   S    
C14   C15   A    
C37   O3    S    
O13   Zn2   S    
O10   Zn2   S    
C32   H27   S    
C10   H34   S    
