data_mof_unit_25299.cif
_audit_creation_date              2012-12-10T19:03:40-0500
_audit_creation_method            fapswitch 2.2
_symmetry_space_group_name_H-M    P1
_symmetry_Int_Tables_number       1
_space_group_crystal_system       triclinic
_cell_length_a                    15.866292
_cell_length_b                    10.86089
_cell_length_c                    9.538056
_cell_angle_alpha                 90.002982
_cell_angle_beta                  90.201329
_cell_angle_gamma                 90.074503
_cell_volume                      1643.60584398

loop_
_atom_site_label
_atom_site_type_symbol
_atom_type_description
_atom_site_fract_x
_atom_site_fract_y
_atom_site_fract_z
_atom_type_partial_charge
C1    C     C_R   0.500073 0.262677 0.499850 0.799024
C2    C     C_3   0.951233 0.425439 0.623542 -0.503239
C3    C     C_3   0.917345 0.502637 0.498737 0.200437
C4    C     C_3   0.951681 0.635708 0.514400 -0.355135
C5    C     C_3   0.049232 0.635531 0.509689 -0.354368
C6    C     C_1   0.825102 0.502645 0.500315 -0.073990
C7    C     C_1   0.175002 0.501378 0.498784 -0.062484
C8    C     C_1   0.250554 0.500779 0.499082 -0.193469
C9    C     C_R   0.499263 0.061990 0.621111 0.132248
C10   C     C_R   0.500628 0.130073 0.498141 -0.106333
C11   C     C_R   0.502676 0.064566 0.370294 -0.223725
C12   C     C_R   0.340197 0.500092 0.499789 0.824953
C13   C     C_R   0.502850 0.935421 0.370308 -0.222438
C14   C     C_R   0.500931 0.869926 0.498173 -0.106831
C15   C     C_R   0.499502 0.938028 0.621142 0.132016
C16   C     C_3   0.496387 0.929148 0.776926 -0.473279
C17   C     C_3   0.496057 0.070978 0.776867 -0.476156
C18   C     C_R   0.543249 0.588374 0.073927 0.261363
C19   C     C_R   0.450962 0.420300 0.074171 -0.078876
C20   C     C_R   0.450925 0.420325 0.925223 -0.075241
C21   C     C_R   0.543353 0.588245 0.926482 0.260636
C22   C     C_3   0.635929 0.611842 0.921413 -0.511223
C23   C     C_R   0.500271 0.737322 0.499840 0.803099
C24   C     C_3   0.635731 0.612211 0.080434 -0.513026
C25   C     C_R   0.659827 0.500517 0.500187 0.828985
C26   C     C_3   0.049192 0.425420 0.625740 0.345414
C27   C     C_3   0.048662 0.443938 0.362093 -0.501340
C28   C     C_3   0.950715 0.446057 0.359343 0.356582
C29   C     C_1   0.749516 0.501803 0.500674 -0.204308
C30   C     C_3   0.082795 0.501675 0.499615 0.208869
Cu1   Cu    Cu3+1 0.500000 0.499980 0.640670 0.938499
Cu2   Cu    Cu3+1 0.500000 0.500020 0.359330 0.935940
H1    H     H_    0.927755 0.329053 0.615441 0.125207
H2    H     H_    0.926515 0.463538 0.723561 0.219613
H3    H     H_    0.926547 0.695591 0.429375 0.196321
H4    H     H_    0.504001 0.112311 0.270624 0.166452
H5    H     H_    0.504315 0.887664 0.270643 0.166138
H6    H     H_    0.436463 0.887805 0.814540 0.199285
H7    H     H_    0.554841 0.888713 0.821842 0.192778
H8    H     H_    0.435886 0.111426 0.814343 0.188388
H9    H     H_    0.554290 0.112420 0.821761 0.202897
H10   H     H_    0.412605 0.354147 0.129872 0.139813
H11   H     H_    0.070364 0.327913 0.611303 0.033907
H12   H     H_    0.412457 0.354290 0.869108 0.132911
H13   H     H_    0.672005 0.533469 0.876873 0.219175
H14   H     H_    0.650937 0.703215 0.875351 0.188592
H15   H     H_    0.671515 0.533972 0.126153 0.214037
H16   H     H_    0.650457 0.703844 0.126355 0.193965
H17   H     H_    0.074200 0.495321 0.270724 0.216963
H18   H     H_    0.071243 0.347316 0.352144 0.123524
H19   H     H_    0.929067 0.348132 0.353248 0.047792
H20   H     H_    0.074699 0.681802 0.604957 0.197366
H21   H     H_    0.070869 0.689744 0.417503 0.164117
H22   H     H_    0.930362 0.675766 0.615671 0.165518
N1    N     N_R   0.500530 0.500930 0.147930 -0.184334
N2    N     N_R   0.500530 0.500890 0.852020 -0.184023
O1    O     O_R   0.500000 0.319640 0.618810 -0.582717
O2    O     O_R   0.500010 0.319680 0.381230 -0.590013
O3    O     O_R   0.379430 0.499990 0.618840 -0.576789
O4    O     O_R   0.379440 0.500030 0.381260 -0.577926
O5    O     O_R   0.499990 0.680320 0.618770 -0.579320
O6    O     O_R   0.500000 0.680360 0.381190 -0.586011
O7    O     O_R   0.620560 0.499970 0.618740 -0.577605
O8    O     O_R   0.620570 0.500010 0.381160 -0.580138
O9    O     O_3   0.078186 0.479144 0.753088 -0.602717
C31   C     C_3   0.122411 0.392781 0.835850 0.037224
H23   H     H_    0.176383 0.353355 0.776377 0.140092
H24   H     H_    0.079099 0.317485 0.869004 0.139118
C32   C     C_3   0.157200 0.457990 0.965699 -0.303976
H25   H     H_    0.202596 0.530405 0.932750 0.225703
H26   H     H_    0.104700 0.503160 0.022630 0.221592
C33   C     C_3   0.201741 0.368157 0.064083 -0.959308
H27   H     H_    0.156794 0.297023 0.101645 0.252335
H28   H     H_    0.227027 0.418846 0.156252 0.266863
H29   H     H_    0.254964 0.322643 0.009353 0.248890
O10   O     O_3   0.923657 0.518774 0.243486 -0.605011
C34   C     C_3   0.864466 0.456253 0.157950 0.060810
H30   H     H_    0.827065 0.527144 0.101578 0.172129
H31   H     H_    0.818575 0.400870 0.219873 0.128988
C35   C     C_3   0.909512 0.376623 0.048977 -0.369335
H32   H     H_    0.951728 0.435839 0.985281 0.242620
H33   H     H_    0.948635 0.305820 0.102291 0.206777
C36   C     C_3   0.846497 0.312583 0.952135 -0.939217
H34   H     H_    0.804107 0.251785 0.013616 0.258882
H35   H     H_    0.880952 0.255517 0.874656 0.253250
H36   H     H_    0.808076 0.381695 0.894658 0.255804

loop_
_geom_bond_atom_site_label_1
_geom_bond_atom_site_label_2
_ccdc_geom_bond_type
C31   H24   S    
C33   H28   S    
C18   C21   A    
Cu1   O5    S    
C19   C20   A    
Cu2   O2    S    
C20   N2    A    
C3    C6    S    
C7    C8    T    
C34   H30   S    
C18   C24   S    
C5    H21   S    
C11   H4    S    
C33   H29   S    
C28   H19   S    
C31   C32   S    
C15   C16   S    
C22   H14   S    
C25   O7    A    
Cu1   O3    S    
C32   H26   S    
C12   O3    A    
C23   O6    A    
C36   H34   S    
C16   C17   S    
C5    H20   S    
Cu1   N2    S    
C9    C10   A    
Cu2   N1    S    
C13   H5    S    
C19   H10   S    
C33   H27   S    
C2    H2    S    
C31   H23   S    
C4    H3    S    
C7    C30   S    
C21   C22   S    
C27   C30   S    
C24   H15   S    
C35   C36   S    
C20   H12   S    
C26   H11   S    
C34   H31   S    
C25   C29   S    
C24   H16   S    
Cu1   O7    S    
O10   C34   S    
Cu2   O8    S    
C35   H33   S    
C4    C5    S    
C17   H8    S    
C14   C23   S    
C32   C33   S    
C1    O1    A    
Cu1   Cu2   S    
C8    C12   S    
C22   H13   S    
C2    C26   S    
C18   N1    A    
C2    H1    S    
C9    C17   S    
C36   H35   S    
C26   C30   S    
C22   C24   S    
Cu2   O4    S    
C3    C4    S    
C28   O10   S    
C5    C30   S    
C34   C35   S    
C19   N1    A    
C3    C28   S    
C4    H22   S    
C26   O9    S    
C1    C10   S    
C35   H32   S    
C6    C29   T    
C21   N2    A    
C27   H18   S    
Cu1   O1    S    
C2    C3    S    
C9    C15   A    
Cu2   O6    S    
C1    O2    A    
C11   C13   A    
C32   H25   S    
C17   H9    S    
C10   C11   A    
C16   H7    S    
C12   O4    A    
C23   O5    A    
C36   H36   S    
O9    C31   S    
C27   C28   S    
C14   C15   A    
C13   C14   A    
C25   O8    A    
C27   H17   S    
C16   H6    S    
