data_mof_unit_29964.cif
_audit_creation_date              2012-10-26T18:52:44-0400
_audit_creation_method            fapswitch 2.2
_symmetry_space_group_name_H-M    P1
_symmetry_Int_Tables_number       1
_space_group_crystal_system       triclinic
_cell_length_a                    10.72446
_cell_length_b                    14.698123
_cell_length_c                    14.740909
_cell_angle_alpha                 65.03602
_cell_angle_beta                  103.466098
_cell_angle_gamma                 103.052582
_cell_volume                      2027.0458571

loop_
_atom_site_label
_atom_site_type_symbol
_atom_type_description
_atom_site_fract_x
_atom_site_fract_y
_atom_site_fract_z
_atom_type_partial_charge
C1    C     C_R   0.479642 0.119740 0.312307 0.542671
C2    C     C_R   0.513866 0.360852 0.080031 0.031333
C3    C     C_R   0.498203 0.321304 0.004758 0.049711
C4    C     C_R   0.259933 0.000035 0.500093 0.545135
C5    C     C_R   0.541829 0.467527 0.053658 0.030653
C6    C     C_R   0.538971 0.533587 0.949884 0.030733
C7    C     C_R   0.525842 0.491124 0.877332 -0.140634
C8    C     C_R   0.506940 0.386938 0.904739 -0.135831
C9    C     C_R   0.575175 0.510261 0.127647 -0.141326
C10   C     C_R   0.596398 0.614439 0.100378 -0.135499
C11   C     C_R   0.582284 0.679771 0.998782 0.051049
C12   C     C_3   0.877959 0.997826 0.501979 0.064025
C13   C     C_R   0.551481 0.640063 0.922435 0.030677
C14   C     C_R   0.597724 0.784728 0.972679 -0.136744
C15   C     C_R   0.579483 0.850924 0.871377 -0.143622
C16   C     C_R   0.523207 0.880258 0.687688 0.537125
C17   C     C_R   0.529555 0.708164 0.821094 -0.140647
C18   C     C_R   0.717411 0.285763 0.667266 -0.161563
C19   C     C_R   0.683351 0.203800 0.638071 0.037031
C20   C     C_R   0.518199 0.284880 0.509514 0.032842
C21   C     C_R   0.548323 0.371237 0.535233 0.001164
C22   C     C_R   0.650135 0.369443 0.616513 0.039030
C23   C     C_3   0.958922 0.985012 0.608855 -0.111016
C24   C     C_R   0.481334 0.458099 0.484371 0.021025
C25   C     C_R   0.517811 0.541478 0.516379 0.021927
C26   C     C_R   0.619206 0.534782 0.598572 -0.148181
C27   C     C_R   0.683809 0.450656 0.647170 -0.133990
C28   C     C_R   0.739907 0.999544 0.500125 0.547453
C29   C     C_R   0.379203 0.464431 0.402732 -0.145094
C30   C     C_R   0.314014 0.548242 0.354586 -0.129191
C31   C     C_R   0.348296 0.629762 0.384757 0.039939
C32   C     C_R   0.451058 0.628464 0.465300 0.001439
C33   C     C_R   0.280560 0.713198 0.334307 -0.160301
C34   C     C_3   0.933725 0.099928 0.422714 -0.246940
C35   C     C_R   0.315248 0.795507 0.362946 0.036936
C36   C     C_R   0.482206 0.715370 0.490144 0.032859
C37   C     C_3   0.035560 0.910343 0.474898 -0.230756
C38   C     C_3   0.892498 0.911388 0.472409 -0.226379
C39   C     C_3   0.103289 0.985302 0.607397 -0.212264
C40   C     C_3   0.077358 0.100390 0.421738 -0.245647
C41   C     C_3   0.121951 0.999208 0.500943 0.038021
C42   C     C_3   0.907376 0.890286 0.696423 -0.422624
C43   C     C_R   0.478395 0.187371 0.205162 -0.007279
C44   C     C_R   0.543793 0.812698 0.795155 -0.010474
C45   C     C_R   0.474291 0.216147 0.030460 -0.137478
C46   C     C_R   0.465655 0.149469 0.130325 -0.142733
C47   C     C_R   0.498560 0.292123 0.179030 -0.136820
Cu1   Cu    Cu3+1 0.465900 0.918260 0.475680 0.912493
Cu2   Cu    Cu3+1 0.534100 0.081740 0.524320 0.912630
H1    H     H_    0.063583 0.836410 0.532335 0.131158
H2    H     H_    0.450232 0.068570 0.149028 0.126568
H3    H     H_    0.500066 0.318320 0.237348 0.117063
H4    H     H_    0.049213 0.916640 0.399729 0.122156
H5    H     H_    0.533858 0.536451 0.798792 0.101717
H6    H     H_    0.589696 0.465342 0.207876 0.106385
H7    H     H_    0.622906 0.815527 0.030749 0.102708
H8    H     H_    0.761063 0.449096 0.709886 0.108504
H9    H     H_    0.560368 0.722057 0.548784 0.114424
H10   H     H_    0.263542 0.860185 0.323741 0.119279
H11   H     H_    0.235860 0.549344 0.292554 0.108608
H12   H     H_    0.925481 0.164479 0.440704 0.129537
H13   H     H_    0.795521 0.283527 0.729550 0.089284
H14   H     H_    0.734533 0.138847 0.677658 0.119048
H15   H     H_    0.441151 0.278764 0.449991 0.115104
H16   H     H_    0.839376 0.923127 0.394670 0.124365
H17   H     H_    0.651093 0.593437 0.627872 0.085248
H18   H     H_    0.346669 0.405494 0.373860 0.088591
H19   H     H_    0.201530 0.714937 0.272742 0.089122
H20   H     H_    0.849503 0.836211 0.524070 0.124214
H21   H     H_    0.138109 0.913700 0.664724 0.119598
H22   H     H_    0.137438 0.165451 0.438624 0.124157
H23   H     H_    0.163851 0.048128 0.627931 0.118826
H24   H     H_    0.090194 0.111319 0.344822 0.111571
H25   H     H_    0.877364 0.111908 0.345879 0.114159
H26   H     H_    0.915080 0.819432 0.689694 0.133947
H27   H     H_    0.964852 0.889652 0.769821 0.126455
H28   H     H_    0.804878 0.890917 0.698522 0.145628
H29   H     H_    0.953429 0.051726 0.624542 0.136115
H30   H     H_    0.497723 0.357596 0.846846 0.114050
H31   H     H_    0.497277 0.681235 0.760825 0.121655
H32   H     H_    0.591786 0.931667 0.852861 0.125272
H33   H     H_    0.621810 0.643980 0.159438 0.109851
H34   H     H_    0.463456 0.185503 0.973388 0.103851
N1    N     N_R   0.585360 0.204570 0.560800 -0.231636
N2    N     N_R   0.414550 0.795430 0.439160 -0.231833
O1    O     O_R   0.455060 0.022100 0.338110 -0.505299
O2    O     O_R   0.512640 0.160150 0.379180 -0.510383
O3    O     O_R   0.288900 0.930980 0.479450 -0.507764
O4    O     O_R   0.346480 0.069030 0.520520 -0.508146
O5    O     O_R   0.487360 0.839850 0.620820 -0.510248
O6    O     O_R   0.544940 0.977900 0.661890 -0.506433
O7    O     O_R   0.653520 0.930970 0.479480 -0.511322
O8    O     O_R   0.711100 0.069020 0.520550 -0.510023

loop_
_geom_bond_atom_site_label_1
_geom_bond_atom_site_label_2
_ccdc_geom_bond_type
C1    O2    A    
C14   H7    S    
C16   O5    A    
C40   H22   S    
C35   N2    A    
Cu2   O2    S    
C7    C8    A    
C39   C41   S    
C45   C46   A    
C12   C23   S    
C42   H26   S    
C29   C30   A    
C23   C42   S    
C12   C28   S    
C34   C40   S    
C32   C36   A    
Cu2   N1    S    
C15   C44   A    
C36   H9    S    
C5    C6    A    
C11   C14   A    
C4    C41   S    
C40   H24   S    
C35   H10   S    
C18   C19   A    
C42   H28   S    
C24   C29   A    
C29   H18   S    
C1    C43   S    
C19   H14   S    
C30   H11   S    
C8    H30   S    
C39   H23   S    
C31   C33   A    
C9    H6    S    
C9    C10   A    
C16   C44   S    
C37   H4    S    
C25   C32   A    
C38   H20   S    
Cu1   O5    S    
C21   C22   A    
C12   C38   S    
C45   H34   S    
Cu2   O6    S    
C26   H17   S    
C24   C25   A    
C15   H32   S    
C3    C8    A    
C27   H8    S    
C18   H13   S    
C25   C26   A    
C46   H2    S    
C10   H33   S    
C17   H31   S    
C28   O8    A    
C20   H15   S    
C5    C9    A    
C37   C38   S    
C31   C32   A    
C38   H16   S    
Cu1   O3    S    
C26   C27   A    
C28   O7    A    
C47   H3    S    
C34   H25   S    
Cu1   Cu2   S    
C22   C27   A    
C20   N1    A    
C36   N2    A    
Cu1   O1    S    
C2    C5    A    
C12   C34   S    
C19   N1    A    
C4    O4    A    
C1    O1    A    
C40   C41   S    
C18   C22   A    
Cu1   N2    S    
Cu2   O4    S    
C6    C7    A    
C4    O3    A    
C2    C47   A    
C42   H27   S    
C13   C17   A    
C2    C3    A    
C17   C44   A    
C6    C13   A    
C37   H1    S    
C11   C13   A    
C30   C31   A    
C23   C39   S    
C33   C35   A    
C39   H21   S    
C3    C45   A    
C34   H12   S    
C23   H29   S    
C37   C41   S    
C43   C46   A    
C10   C11   A    
C20   C21   A    
C16   O6    A    
Cu1   O7    S    
C21   C24   A    
C14   C15   A    
C7    H5    S    
Cu2   O8    S    
C43   C47   A    
C33   H19   S    
