data_mof_unit_45163.cif
_audit_creation_date              2012-12-10T17:01:34-0500
_audit_creation_method            fapswitch 2.2
_symmetry_space_group_name_H-M    P1
_symmetry_Int_Tables_number       1
_space_group_crystal_system       triclinic
_cell_length_a                    9.897748
_cell_length_b                    11.127354
_cell_length_c                    12.992991
_cell_angle_alpha                 90.130854
_cell_angle_beta                  75.668225
_cell_angle_gamma                 112.311605
_cell_volume                      1275.92930763

loop_
_atom_site_label
_atom_site_type_symbol
_atom_type_description
_atom_site_fract_x
_atom_site_fract_y
_atom_site_fract_z
_atom_type_partial_charge
C1    C     C_R   0.437761 0.253745 0.507371 0.822019
C2    C     C_R   0.562239 0.746255 0.492629 0.822019
C3    C     C_2   0.082996 0.511153 0.492431 0.079540
C4    C     C_2   0.917003 0.488847 0.507569 0.079539
C5    C     C_R   0.472309 0.491381 0.702127 0.846873
C6    C     C_R   0.527691 0.508619 0.297873 0.846874
C7    C     C_R   0.544153 0.521360 0.183867 -0.156095
C8    C     C_R   0.455847 0.478640 0.816133 -0.156095
C9    C     C_R   0.335967 0.348410 0.986803 -0.114245
C10   C     C_R   0.664033 0.651590 0.013197 -0.114245
C11   C     C_R   0.348177 0.364248 0.878046 0.316719
C12   C     C_R   0.651823 0.635752 0.121953 0.316719
C13   C     C_R   0.551044 0.579504 0.861259 -0.121323
C14   C     C_R   0.448956 0.420496 0.138741 -0.121323
C15   C     C_R   0.554830 0.558994 0.968004 0.017493
C16   C     C_R   0.445170 0.441006 0.031996 0.017493
C17   C     C_2   0.398157 0.113194 0.520924 -0.244948
C18   C     C_2   0.601843 0.886806 0.479075 -0.244948
C19   C     C_2   0.503457 0.063958 0.478505 -0.091132
C20   C     C_2   0.496543 0.936042 0.521495 -0.091132
Cu1   Cu    Cu3+1 0.647370 0.522180 0.481340 1.094368
Cu2   Cu    Cu3+1 0.352630 0.477820 0.518660 1.094368
H1    H     H_    0.831792 0.412523 0.567493 0.159956
H2    H     H_    0.168208 0.587477 0.432507 0.159956
N1    N     N_2   0.131210 0.444490 0.546730 -0.016452
N2    N     N_2   0.868790 0.555510 0.453270 -0.016452
O1    O     O_R   0.578710 0.332530 0.490040 -0.602699
O2    O     O_R   0.421290 0.667470 0.509960 -0.602699
O3    O     O_R   0.329810 0.295070 0.521560 -0.522382
O4    O     O_R   0.670190 0.704930 0.478440 -0.522382
O5    O     O_R   0.604230 0.515670 0.637800 -0.604754
O6    O     O_R   0.395770 0.484330 0.362200 -0.604754
O7    O     O_R   0.355330 0.478200 0.669330 -0.506109
O8    O     O_R   0.644670 0.521800 0.330670 -0.506109
C21   C     C_1   0.367379 0.294156 0.201973 0.262934
N3    N     N_1   0.303876 0.194187 0.253200 -0.218196
C22   C     C_1   0.632621 0.705844 0.798027 0.262934
N4    N     N_1   0.696124 0.805813 0.746800 -0.218196
Cl1   Cl    Cl    0.771505 0.762260 0.181423 -0.523475
Cl2   Cl    Cl    0.228496 0.237740 0.818576 -0.523475
C23   C     C_1   0.204288 0.240022 0.049691 0.383602
N5    N     N_1   0.098287 0.153462 0.098918 -0.148218
C24   C     C_1   0.795712 0.759978 0.950309 0.383602
N6    N     N_1   0.901713 0.846538 0.901082 -0.148218
C25   C     C_1   0.381725 0.865735 0.619163 0.314624
N7    N     N_1   0.291660 0.809282 0.696877 -0.220835
C26   C     C_1   0.618276 0.134266 0.380837 0.314624
N8    N     N_1   0.708341 0.190719 0.303123 -0.220835
C27   C     C_1   0.755752 0.966391 0.418652 0.384987
N9    N     N_1   0.879051 0.028865 0.370907 -0.161729
C28   C     C_1   0.244248 0.033608 0.581347 0.384987
N10   N     N_1   0.120949 0.971135 0.629092 -0.161729
Cl3   Cl    Cl    0.997401 0.682884 0.358710 -0.430521
Cl4   Cl    Cl    0.002599 0.317116 0.641290 -0.430521

loop_
_geom_bond_atom_site_label_1
_geom_bond_atom_site_label_2
_ccdc_geom_bond_type
C5    C8    S    
C4    N2    D    
Cu1   N2    S    
C22   N4    T    
Cu2   O3    S    
C2    C18   S    
Cu1   O5    S    
C23   N5    T    
C9    C23   S    
C26   N8    T    
C2    O4    A    
C17   C28   S    
C12   Cl1   S    
C1    O3    A    
Cu1   O1    S    
C19   C26   S    
Cu2   O2    S    
C25   N7    T    
C9    C11   A    
C3    H2    S    
C8    C13   A    
Cu2   O6    S    
Cu2   O7    S    
C8    C11   A    
C10   C12   A    
C17   C19   D    
C9    C16   A    
C6    C7    S    
C18   C20   D    
C10   C15   A    
C13   C15   A    
C24   N6    T    
C11   Cl2   S    
C14   C16   A    
C7    C12   A    
C15   C16   A    
C1    C17   S    
C28   N10   T    
N2    Cl3   S    
C6    O8    A    
C3    N1    D    
N1    Cl4   S    
C27   N9    T    
Cu1   O4    S    
C20   C25   S    
C14   C21   S    
C1    O1    A    
C4    H1    S    
C2    O2    A    
Cu1   O8    S    
C5    O5    A    
C10   C24   S    
Cu1   Cu2   S    
C13   C22   S    
Cu2   N1    S    
C7    C14   A    
C3    C4    S    
C19   C20   S    
C18   C27   S    
C6    O6    A    
C21   N3    T    
C5    O7    A    
