data_mof_unit_25408.cif
_audit_creation_date              2013-03-05T15:40:53-0500
_audit_creation_method            fapswitch 2.2
_symmetry_space_group_name_H-M    P1
_symmetry_Int_Tables_number       1
_space_group_crystal_system       triclinic
_cell_length_a                    27.893399
_cell_length_b                    18.681282
_cell_length_c                    16.811347
_cell_angle_alpha                 89.874642
_cell_angle_beta                  62.82091
_cell_angle_gamma                 89.744887
_cell_volume                      7792.78788906

loop_
_atom_site_label
_atom_site_type_symbol
_atom_site_description
_atom_site_fract_x
_atom_site_fract_y
_atom_site_fract_z
_atom_type_partial_charge
O1    O     O_R   0.255040 0.869590 0.478480 -0.604016
O2    O     O_R   0.744960 0.130410 0.521520 -0.599307
O3    O     O_R   0.744960 0.869590 0.521520 -0.587215
O4    O     O_R   0.255040 0.130410 0.478480 -0.595838
O5    O     O_R   0.755040 0.369590 0.478480 -0.605900
O6    O     O_R   0.244960 0.630410 0.521520 -0.591640
O7    O     O_R   0.244960 0.369590 0.521520 -0.597584
O8    O     O_R   0.755040 0.630410 0.478480 -0.607095
O9    O     O_R   0.182050 0.796550 0.624440 -0.549260
O10   O     O_R   0.817950 0.203450 0.375560 -0.595410
O11   O     O_R   0.817950 0.796550 0.375560 -0.554274
O12   O     O_R   0.182050 0.203450 0.624440 -0.534826
O13   O     O_R   0.682050 0.296550 0.624440 -0.599477
O14   O     O_R   0.317950 0.703450 0.375560 -0.534784
O15   O     O_R   0.317950 0.296550 0.375560 -0.534259
O16   O     O_R   0.682050 0.703450 0.624440 -0.587412
Cu1   Cu    Cu3+1 0.209920 0.785290 0.495070 1.006549
Cu2   Cu    Cu3+1 0.790080 0.214710 0.504930 1.020226
Cu3   Cu    Cu3+1 0.790080 0.785290 0.504930 1.022118
Cu4   Cu    Cu3+1 0.209920 0.214710 0.495070 1.029606
Cu5   Cu    Cu3+1 0.709920 0.285290 0.495070 1.009067
Cu6   Cu    Cu3+1 0.290080 0.714710 0.504930 1.020520
Cu7   Cu    Cu3+1 0.290080 0.285290 0.504930 1.019948
Cu8   Cu    Cu3+1 0.709920 0.714710 0.495070 1.002101
C1    C     C_R   0.296312 0.731478 0.328332 0.838080
C2    C     C_R   0.703540 0.268131 0.671818 0.844902
C3    C     C_R   0.708500 0.721664 0.668079 0.802588
C4    C     C_R   0.292042 0.277670 0.331510 0.840310
C5    C     C_R   0.796408 0.231742 0.328207 0.841928
C6    C     C_R   0.208383 0.778221 0.668163 0.835812
C7    C     C_R   0.207986 0.222281 0.668464 0.840354
C8    C     C_R   0.796511 0.768124 0.328317 0.873086
O17   O     O_R   0.250530 0.763330 0.367210 -0.619593
O18   O     O_R   0.749470 0.236670 0.632790 -0.534371
O19   O     O_R   0.749470 0.763330 0.632790 -0.598193
O20   O     O_R   0.250530 0.236670 0.367210 -0.599524
O21   O     O_R   0.750530 0.263330 0.367210 -0.538671
O22   O     O_R   0.249470 0.736670 0.632790 -0.599147
O23   O     O_R   0.249470 0.263330 0.632790 -0.599947
O24   O     O_R   0.750530 0.736670 0.367210 -0.552283
O25   O     O_R   0.177260 0.690030 0.513710 -0.560641
O26   O     O_R   0.822740 0.309970 0.486290 -0.555412
O27   O     O_R   0.822740 0.690030 0.486290 -0.556060
O28   O     O_R   0.177260 0.309970 0.513710 -0.555048
O29   O     O_R   0.677260 0.190030 0.513710 -0.569835
O30   O     O_R   0.322740 0.809970 0.486290 -0.564938
O31   O     O_R   0.322740 0.190030 0.486290 -0.565363
O32   O     O_R   0.677260 0.809970 0.513710 -0.569411
C9    C     C_R   0.196936 0.631606 0.526660 0.840449
C10   C     C_R   0.798877 0.369139 0.487998 0.841808
C11   C     C_R   0.803491 0.631479 0.472885 0.811618
C12   C     C_R   0.195930 0.368079 0.530163 0.829404
C13   C     C_R   0.700640 0.131102 0.512831 0.819844
C14   C     C_R   0.303682 0.868201 0.470929 0.811169
C15   C     C_R   0.303664 0.131815 0.470957 0.821875
C16   C     C_R   0.700547 0.868898 0.513138 0.835508
H1    H     H_    0.564374 0.755291 0.429526 0.184180
H2    H     H_    0.483935 0.245175 0.409684 0.194196
H3    H     H_    0.484900 0.754381 0.412795 0.194155
H4    H     H_    0.562870 0.244945 0.427275 0.186608
H5    H     H_    0.989733 0.278265 0.666653 0.195960
H6    H     H_    0.988268 0.735319 0.422654 0.197965
H7    H     H_    0.908720 0.281624 0.657817 0.198755
H8    H     H_    0.054560 0.739584 0.475561 0.176853
C17   C     C_R   0.045776 0.628790 0.517898 -0.001074
C18   C     C_R   0.923733 0.381517 0.581216 -0.000103
C19   C     C_R   0.964601 0.624113 0.460777 -0.013186
C20   C     C_R   0.021692 0.378112 0.595597 -0.005766
C21   C     C_R   0.567796 0.129440 0.439530 -0.004363
C22   C     C_R   0.471642 0.869864 0.423250 -0.010578
C23   C     C_R   0.471182 0.129742 0.421606 -0.009783
C24   C     C_R   0.568811 0.870911 0.439428 -0.002832
C25   C     C_R   0.033175 0.689893 0.482597 -0.153649
C26   C     C_R   0.935614 0.325359 0.625993 -0.162606
C27   C     C_R   0.994960 0.686773 0.450739 -0.169434
C28   C     C_R   0.983776 0.323106 0.631546 -0.169918
C29   C     C_R   0.545645 0.193522 0.426851 -0.166180
C30   C     C_R   0.499534 0.806047 0.419519 -0.170847
C31   C     C_R   0.498689 0.193642 0.417309 -0.171651
C32   C     C_R   0.546777 0.806539 0.428279 -0.161529
C33   C     C_R   0.977109 0.562675 0.497193 0.024865
C34   C     C_R   0.007530 0.438446 0.559746 0.022405
C35   C     C_R   0.020850 0.563800 0.517956 0.025582
C36   C     C_R   0.959726 0.439271 0.549341 0.018167
C37   C     C_R   0.491699 0.065127 0.438086 0.024129
C38   C     C_R   0.540212 0.935048 0.447563 0.024457
C39   C     C_R   0.539766 0.065150 0.447440 0.025041
C40   C     C_R   0.491988 0.934717 0.438710 0.024282
C41   C     C_R   0.466705 0.999848 0.437707 -0.049730
C42   C     C_R   0.562562 0.000190 0.456180 -0.050010
C43   C     C_R   0.946029 0.500284 0.513709 -0.047293
C44   C     C_R   0.038099 0.500724 0.543316 -0.050159
C45   C     C_R   0.392257 0.934073 0.432969 -0.024985
C46   C     C_R   0.633577 0.065550 0.472849 -0.023941
C47   C     C_R   0.633940 0.935085 0.472625 -0.024160
C48   C     C_R   0.392165 0.065357 0.432186 -0.027180
C49   C     C_R   0.866523 0.438847 0.522041 -0.035841
C50   C     C_R   0.111347 0.566414 0.550307 -0.022873
C51   C     C_R   0.107371 0.435800 0.566535 -0.029706
C52   C     C_R   0.885637 0.562466 0.465622 -0.028022
C53   C     C_R   0.336970 0.934378 0.450403 -0.069607
C54   C     C_R   0.675621 0.065056 0.500107 -0.072662
C55   C     C_R   0.675659 0.935251 0.500295 -0.077494
C56   C     C_R   0.336907 0.065371 0.450201 -0.069940
C57   C     C_R   0.824810 0.436409 0.494595 -0.075958
C58   C     C_R   0.164168 0.565712 0.543921 -0.077059
C59   C     C_R   0.162534 0.434760 0.550345 -0.067537
C60   C     C_R   0.834377 0.564150 0.464955 -0.058770
C61   C     C_R   0.310629 0.999975 0.459093 -0.267121
C62   C     C_R   0.694126 0.000059 0.516228 -0.269313
C63   C     C_R   0.807850 0.499848 0.471330 -0.267972
C64   C     C_R   0.189030 0.500001 0.541834 -0.265968
H9    H     H_    0.268233 0.000123 0.475845 0.182953
H10   H     H_    0.724855 0.999911 0.538763 0.178456
H11   H     H_    0.772262 0.499642 0.460948 0.181566
H12   H     H_    0.230586 0.499611 0.530078 0.184640
C65   C     C_R   0.416654 0.999741 0.435586 -0.015538
C66   C     C_R   0.608778 0.000304 0.470779 -0.006293
C67   C     C_R   0.899680 0.500330 0.499701 -0.023259
C68   C     C_R   0.086035 0.500731 0.552394 -0.017675
C69   C     C_R   0.620110 0.873718 0.437413 0.279841
C70   C     C_R   0.424589 0.128070 0.407998 0.281103
C71   C     C_R   0.424899 0.871168 0.409899 0.281433
C72   C     C_R   0.618830 0.127164 0.438701 0.280493
C73   C     C_R   0.071658 0.376360 0.599507 0.287515
C74   C     C_R   0.922471 0.620875 0.435593 0.286070
C75   C     C_R   0.875327 0.383697 0.573148 0.292674
C76   C     C_R   0.082140 0.630296 0.554700 0.271604
C77   C     C_R   0.233625 0.793028 0.942171 0.024314
C78   C     C_R   0.782945 0.240155 0.042963 0.026464
C79   C     C_R   0.794090 0.739602 0.034549 0.026172
C80   C     C_R   0.222080 0.228473 0.951868 0.021537
C81   C     C_R   0.717841 0.261211 0.956388 0.026989
C82   C     C_R   0.293843 0.760593 0.034622 0.027204
C83   C     C_R   0.278075 0.271198 0.048017 0.021419
C84   C     C_R   0.734028 0.706382 0.942108 0.026967
C85   C     C_R   0.288020 0.770152 0.893946 0.047298
C86   C     C_R   0.734504 0.279615 0.085787 0.042119
C87   C     C_R   0.744248 0.703888 0.078645 0.039481
C88   C     C_R   0.277903 0.244869 0.905221 0.047903
C89   C     C_R   0.766357 0.221892 0.913478 0.041802
C90   C     C_R   0.243549 0.795626 0.078820 0.046175
C91   C     C_R   0.222253 0.254797 0.094657 0.046760
C92   C     C_R   0.788141 0.729947 0.893946 0.045723
C93   C     C_R   0.316887 0.748570 0.941455 0.045842
C94   C     C_R   0.700493 0.286747 0.044391 0.048451
C95   C     C_R   0.711699 0.694854 0.035136 0.043881
C96   C     C_R   0.305883 0.267387 0.953419 0.044861
C97   C     C_R   0.800376 0.214792 0.954876 0.051729
C98   C     C_R   0.211013 0.804216 0.035276 0.040718
C99   C     C_R   0.194278 0.232266 0.046466 0.044162
C100  C     C_R   0.816831 0.751936 0.941471 0.042863
C101  C     C_R   0.147617 0.828706 0.945215 0.061428
C102  C     C_R   0.862004 0.185173 0.046533 0.061101
C103  C     C_R   0.867641 0.805874 0.043469 0.058713
C104  C     C_R   0.140104 0.183111 0.948435 0.066634
C105  C     C_R   0.638454 0.315501 0.953198 0.057460
C106  C     C_R   0.367833 0.694823 0.043490 0.063130
C107  C     C_R   0.360010 0.316694 0.051482 0.067663
C108  C     C_R   0.648249 0.669889 0.945070 0.062972
C109  C     C_R   0.118768 0.850046 0.897456 -0.127529
C110  C     C_R   0.886257 0.156963 0.098609 -0.116903
C111  C     C_R   0.887811 0.840738 0.097888 -0.124484
C112  C     C_R   0.115496 0.153647 0.898126 -0.131584
C113  C     C_R   0.613894 0.343209 0.901333 -0.116684
C114  C     C_R   0.387969 0.659625 0.097838 -0.132404
C115  C     C_R   0.384575 0.346246 0.101818 -0.132673
C116  C     C_R   0.619347 0.648918 0.897207 -0.119790
C117  C     C_R   0.139246 0.831222 0.807667 -0.232354
C118  C     C_R   0.865245 0.176382 0.188799 -0.262681
C119  C     C_R   0.864868 0.824210 0.189222 -0.216206
C120  C     C_R   0.137879 0.168853 0.806978 -0.215088
C121  C     C_R   0.634704 0.323457 0.811283 -0.265487
C122  C     C_R   0.364951 0.675843 0.189211 -0.222957
C123  C     C_R   0.362182 0.331054 0.192976 -0.214298
C124  C     C_R   0.639822 0.667942 0.807437 -0.266241
H13   H     H_    0.115456 0.841750 0.772861 0.205980
H14   H     H_    0.882528 0.153180 0.229060 0.189355
H15   H     H_    0.879472 0.851280 0.230786 0.196780
H16   H     H_    0.116541 0.153575 0.769620 0.207071
H17   H     H_    0.617193 0.346291 0.771162 0.187711
H18   H     H_    0.379738 0.648684 0.230701 0.200867
H19   H     H_    0.383491 0.346393 0.230358 0.208500
H20   H     H_    0.616109 0.657543 0.772586 0.187483
C125  C     C_R   0.190764 0.801885 0.760995 -0.126398
C126  C     C_R   0.820851 0.222371 0.229382 -0.099138
C127  C     C_R   0.821988 0.776104 0.229207 -0.080521
C128  C     C_R   0.188549 0.200484 0.762526 -0.125819
C129  C     C_R   0.679194 0.277626 0.770637 -0.095724
C130  C     C_R   0.321681 0.723659 0.229360 -0.097686
C131  C     C_R   0.311521 0.299398 0.237414 -0.126723
C132  C     C_R   0.691116 0.697577 0.760880 -0.113400
C133  C     C_R   0.224660 0.796819 0.803585 0.052607
C134  C     C_R   0.796481 0.250244 0.177113 0.083188
C135  C     C_R   0.800562 0.743475 0.175504 0.073754
C136  C     C_R   0.219643 0.209951 0.809068 0.051104
C137  C     C_R   0.703880 0.250283 0.822708 0.087545
C138  C     C_R   0.299931 0.756288 0.175854 0.053551
C139  C     C_R   0.280462 0.289851 0.190833 0.049511
C140  C     C_R   0.724978 0.702636 0.803531 0.057616
C141  C     C_R   0.201864 0.805792 0.897023 0.079256
C142  C     C_R   0.813866 0.225140 0.089004 0.076306
C143  C     C_R   0.820855 0.763170 0.084581 0.076080
C144  C     C_R   0.193837 0.207613 0.903247 0.083334
C145  C     C_R   0.686691 0.275756 0.910606 0.077071
C146  C     C_R   0.320663 0.737140 0.084705 0.075767
C147  C     C_R   0.306294 0.292129 0.096651 0.083397
C148  C     C_R   0.702308 0.693297 0.896940 0.077976
C149  C     C_R   0.124413 0.829626 0.039181 -0.156250
C150  C     C_R   0.883950 0.175966 0.953116 -0.165134
C151  C     C_R   0.892567 0.810804 0.949305 -0.159856
C152  C     C_R   0.112962 0.188886 0.041732 -0.170454
C153  C     C_R   0.616703 0.324977 0.046541 -0.165362
C154  C     C_R   0.393108 0.690370 0.949328 -0.175094
C155  C     C_R   0.387169 0.310902 0.958183 -0.172100
C156  C     C_R   0.625300 0.668408 0.039072 -0.164978
C157  C     C_R   0.155689 0.819695 0.083107 -0.205548
C158  C     C_R   0.853077 0.187834 0.908887 -0.203611
C159  C     C_R   0.867535 0.785453 0.899693 -0.185745
C160  C     C_R   0.139243 0.212785 0.089611 -0.199645
C161  C     C_R   0.647778 0.313609 0.090492 -0.195239
C162  C     C_R   0.368000 0.715650 0.899628 -0.205665
C163  C     C_R   0.360917 0.286897 0.910289 -0.201499
C164  C     C_R   0.656603 0.678529 0.082913 -0.195819
C165  C     C_R   0.280779 0.785340 0.756069 -0.182509
C166  C     C_R   0.755564 0.302880 0.208417 -0.095355
C167  C     C_R   0.759832 0.690861 0.208179 -0.094103
C168  C     C_R   0.275709 0.219128 0.764839 -0.182290
C169  C     C_R   0.744955 0.197862 0.791380 -0.099415
C170  C     C_R   0.258455 0.808330 0.208874 -0.165160
C171  C     C_R   0.224398 0.280685 0.235031 -0.180571
C172  C     C_R   0.780997 0.714506 0.756060 -0.173944
C173  C     C_R   0.311429 0.770381 0.800073 -0.202890
C174  C     C_R   0.723807 0.315093 0.165764 -0.159098
C175  C     C_R   0.729883 0.675260 0.163529 -0.164522
C176  C     C_R   0.304144 0.236159 0.811528 -0.198326
C177  C     C_R   0.777006 0.186237 0.833634 -0.173504
C178  C     C_R   0.228593 0.823880 0.163977 -0.217531
C179  C     C_R   0.195989 0.263576 0.188335 -0.196436
C180  C     C_R   0.811510 0.729829 0.800076 -0.199539
H21   H     H_    0.081544 0.835458 0.080608 0.178413
H22   H     H_    0.925490 0.161594 0.911612 0.179230
H23   H     H_    0.932520 0.832029 0.911239 0.183456
H24   H     H_    0.070384 0.177773 0.079029 0.164516
H25   H     H_    0.575134 0.339064 0.088273 0.182404
H26   H     H_    0.433312 0.669422 0.911497 0.171729
H27   H     H_    0.429735 0.322100 0.920906 0.163398
H28   H     H_    0.582547 0.662255 0.080788 0.180453
H29   H     H_    0.135327 0.821111 0.155401 0.147567
H30   H     H_    0.871941 0.177994 0.837678 0.143050
H31   H     H_    0.888353 0.794864 0.828598 0.152620
H32   H     H_    0.114972 0.214127 0.160999 0.138836
H33   H     H_    0.629004 0.323622 0.161655 0.152866
H34   H     H_    0.389064 0.706554 0.828493 0.138523
H35   H     H_    0.385196 0.285513 0.838904 0.136862
H36   H     H_    0.636363 0.676720 0.155201 0.158577
H37   H     H_    0.302622 0.789997 0.684288 0.168472
H38   H     H_    0.747739 0.336840 0.264778 0.163411
H39   H     H_    0.750229 0.659957 0.267610 0.167140
H40   H     H_    0.299088 0.209978 0.693901 0.163353
H41   H     H_    0.752704 0.163640 0.735268 0.163501
H42   H     H_    0.248334 0.839171 0.268429 0.183040
H43   H     H_    0.200995 0.289926 0.305943 0.165718
H44   H     H_    0.802893 0.709919 0.684274 0.173689
H45   H     H_    0.353920 0.761337 0.758620 0.137704
H46   H     H_    0.692096 0.354635 0.194897 0.136496
H47   H     H_    0.696969 0.637825 0.194498 0.138467
H48   H     H_    0.347012 0.241321 0.771514 0.136292
H49   H     H_    0.808836 0.146864 0.804424 0.139374
H50   H     H_    0.195250 0.861003 0.194984 0.145077
H51   H     H_    0.153119 0.258449 0.228335 0.139166
H52   H     H_    0.853908 0.739225 0.758632 0.150338
O33   O     O_R   0.051640 0.926880 0.885090 -0.579143
O34   O     O_R   0.948360 0.073120 0.114910 -0.585869
O35   O     O_R   0.948360 0.926880 0.114910 -0.576839
O36   O     O_R   0.051640 0.073120 0.885090 -0.581082
O37   O     O_R   0.551640 0.426880 0.885090 -0.586842
O38   O     O_R   0.448360 0.573120 0.114910 -0.576447
O39   O     O_R   0.448360 0.426880 0.114910 -0.580000
O40   O     O_R   0.551640 0.573120 0.885090 -0.586087
Cu9   Cu    Cu3+1 0.495240 0.500000 0.924150 0.942028
Cu10  Cu    Cu3+1 0.504760 0.500000 0.075850 0.961896
Cu11  Cu    Cu3+1 0.995240 1.000000 0.924150 0.966097
Cu12  Cu    Cu3+1 0.004760 0.000000 0.075850 0.957903
C181  C     C_R   0.928422 0.899635 0.064463 0.814150
C182  C     C_R   0.071726 0.099883 0.935179 0.799192
C183  C     C_R   0.072767 0.901100 0.934711 0.806103
C184  C     C_R   0.928031 0.099779 0.064701 0.813522
C185  C     C_R   0.428298 0.400086 0.064800 0.803324
C186  C     C_R   0.573016 0.598540 0.934484 0.809558
C187  C     C_R   0.572014 0.400267 0.935269 0.812482
C188  C     C_R   0.428524 0.600516 0.064328 0.807182
O41   O     O_R   0.940620 0.926560 0.986760 -0.591294
O42   O     O_R   0.059380 0.073440 0.013240 -0.590937
O43   O     O_R   0.059380 0.926560 0.013240 -0.592778
O44   O     O_R   0.940620 0.073440 0.986760 -0.592129
O45   O     O_R   0.440620 0.426560 0.986760 -0.589289
O46   O     O_R   0.559380 0.573440 0.013240 -0.591365
O47   O     O_R   0.559380 0.426560 0.013240 -0.593698
O48   O     O_R   0.440620 0.573440 0.986760 -0.592929
N1    N     N_R   0.663349 0.831119 0.372012 0.146420
O49   O     O_R   0.707878 0.862447 0.317068 -0.374669
O50   O     O_R   0.656894 0.764003 0.359216 -0.393661
N2    N     N_R   0.417903 0.179994 0.349939 0.134357
O51   O     O_R   0.407115 0.158226 0.286381 -0.361948
O52   O     O_R   0.418847 0.248451 0.362970 -0.382839
N3    N     N_R   0.418523 0.818611 0.352550 0.133530
O53   O     O_R   0.419097 0.750318 0.367294 -0.381775
O54   O     O_R   0.408375 0.839684 0.287906 -0.369345
N4    N     N_R   0.661244 0.171351 0.375102 0.145616
O55   O     O_R   0.654826 0.239868 0.369944 -0.395016
O56   O     O_R   0.705330 0.141209 0.316194 -0.368937
N5    N     N_R   0.081630 0.320941 0.649855 0.119097
O57   O     O_R   0.080332 0.253732 0.630637 -0.378809
O58   O     O_R   0.095319 0.337867 0.711742 -0.369211
N6    N     N_R   0.922940 0.667949 0.367019 0.123674
O59   O     O_R   0.918286 0.641113 0.299513 -0.377936
O60   O     O_R   0.922718 0.737203 0.375215 -0.378828
N7    N     N_R   0.831409 0.339357 0.630920 0.119204
O61   O     O_R   0.786361 0.368789 0.687635 -0.393223
O62   O     O_R   0.837259 0.270265 0.630789 -0.388079
N8    N     N_R   0.076575 0.685357 0.619005 0.151443
O63   O     O_R   0.088775 0.671026 0.683454 -0.354410
O64   O     O_R   0.052509 0.745815 0.621879 -0.385402

loop_
_geom_bond_atom_site_label_1
_geom_bond_atom_site_label_2
_geom_bond_distance
_ccdc_geom_bond_type
N8    O64   1.300942 A    
C136  C168  1.402690 A    
C116  C186  1.488960 S    
C138  C146  1.414727 A    
Cu2   Cu5   2.660221 S    
C59   C64   1.400987 A    
C23   C70   1.419276 A    
C74   N6    1.443752 S    
N1    O49   1.301699 A    
C155  H27   1.080783 S    
C130  C138  1.428855 A    
C157  H29   1.081560 S    
C118  H14   1.083205 S    
C70   N2    1.445302 S    
C1    C130  1.488292 S    
C38   C40   1.419338 A    
C135  C143  1.414640 A    
C129  C137  1.430693 A    
Cu6   O22   1.961415 S    
C133  C141  1.409836 A    
C5    C126  1.490344 S    
C6    O22   1.281040 A    
C178  H50   1.081936 S    
C139  C171  1.402608 A    
C154  C162  1.393370 A    
Cu4   O28   1.955048 S    
O39   C185  1.307040 A    
O3    Cu3   1.950753 S    
C176  H48   1.075876 S    
C36   C43   1.416392 A    
C136  C144  1.409135 A    
C78   C142  1.424211 A    
C49   C57   1.435191 A    
C91   C99   1.422771 A    
C140  C148  1.410287 A    
C25   C27   1.395980 A    
C86   C174  1.404161 A    
O25   C9    1.281639 A    
C101  C141  1.415989 A    
C29   C31   1.390361 A    
N4    O56   1.301429 A    
C114  C122  1.401057 A    
C91   C179  1.410625 A    
C105  C145  1.409847 A    
C114  C188  1.491908 S    
C150  H22   1.077491 S    
C38   C42   1.407340 A    
C45   C53   1.432210 A    
C94   C161  1.403073 A    
C152  C160  1.388568 A    
Cu12  O43   1.958069 S    
C3    O19   1.284650 A    
C101  C109  1.427247 A    
N6    O59   1.301440 A    
C156  C164  1.389717 A    
C13   C54   1.483339 S    
O12   Cu4   1.957957 S    
O13   Cu5   1.958236 S    
C184  O44   1.289671 A    
C50   C68   1.410752 A    
H2    C31   1.075505 S    
C34   C36   1.421892 A    
C160  H32   1.075633 S    
C87   C175  1.399695 A    
O33   C183  1.311455 A    
H6    C27   1.075798 S    
C80   C88   1.421639 A    
C149  H21   1.079399 S    
C78   C86   1.411468 A    
C102  C110  1.427485 A    
C164  H36   1.081642 S    
C123  H19   1.083473 S    
C85   C93   1.425473 A    
C124  H20   1.083594 S    
C48   C56   1.428630 A    
C46   C72   1.425563 A    
C45   C71   1.424861 A    
C16   C55   1.480927 S    
O2    C13   1.309432 A    
C107  C147  1.413302 A    
C9    C58   1.483626 S    
H7    C26   1.073962 S    
C156  H28   1.078901 S    
C50   C58   1.427529 A    
C60   C63   1.391716 A    
C135  C167  1.412795 A    
Cu11  O41   1.964336 S    
C185  O45   1.292554 A    
C149  C157  1.388268 A    
C102  C150  1.411626 A    
Cu3   O19   1.961557 S    
C134  C166  1.410673 A    
O10   Cu2   1.958236 S    
C107  C115  1.423185 A    
C108  C116  1.430928 A    
C133  C165  1.410598 A    
O4    Cu4   1.950755 S    
C77   C85   1.419171 A    
C40   C41   1.407565 A    
C46   C54   1.440911 A    
C140  C172  1.410942 A    
C95   C164  1.405473 A    
O6    Cu6   1.958799 S    
N7    O62   1.300158 A    
C14   C53   1.491713 S    
C21   C29   1.404615 A    
C122  H18   1.083264 S    
C23   C31   1.405724 A    
O15   C4    1.298969 A    
C26   C28   1.388982 A    
C55   C62   1.391365 A    
C52   C74   1.426461 A    
O7    C12   1.308075 A    
Cu2   O26   1.961175 S    
C30   C32   1.391285 A    
N5    O58   1.301406 A    
C18   C26   1.413671 A    
C92   C180  1.405544 A    
C183  O43   1.288153 A    
C10   C57   1.482160 S    
H8    C25   1.082362 S    
C62   H10   1.083923 S    
C77   C141  1.424556 A    
O28   C12   1.289983 A    
O16   C3    1.302350 A    
C132  C140  1.426536 A    
O29   C13   1.273677 A    
H1    C32   1.078464 S    
C119  H15   1.083197 S    
C45   C65   1.415977 A    
C103  C143  1.414248 A    
H3    C30   1.075706 S    
C117  H13   1.083711 S    
C33   C35   1.414295 A    
C2    C129  1.490670 S    
C47   C55   1.437049 A    
Cu10  O47   1.958069 S    
Cu5   O29   1.961175 S    
H5    C28   1.078817 S    
C175  H47   1.081868 S    
C161  H33   1.080850 S    
C52   C60   1.435176 A    
C107  C155  1.400093 A    
Cu8   O32   1.955048 S    
C6    C125  1.474080 S    
C48   C65   1.414339 A    
O40   Cu9   1.960481 S    
C105  C113  1.427581 A    
C103  C111  1.433093 A    
C15   C56   1.489405 S    
Cu4   O20   1.961556 S    
C49   C67   1.416305 A    
C108  C148  1.417542 A    
Cu4   Cu7   2.670429 S    
Cu12  O42   1.964336 S    
O5    Cu5   1.958801 S    
C52   C67   1.423780 A    
C153  H25   1.077417 S    
O9    C6    1.298834 A    
O26   C10   1.281324 A    
C41   C65   1.412724 A    
O11   C8    1.307264 A    
C19   C33   1.415028 A    
O12   C7    1.299025 A    
C43   C67   1.415979 A    
O13   C2    1.306529 A    
C112  C120  1.394354 A    
C19   C27   1.411816 A    
C3    C132  1.476252 S    
C4    C131  1.475229 S    
C64   H12   1.083220 S    
C79   C143  1.427162 A    
C115  C123  1.394430 A    
C116  C124  1.393597 A    
C171  H43   1.079850 S    
C172  H44   1.078618 S    
C8    C127  1.490481 S    
C126  C134  1.430329 A    
C168  H40   1.079872 S    
O37   C187  1.309725 A    
C137  C169  1.410705 A    
C106  C154  1.410796 A    
C151  C159  1.394311 A    
O1    Cu1   1.958801 S    
C166  C174  1.388770 A    
C112  C182  1.483519 S    
C20   C34   1.414295 A    
O14   Cu6   1.958236 S    
Cu7   O31   1.955049 S    
C44   C68   1.413345 A    
C24   C32   1.404187 A    
C46   C66   1.412478 A    
C47   C69   1.424415 A    
C86   C94   1.415505 A    
O7    Cu7   1.950753 S    
O8    Cu8   1.950755 S    
C98   C157  1.405371 A    
C79   C87   1.411420 A    
C173  H45   1.078483 S    
Cu11  Cu12  2.682000 S    
C20   C73   1.425193 A    
C1    O17   1.282358 A    
C170  H42   1.075597 S    
C24   C69   1.416970 A    
C158  H30   1.080926 S    
C137  C145  1.411990 A    
C186  O46   1.286980 A    
C166  H38   1.077201 S    
O36   C182  1.307004 A    
O11   Cu3   1.957957 S    
C42   C66   1.418128 A    
C83   C147  1.425829 A    
C96   C163  1.414922 A    
C82   C146  1.425273 A    
C22   C30   1.406437 A    
C53   C61   1.399134 A    
C108  C156  1.408444 A    
C100  C159  1.408580 A    
C34   C44   1.396120 A    
N6    O60   1.301060 A    
C153  C161  1.387481 A    
C75   N7    1.431323 S    
C12   C59   1.495789 S    
C72   N4    1.439956 S    
C111  C119  1.401614 A    
C21   C39   1.408599 A    
C120  H16   1.083478 S    
C50   C76   1.424820 A    
N8    O63   1.302350 A    
C57   C63   1.394009 A    
C121  H17   1.083204 S    
C159  H31   1.078221 S    
C79   C100  1.413130 A    
Cu1   O17   1.961413 S    
C102  C142  1.409886 A    
Cu3   O27   1.955049 S    
N1    O50   1.299749 A    
C80   C144  1.425819 A    
N3    O53   1.300536 A    
C106  C146  1.412972 A    
C17   C76   1.409254 A    
C151  H23   1.077028 S    
C19   C74   1.420949 A    
Cu9   O45   1.964336 S    
C84   C148  1.426761 A    
C37   C41   1.408885 A    
C93   C162  1.408394 A    
C21   C72   1.417642 A    
O40   C186  1.314191 A    
C17   C35   1.401552 A    
C82   C90   1.410723 A    
C110  C118  1.400964 A    
C118  C126  1.399382 A    
C122  C130  1.399656 A    
Cu6   O30   1.961175 S    
C169  H41   1.077225 S    
O4    C15   1.303757 A    
O5    C10   1.303646 A    
C188  O48   1.292120 A    
C20   C28   1.400966 A    
O38   C188  1.310181 A    
C106  C114  1.430202 A    
C90   C178  1.399257 A    
C82   C93   1.413272 A    
O37   Cu9   1.952708 S    
N4    O55   1.299843 A    
C24   C38   1.408255 A    
C119  C127  1.400884 A    
C115  C185  1.483625 S    
C51   C59   1.434984 A    
C81   C89   1.411710 A    
Cu1   Cu6   2.660221 S    
C48   C70   1.423822 A    
C165  C173  1.389618 A    
C90   C98   1.410791 A    
Cu3   Cu8   2.670429 S    
C84   C92   1.419686 A    
C101  C149  1.407349 A    
O10   C5    1.306303 A    
O27   C11   1.285426 A    
N5    O57   1.301906 A    
C97   C158  1.403250 A    
O14   C1    1.304601 A    
C174  H46   1.080708 S    
C117  C125  1.394945 A    
N7    O61   1.300753 A    
C33   C43   1.405281 A    
Cu5   O21   1.961413 S    
C4    O20   1.287883 A    
C92   C100  1.426880 A    
C39   C42   1.405798 A    
C5    O21   1.282262 A    
C88   C176  1.410683 A    
C80   C99   1.417350 A    
C99   C160  1.414854 A    
C177  H49   1.080689 S    
C81   C94   1.413340 A    
C81   C145  1.424451 A    
C111  C181  1.495472 S    
C104  C152  1.400032 A    
C49   C75   1.430591 A    
C22   C40   1.414115 A    
C88   C96   1.422937 A    
C89   C97   1.415657 A    
C51   C73   1.426651 A    
C58   C64   1.399789 A    
C35   C44   1.407789 A    
C87   C95   1.412919 A    
C171  C179  1.384885 A    
C131  C139  1.420324 A    
C123  C131  1.394923 A    
C56   C61   1.399705 A    
C124  C132  1.395815 A    
C113  C121  1.400939 A    
C17   C25   1.400984 A    
C18   C75   1.417711 A    
C71   N3    1.444800 S    
O39   Cu10  1.960481 S    
C51   C68   1.415503 A    
C23   C37   1.413721 A    
C22   C71   1.420551 A    
C2    O18   1.282324 A    
C7    O23   1.287857 A    
C11   C60   1.492724 S    
C7    C128  1.475197 S    
C187  O47   1.289546 A    
C167  H39   1.075936 S    
C113  C187  1.486277 S    
O15   Cu7   1.957957 S    
O16   Cu8   1.957957 S    
O30   C14   1.285177 A    
C109  C117  1.393306 A    
C37   C39   1.419478 A    
C47   C66   1.410715 A    
H4    C29   1.077506 S    
O33   Cu11  1.952708 S    
O34   Cu12  1.952705 S    
C73   N5    1.440242 S    
Cu9   Cu10  2.682000 S    
C69   N1    1.442448 S    
N2    O52   1.300378 A    
N3    O54   1.301656 A    
O1    C14   1.303847 A    
O3    C16   1.309328 A    
Cu11  O44   1.958066 S    
C78   C97   1.413188 A    
C139  C147  1.409136 A    
C162  H34   1.078112 S    
C154  H26   1.077431 S    
O35   Cu12  1.960481 S    
Cu2   O18   1.961415 S    
O8    C11   1.311406 A    
C128  C136  1.420431 A    
O9    Cu1   1.958236 S    
N2    O51   1.301672 A    
C170  C178  1.385324 A    
C85   C173  1.405527 A    
C104  C144  1.413304 A    
Cu10  O46   1.964336 S    
O31   C15   1.289961 A    
O32   C16   1.278485 A    
Cu9   O48   1.958066 S    
C89   C177  1.404114 A    
C127  C135  1.429126 A    
C125  C133  1.425795 A    
O2    Cu2   1.958799 S    
C155  C163  1.388788 A    
C138  C170  1.413284 A    
O36   Cu11  1.960481 S    
C61   H9    1.083296 S    
C167  C175  1.386465 A    
C105  C153  1.411531 A    
C150  C158  1.387852 A    
C179  H51   1.075848 S    
C180  H52   1.078605 S    
C103  C151  1.411491 A    
C165  H37   1.078579 S    
C77   C98   1.410601 A    
C152  H24   1.080765 S    
C120  C128  1.394922 A    
Cu7   O23   1.961557 S    
C121  C129  1.399430 A    
C83   C91   1.421612 A    
Cu8   O24   1.961556 S    
C182  O42   1.292521 A    
C76   N8    1.449475 S    
C8    O24   1.287133 A    
O6    C9    1.302448 A    
Cu1   O25   1.961175 S    
C168  C176  1.385070 A    
C84   C95   1.410680 A    
C54   C62   1.391039 A    
C18   C36   1.405253 A    
C163  H35   1.075655 S    
O34   C184  1.309552 A    
C104  C112  1.423065 A    
C134  C142  1.412079 A    
C83   C96   1.417377 A    
O38   Cu10  1.952705 S    
C181  O41   1.291434 A    
C172  C180  1.390068 A    
C63   H11   1.083598 S    
C169  C177  1.388821 A    
C109  C183  1.485235 S    
C110  C184  1.486161 S    
O35   C181  1.312576 A    
