data_mof_unit_47888.cif
_audit_creation_date              2013-03-05T16:03:41-0500
_audit_creation_method            fapswitch 2.2
_symmetry_space_group_name_H-M    P1
_symmetry_Int_Tables_number       1
_space_group_crystal_system       triclinic
_cell_length_a                    8.721023
_cell_length_b                    10.797144
_cell_length_c                    9.557528
_cell_angle_alpha                 90.61427
_cell_angle_beta                  98.471305
_cell_angle_gamma                 90.469941
_cell_volume                      890.043870278

loop_
_atom_site_label
_atom_site_type_symbol
_atom_site_description
_atom_site_fract_x
_atom_site_fract_y
_atom_site_fract_z
_atom_type_partial_charge
O1    O     O_R   0.499990 0.319660 0.618740 -0.554861
O2    O     O_R   0.500010 0.680340 0.381260 -0.554301
O3    O     O_R   0.499990 0.319630 0.381170 -0.564610
O4    O     O_R   0.500010 0.680370 0.618830 -0.577963
C1    C     C_R   0.505068 0.262448 0.500214 0.867711
C2    C     C_R   0.496421 0.737533 0.500210 0.868097
O5    O     O_R   0.274840 0.500010 0.591370 -0.599617
O6    O     O_R   0.725160 0.499990 0.408630 -0.599053
O7    O     O_R   0.274830 0.499980 0.353800 -0.558179
O8    O     O_R   0.725170 0.500020 0.646200 -0.536692
C3    C     C_R   0.203686 0.499731 0.463434 0.907849
C4    C     C_R   0.796318 0.500141 0.536543 0.910030
Cu1   Cu    Cu3+1 0.500000 0.500020 0.640660 1.014003
Cu2   Cu    Cu3+1 0.500000 0.499980 0.359340 1.014005
N1    N     N_R   0.500040 0.500030 0.852080 -0.187085
N2    N     N_R   0.499960 0.499970 0.147920 -0.188273
C5    C     C_2   0.037382 0.500004 0.443581 -0.322242
C6    C     C_2   0.962621 0.499646 0.556286 -0.322874
H1    H     H_    0.976372 0.500738 0.335839 0.170002
H2    H     H_    0.023729 0.498774 0.663947 0.168995
C7    C     C_R   0.413827 0.064991 0.392506 -0.281516
C8    C     C_R   0.588133 0.934649 0.609943 -0.275956
H3    H     H_    0.341316 0.116176 0.312470 0.191788
H4    H     H_    0.659346 0.883261 0.691587 0.191342
C9    C     C_R   0.402736 0.936592 0.392064 0.359523
C10   C     C_R   0.599496 0.063299 0.609905 0.359490
C11   C     C_R   0.492752 0.871379 0.501310 -0.193477
C12   C     C_R   0.509750 0.128450 0.500143 -0.191739
C13   C     C_R   0.392019 0.431667 0.058092 0.363681
C14   C     C_R   0.607945 0.567909 0.941693 0.367589
C15   C     C_R   0.392133 0.433582 0.909163 -0.102220
C16   C     C_R   0.605955 0.568550 0.090246 -0.103159
H5    H     H_    0.304908 0.382991 0.838570 0.151107
H6    H     H_    0.689155 0.624578 0.159202 0.153356
N3    N     N_R   0.294860 0.875021 0.284696 0.131146
O9    O     O_R   0.206777 0.785520 0.318205 -0.377311
O10   O     O_R   0.268170 0.919868 0.157673 -0.360225
N4    N     N_R   0.706669 0.125141 0.717621 0.131264
O11   O     O_R   0.793386 0.215802 0.684737 -0.380110
O12   O     O_R   0.734214 0.079616 0.844284 -0.351432
N5    N     N_2   0.273311 0.365483 0.113553 -0.408855
H7    H     H_    0.172653 0.415812 0.108116 0.248145
C17   C     C_3   0.243408 0.239482 0.062755 -0.625393
H8    H     H_    0.164563 0.193348 0.127578 0.250584
H9    H     H_    0.353361 0.186945 0.071029 0.256915
H10   H     H_    0.184503 0.237826 0.951581 0.226470
N6    N     N_2   0.718391 0.642330 0.885324 -0.389412
H11   H     H_    0.701853 0.735644 0.900825 0.252516
C18   C     C_3   0.878386 0.607480 0.927976 -0.649981
H12   H     H_    0.953765 0.660510 0.865549 0.239691
H13   H     H_    0.893812 0.507033 0.908071 0.241333
H14   H     H_    0.915630 0.628734 0.041997 0.219905

loop_
_geom_bond_atom_site_label_1
_geom_bond_atom_site_label_2
_geom_bond_distance
_ccdc_geom_bond_type
N4    O12   1.301485 A    
O7    Cu2   1.956615 S    
C15   H5    1.079963 S    
N1    C15   1.358874 A    
Cu2   N2    2.020599 S    
C9    C11   1.409102 A    
C1    C12   1.447696 S    
C17   H9    1.111332 S    
N5    H7    1.031306 S    
N5    C17   1.448189 S    
C10   C12   1.410983 A    
N3    O9    1.301322 A    
O6    C4    1.286900 A    
C18   H14   1.111242 S    
C13   N5    1.421634 S    
C7    H3    1.078306 S    
C5    C6    1.338798 D    
C13   C15   1.423918 A    
Cu1   Cu2   2.688719 S    
O5    C3    1.287063 A    
O7    C3    1.294021 A    
O2    C2    1.292490 A    
O3    Cu2   1.960634 S    
O8    C4    1.294230 A    
C9    N3    1.439007 S    
O1    C1    1.291145 A    
O4    C2    1.293088 A    
N3    O10   1.301422 A    
C7    C12   1.396247 A    
C6    H2    1.087015 S    
C8    C11   1.399153 A    
Cu1   N1    2.020601 S    
C17   H8    1.109628 S    
N4    O11   1.301302 A    
O2    Cu2   1.956374 S    
C17   H10   1.109888 S    
C8    H4    1.083787 S    
O1    Cu1   1.956373 S    
C14   C16   1.422406 A    
N6    H11   1.031181 S    
O3    C1    1.295500 A    
C14   N6    1.418849 S    
O5    Cu1   1.950694 S    
N1    C14   1.376238 A    
N6    C18   1.448793 S    
C18   H12   1.110269 S    
C8    C10   1.391783 A    
C4    C6    1.434789 S    
O4    Cu1   1.960635 S    
C7    C9    1.388842 A    
N2    C16   1.361715 A    
C3    C5    1.434749 S    
O6    Cu2   1.950692 S    
C5    H1    1.087362 S    
N2    C13   1.379864 A    
C10   N4    1.439041 S    
C2    C11   1.445730 S    
C18   H13   1.111768 S    
O8    Cu1   1.956613 S    
C16   H6    1.081727 S    
