data_mof_unit_59837.cif
_audit_creation_date              2012-10-26T19:04:41-0400
_audit_creation_method            fapswitch 2.2
_symmetry_space_group_name_H-M    P1
_symmetry_Int_Tables_number       1
_space_group_crystal_system       triclinic
_cell_length_a                    9.670999
_cell_length_b                    10.775774
_cell_length_c                    13.596683
_cell_angle_alpha                 95.729157
_cell_angle_beta                  73.101605
_cell_angle_gamma                 88.484238
_cell_volume                      1346.69935674

loop_
_atom_site_label
_atom_site_type_symbol
_atom_type_description
_atom_site_fract_x
_atom_site_fract_y
_atom_site_fract_z
_atom_type_partial_charge
Br1   Br    Br    0.917087 0.412936 0.173137 -0.384450
Br2   Br    Br    0.253833 0.773775 0.353438 -0.322160
Br3   Br    Br    0.792619 0.744003 0.620025 -0.319190
Br4   Br    Br    0.950936 0.093671 0.229235 -0.277065
Br5   Br    Br    0.303142 0.100604 0.225142 -0.367413
Br6   Br    Br    0.658362 0.695936 0.856070 -0.354145
Br7   Br    Br    0.817088 0.841045 0.377044 -0.252726
C1    C     C_R   0.502826 0.735146 0.486803 0.590822
C2    C     C_R   0.372500 0.525201 0.817010 0.017839
C3    C     C_R   0.245521 0.897451 0.467761 0.227186
C4    C     C_R   0.421404 0.508718 0.700642 0.603876
C5    C     C_R   0.112269 0.963013 0.514105 -0.040386
C6    C     C_R   0.103019 0.072039 0.580108 -0.115903
C7    C     C_R   0.229759 0.125362 0.590581 0.269284
C8    C     C_R   0.366604 0.066017 0.533679 -0.001234
C9    C     C_R   0.371642 0.941121 0.489930 -0.048842
C10   C     C_R   0.503366 0.867859 0.467963 -0.024443
C11   C     C_R   0.633644 0.927712 0.452333 0.229663
C12   C     C_R   0.424775 0.501867 0.982238 -0.043340
C13   C     C_R   0.631562 0.054654 0.483382 0.233808
C14   C     C_R   0.498340 0.127113 0.517201 -0.009072
C15   C     C_R   0.914150 0.310387 0.377212 -0.026112
C16   C     C_R   0.498427 0.262979 0.508506 0.586315
C17   C     C_R   0.013817 0.216713 0.316484 0.231519
C18   C     C_R   0.158719 0.221026 0.312598 0.135643
C19   C     C_R   0.202387 0.317972 0.369818 -0.093663
C20   C     C_R   0.102717 0.408336 0.438192 0.088723
C21   C     C_R   0.953097 0.406107 0.440607 0.070046
C22   C     C_R   0.903838 0.593318 0.552838 0.345412
C23   C     C_R   0.471751 0.510886 0.874409 -0.085706
C24   C     C_R   0.048132 0.590003 0.557061 0.390122
C25   C     C_R   0.577923 0.494966 0.299788 0.563451
C26   C     C_R   0.781998 0.399045 0.013477 0.301835
C27   C     C_R   0.619409 0.477467 0.184635 -0.011301
C28   C     C_R   0.225596 0.556444 0.872208 0.204223
C29   C     C_R   0.180963 0.566403 0.981835 0.338257
C30   C     C_R   0.274619 0.523545 0.034355 0.315015
C31   C     C_R   0.534375 0.478009 0.031420 -0.050166
C32   C     C_R   0.676513 0.436178 0.968108 0.092788
C33   C     C_R   0.713083 0.448386 0.861409 0.294487
C34   C     C_R   0.618644 0.524257 0.830722 0.163305
C35   C     C_R   0.511899 0.504014 0.138252 -0.143554
C36   C     C_R   0.755830 0.426201 0.121094 0.169622
Cu1   Cu    Cu3+1 0.359340 0.500010 0.500010 1.037510
Cu2   Cu    Cu3+1 0.640660 0.499990 0.499990 1.052487
H1    H     H_    0.015452 0.929806 0.498525 0.224770
H2    H     H_    0.954166 0.288912 0.990213 0.370934
H3    H     H_    0.029868 0.561853 0.860325 0.389897
H4    H     H_    0.258165 0.422693 0.145043 0.328123
H5    H     H_    0.011371 0.677418 0.001634 0.350956
H6    H     H_    0.997555 0.117628 0.619705 0.139383
H7    H     H_    0.810440 0.311621 0.364745 0.217496
H8    H     H_    0.316352 0.321133 0.355527 0.195134
H9    H     H_    0.414118 0.554163 0.186427 0.228645
H10   H     H_    0.119353 0.258835 0.692857 0.363849
H11   H     H_    0.745476 0.158405 0.548370 0.332056
H12   H     H_    0.854556 0.435514 0.725688 0.321282
H13   H     H_    0.174179 0.658996 0.632694 0.393769
N1    N     N_R   0.852480 0.498790 0.499000 -0.277425
N2    N     N_R   0.148360 0.498710 0.498970 -0.264726
O1    O     O_R   0.381190 0.680360 0.500010 -0.497943
O2    O     O_3   0.761564 0.104090 0.482285 -0.667178
O3    O     O_3   0.850327 0.415032 0.796034 -0.639282
O4    O     O_3   0.084819 0.685029 0.618581 -0.631638
O5    O     O_3   0.912787 0.344031 0.950652 -0.609098
O6    O     O_3   0.128288 0.578480 0.818150 -0.649715
O7    O     O_3   0.214520 0.503454 0.135800 -0.587459
O8    O     O_3   0.045489 0.615864 0.040133 -0.567004
O9    O     O_R   0.618760 0.680340 0.500000 -0.432906
O10   O     O_R   0.323240 0.499990 0.650990 -0.447561
O11   O     O_R   0.560820 0.499960 0.650980 -0.505849
O12   O     O_R   0.381240 0.319660 0.500000 -0.493462
O13   O     O_R   0.618810 0.319640 0.499990 -0.541132
O14   O     O_R   0.439180 0.500040 0.349020 -0.524128
O15   O     O_R   0.676760 0.500010 0.349010 -0.457619
O16   O     O_3   0.222231 0.229938 0.660084 -0.644536

loop_
_geom_bond_atom_site_label_1
_geom_bond_atom_site_label_2
_ccdc_geom_bond_type
Cu2   O11   S    
C28   C29   A    
C27   C35   A    
C25   O15   A    
C4    O10   A    
C26   O5    S    
C1    O9    A    
C26   C32   A    
C33   O3    S    
C29   C30   A    
C31   C35   A    
C20   N2    A    
C25   O14   A    
C31   C32   A    
Br4   C17   S    
C4    O11   A    
C8    C9    A    
Cu2   O13   S    
Br3   C22   S    
C12   C30   A    
C6    H6    S    
Br1   C36   S    
C22   N1    A    
C9    C10   A    
Br6   C34   S    
C23   C34   A    
Cu1   O10   S    
C11   C13   A    
C1    O1    A    
C15   C21   A    
C6    C7    A    
C16   O13   A    
C24   O4    S    
H12   O3    S    
H13   O4    S    
Cu2   O9    S    
C26   C36   A    
C17   C18   A    
C5    H1    S    
C32   C33   A    
C28   O6    S    
C18   C19   A    
C25   C27   S    
C24   N2    A    
C12   C31   A    
Br7   C11   S    
C10   C11   A    
C19   C20   A    
C5    C6    A    
Cu1   O14   S    
C2    C4    S    
C3    C5    A    
C2    C23   A    
Br5   C18   S    
H10   O16   S    
C33   C34   A    
C14   C16   S    
H11   O2    S    
Br2   C3    S    
C19   H8    S    
Cu1   Cu2   S    
C15   H7    S    
C21   N1    A    
Cu2   N1    S    
H4    O7    S    
C16   O12   A    
C27   C36   A    
C29   O8    S    
Cu1   O1    S    
C1    C10   S    
Cu2   O15   S    
C22   C24   A    
C3    C9    A    
C35   H9    S    
Cu1   N2    S    
C30   O7    S    
Cu1   O12   S    
C15   C17   A    
C13   O2    S    
C8    C14   A    
C13   C14   A    
C20   C21   A    
C2    C28   A    
C7    C8    A    
H3    O6    S    
C12   C23   A    
H5    O8    S    
H2    O5    S    
C7    O16   S    
