data_mof_unit_28783.cif
_audit_creation_date              2012-10-26T18:30:18-0400
_audit_creation_method            fapswitch 2.2
_symmetry_space_group_name_H-M    P1
_symmetry_Int_Tables_number       1
_space_group_crystal_system       triclinic
_cell_length_a                    10.61235
_cell_length_b                    13.024108
_cell_length_c                    11.671804
_cell_angle_alpha                 98.95112
_cell_angle_beta                  93.244341
_cell_angle_gamma                 90.496145
_cell_volume                      1590.78417875

loop_
_atom_site_label
_atom_site_type_symbol
_atom_type_description
_atom_site_fract_x
_atom_site_fract_y
_atom_site_fract_z
_atom_type_partial_charge
C1    C     C_R   0.503107 0.299375 0.479873 0.557001
C2    C     C_R   0.609315 0.586644 0.853306 0.046484
C3    C     C_R   0.551133 0.541769 0.155600 0.052745
C4    C     C_R   0.446439 0.459842 0.844302 0.042020
C5    C     C_R   0.542499 0.535945 0.033278 -0.028963
C6    C     C_R   0.454296 0.465919 0.966888 -0.024898
C7    C     C_R   0.259246 0.500128 0.500834 0.555895
C8    C     C_R   0.740722 0.499907 0.499230 0.536869
C9    C     C_3   0.046587 0.517518 0.611251 -0.107097
C10   C     C_3   0.953352 0.482491 0.389196 -0.119894
C11   C     C_3   0.960078 0.424583 0.556648 -0.116923
C12   C     C_R   0.504663 0.700436 0.520632 0.554523
C13   C     C_3   0.039777 0.575484 0.443848 -0.128036
C14   C     C_3   0.877438 0.499731 0.498180 0.046048
C15   C     C_3   0.122463 0.500327 0.502224 0.048454
C16   C     C_3   0.961576 0.592674 0.552811 -0.132509
C17   C     C_3   0.038320 0.407388 0.447780 -0.128777
C18   C     C_R   0.511162 0.813179 0.532745 0.002000
C19   C     C_R   0.515378 0.186696 0.471077 -0.004440
C20   C     C_R   0.544733 0.020171 0.351958 -0.150593
C21   C     C_R   0.484288 0.979417 0.651910 -0.153589
C22   C     C_R   0.531209 0.126994 0.362148 -0.208929
C23   C     C_R   0.514428 0.137835 0.571240 0.260895
C24   C     C_R   0.481377 0.872084 0.638390 -0.210876
C25   C     C_3   0.724972 0.785015 0.367849 0.010907
C26   C     C_3   0.812160 0.880846 0.374302 -0.286587
C27   C     C_3   0.950819 0.851494 0.383395 -0.483506
C28   C     C_3   0.641570 0.226704 0.720325 0.040650
C29   C     C_3   0.707524 0.147310 0.786044 -0.290043
C30   C     C_3   0.839393 0.185959 0.832890 -0.491898
C31   C     C_3   0.171089 0.333367 0.004405 0.002209
C32   C     C_3   0.148066 0.230655 0.049277 -0.260902
C33   C     C_3   0.033158 0.236194 0.122731 -0.492134
C34   C     C_R   0.546794 0.862880 0.440276 0.266598
C35   C     C_3   0.677270 0.770330 0.032348 -0.004188
C36   C     C_3   0.798443 0.834251 0.030791 -0.258620
C37   C     C_3   0.770660 0.948882 0.029230 -0.492969
C38   C     C_R   0.509821 0.029516 0.557784 0.013703
C39   C     C_R   0.533108 0.970475 0.449057 0.016664
C40   C     C_R   0.375514 0.404708 0.024170 0.223456
C41   C     C_R   0.618762 0.598804 0.975798 0.214203
C42   C     C_R   0.391579 0.412325 0.146836 0.043362
Cu1   Cu    Cu3+1 0.509400 0.507730 0.615930 0.922510
Cu2   Cu    Cu3+1 0.490600 0.492270 0.384070 0.934785
H1    H     H_    0.924054 0.362760 0.602535 0.100788
H2    H     H_    0.462925 0.022826 0.735256 0.168698
H3    H     H_    0.379204 0.407141 0.791425 0.195704
H4    H     H_    0.617710 0.594847 0.208047 0.176371
H5    H     H_    0.670604 0.631947 0.808596 0.135563
H6    H     H_    0.336048 0.363833 0.192621 0.129537
H7    H     H_    0.754662 0.725345 0.296450 0.170616
H8    H     H_    0.738237 0.750172 0.448958 0.117886
H9    H     H_    0.794104 0.917801 0.295602 0.166519
H10   H     H_    0.793054 0.938464 0.451758 0.154795
H11   H     H_    0.971585 0.817171 0.463606 0.145442
H12   H     H_    0.076146 0.636957 0.397754 0.113249
H13   H     H_    0.011245 0.922093 0.387089 0.152569
H14   H     H_    0.974011 0.794706 0.306550 0.147310
H15   H     H_    0.636737 0.301178 0.780811 0.173221
H16   H     H_    0.700139 0.243219 0.648497 0.116617
H17   H     H_    0.650789 0.133603 0.859581 0.170024
H18   H     H_    0.716663 0.072571 0.727016 0.157811
H19   H     H_    0.899321 0.195657 0.760150 0.147192
H20   H     H_    0.883929 0.128577 0.882847 0.149042
H21   H     H_    0.833923 0.261718 0.890891 0.143743
H22   H     H_    0.099069 0.339158 0.932898 0.148259
H23   H     H_    0.087515 0.531754 0.702099 0.121731
H24   H     H_    0.155179 0.401503 0.072552 0.115375
H25   H     H_    0.133341 0.166973 0.974230 0.165078
H26   H     H_    0.231815 0.211432 0.102858 0.165719
H27   H     H_    0.049063 0.296498 0.200568 0.146687
H28   H     H_    0.017175 0.159977 0.151398 0.144048
H29   H     H_    0.947606 0.255792 0.072158 0.147625
H30   H     H_    0.626474 0.801099 0.110760 0.182533
H31   H     H_    0.615374 0.780887 0.954569 0.109263
H32   H     H_    0.860951 0.826827 0.108559 0.172272
H33   H     H_    0.849074 0.803418 0.952224 0.164857
H34   H     H_    0.912498 0.468203 0.298318 0.120868
H35   H     H_    0.712174 0.958165 0.949614 0.145617
H36   H     H_    0.860709 0.993055 0.029783 0.143779
H37   H     H_    0.720034 0.981727 0.106949 0.139317
H38   H     H_    0.926656 0.668432 0.595426 0.096028
H39   H     H_    0.073671 0.331279 0.406880 0.102853
H40   H     H_    0.456114 0.835194 0.711127 0.138448
H41   H     H_    0.535985 0.163085 0.284883 0.140896
H42   H     H_    0.560165 0.976342 0.267315 0.150651
N1    N     N_R   0.523540 0.519360 0.790140 -0.285637
N2    N     N_R   0.476460 0.480640 0.209860 -0.273470
O1    O     O_R   0.506670 0.354460 0.582000 -0.468601
O2    O     O_3   0.515752 0.194603 0.682326 -0.558377
O3    O     O_3   0.291689 0.333209 0.957869 -0.583943
O4    O     O_3   0.709180 0.665725 0.037973 -0.602301
O5    O     O_R   0.493330 0.645540 0.418000 -0.459909
O6    O     O_R   0.490800 0.341410 0.386200 -0.519629
O7    O     O_R   0.509200 0.658590 0.613800 -0.524443
O8    O     O_R   0.324790 0.506500 0.597880 -0.506804
O9    O     O_R   0.675210 0.493500 0.402120 -0.515407
O10   O     O_R   0.308910 0.493440 0.402080 -0.508982
O11   O     O_R   0.691090 0.506560 0.597920 -0.517648
O12   O     O_3   0.596707 0.807851 0.342189 -0.585057

loop_
_geom_bond_atom_site_label_1
_geom_bond_atom_site_label_2
_ccdc_geom_bond_type
C31   H22   S    
C35   H30   S    
C1    O1    A    
C7    O10   A    
C30   H20   S    
C35   C36   S    
Cu1   Cu2   S    
C25   H7    S    
C10   H34   S    
C4    N1    A    
C7    O8    A    
C37   H35   S    
C35   H31   S    
C26   C27   S    
Cu1   O1    S    
C18   C24   A    
C36   C37   S    
C9    C16   S    
Cu1   O11   S    
C36   H33   S    
C38   C39   A    
C11   C14   S    
C27   H11   S    
C2    C41   A    
C3    H4    S    
C22   H41   S    
Cu2   O5    S    
C36   H32   S    
C33   H28   S    
Cu2   O10   S    
C21   C38   A    
C1    O6    A    
C20   H42   S    
Cu1   O7    S    
C12   O7    A    
C13   H12   S    
C35   O4    S    
C40   C42   A    
C30   H19   S    
C37   H37   S    
C26   H10   S    
C28   H16   S    
C31   H24   S    
C37   H36   S    
C29   H17   S    
C1    C19   S    
C34   C39   A    
C19   C22   A    
C4    C6    A    
C10   C14   S    
C20   C39   A    
C32   H26   S    
C25   C26   S    
C27   H14   S    
C17   H39   S    
C19   C23   A    
C8    O9    A    
C9    H23   S    
C29   C30   S    
C2    H5    S    
C9    C11   S    
Cu2   O9    S    
C25   O12   S    
C34   O12   S    
C31   C32   S    
C16   H38   S    
Cu1   O8    S    
C23   O2    S    
C2    N1    A    
C18   C34   A    
C42   H6    S    
C33   H29   S    
C20   C22   A    
C31   O3    S    
C13   C15   S    
C27   H13   S    
C14   C16   S    
C12   O5    A    
C11   H1    S    
C42   N2    A    
C21   C24   A    
C28   C29   S    
C26   H9    S    
C21   H2    S    
C28   H15   S    
C15   C17   S    
C5    C41   A    
C29   H18   S    
C11   C17   S    
C8    C14   S    
C3    N2    A    
C8    O11   A    
C3    C5    A    
C10   C13   S    
C32   H25   S    
C23   C38   A    
Cu1   N1    S    
C32   C33   S    
C24   H40   S    
C25   H8    S    
C5    C6    A    
C7    C15   S    
C6    C40   A    
C40   O3    S    
C9    C15   S    
C30   H21   S    
Cu2   O6    S    
C33   H27   S    
C41   O4    S    
C13   C16   S    
C12   C18   S    
C28   O2    S    
C10   C17   S    
Cu2   N2    S    
C4    H3    S    
