data_mof_unit_51240.cif
_audit_creation_date              2012-12-11T15:50:04-0500
_audit_creation_method            fapswitch 2.2
_symmetry_space_group_name_H-M    P1
_symmetry_Int_Tables_number       1
_space_group_crystal_system       triclinic
_cell_length_a                    16.565085
_cell_length_b                    7.241332
_cell_length_c                    15.266199
_cell_angle_alpha                 89.999984
_cell_angle_beta                  94.682702
_cell_angle_gamma                 89.999974
_cell_volume                      1825.11814177

loop_
_atom_site_label
_atom_site_type_symbol
_atom_type_description
_atom_site_fract_x
_atom_site_fract_y
_atom_site_fract_z
_atom_type_partial_charge
O1    O     O_R   0.663460 0.361880 0.165960 -0.505667
O2    O     O_R   0.336540 0.638120 0.834040 -0.507303
O3    O     O_R   0.836540 0.861880 0.334040 -0.505693
O4    O     O_R   0.163460 0.138120 0.665960 -0.507299
O5    O     O_R   0.827100 0.690020 0.163730 -0.517639
O6    O     O_R   0.172900 0.309980 0.836270 -0.527493
O7    O     O_R   0.672900 0.190020 0.336270 -0.517637
O8    O     O_R   0.327100 0.809980 0.663730 -0.527496
C1    C     C_R   0.853203 0.522999 0.143421 0.781243
C2    C     C_R   0.146874 0.477045 0.856663 0.764250
C3    C     C_R   0.646797 0.022999 0.356578 0.781234
C4    C     C_R   0.353126 0.977045 0.643336 0.764248
O9    O     O_R   0.663490 0.691490 0.155490 -0.544790
O10   O     O_R   0.336510 0.308510 0.844510 -0.536076
O11   O     O_R   0.836510 0.191490 0.344510 -0.544786
O12   O     O_R   0.163490 0.808510 0.655490 -0.536076
O13   O     O_R   0.671770 0.863400 0.325740 -0.538657
O14   O     O_R   0.328230 0.136600 0.674260 -0.533084
O15   O     O_R   0.828230 0.363400 0.174260 -0.538652
O16   O     O_R   0.171770 0.636600 0.825740 -0.533086
C5    C     C_R   0.634378 0.522667 0.135316 0.765167
C6    C     C_R   0.365556 0.477330 0.864776 0.775510
C7    C     C_R   0.865622 0.022667 0.364683 0.765161
C8    C     C_R   0.134444 0.977330 0.635224 0.775510
O17   O     O_3   0.752910 0.528900 0.305870 -0.374610
O18   O     O_3   0.247090 0.471100 0.694130 -0.374246
O19   O     O_3   0.747090 0.028900 0.194130 -0.374591
O20   O     O_3   0.252910 0.971100 0.805870 -0.374249
V1    V     V_3+5 0.749460 0.803130 0.239640 1.622015
V2    V     V_3+5 0.250540 0.196870 0.760360 1.633856
V3    V     V_3+5 0.750540 0.303130 0.260360 1.622035
V4    V     V_3+5 0.249460 0.696870 0.739640 1.633851
C9    C     C_R   0.937032 0.125714 0.506043 -0.290378
C10   C     C_R   0.063214 0.874436 0.493679 -0.258328
C11   C     C_R   0.562969 0.625712 0.993956 -0.290403
C12   C     C_R   0.436786 0.374438 0.006321 -0.258344
C13   C     C_R   0.999038 0.114689 0.574449 0.489101
C14   C     C_R   0.001044 0.884865 0.425427 0.425035
C15   C     C_R   0.500962 0.614687 0.925550 0.489101
C16   C     C_R   0.498955 0.384867 0.074574 0.425138
C17   C     C_R   0.064086 0.988893 0.567870 -0.211470
C18   C     C_R   0.936100 0.011132 0.431884 -0.216259
C19   C     C_R   0.435914 0.488893 0.932130 -0.211479
C20   C     C_R   0.563900 0.511132 0.068116 -0.216296
C21   C     C_1   0.415808 0.986363 0.581209 -0.142924
C22   C     C_1   0.583946 0.013866 0.418512 -0.098980
C23   C     C_1   0.084192 0.486363 0.918791 -0.142920
C24   C     C_1   0.916054 0.513866 0.081488 -0.098970
C25   C     C_1   0.468644 0.994945 0.529907 0.050494
C26   C     C_1   0.531048 0.005352 0.469743 0.070793
C27   C     C_1   0.031355 0.494945 0.970093 0.050492
C28   C     C_1   0.968952 0.505352 0.030256 0.070794
H1    H     H_    0.887430 0.221296 0.511673 0.187874
H2    H     H_    0.112751 0.778640 0.488122 0.187640
H3    H     H_    0.612571 0.721293 0.988326 0.187898
H4    H     H_    0.387248 0.278643 0.011879 0.187633
S1    S     S_3+6 0.989451 0.251742 0.669223 0.004661
O21   O     O_2   0.043620 0.417709 0.666248 -0.339421
O22   O     O_2   0.903337 0.315599 0.672280 -0.324977
O23   O     O_3   0.016325 0.127137 0.759952 -0.512811
H5    H     H_    0.995432 0.197490 0.808929 0.356014
S2    S     S_3+6 0.009627 0.743066 0.331906 0.032654
O24   O     O_2   0.985333 0.849944 0.249561 -0.319511
O25   O     O_2   0.095284 0.676784 0.328089 -0.308627
O26   O     O_3   0.948450 0.558910 0.337451 -0.492191
H6    H     H_    0.967034 0.496540 0.393244 0.329138
S3    S     S_3+6 0.510550 0.751736 0.830776 0.004674
O27   O     O_2   0.456381 0.917705 0.833749 -0.339422
O28   O     O_2   0.596664 0.815592 0.827718 -0.324966
O29   O     O_3   0.483676 0.627129 0.740047 -0.512807
H7    H     H_    0.504562 0.697491 0.691068 0.356011
S4    S     S_3+6 0.490372 0.243071 0.168096 0.032611
O30   O     O_2   0.514669 0.349947 0.250441 -0.319518
O31   O     O_2   0.404715 0.176794 0.171914 -0.308672
O32   O     O_3   0.551549 0.058914 0.162548 -0.492224
H8    H     H_    0.532892 0.996409 0.106815 0.329192

loop_
_geom_bond_atom_site_label_1
_geom_bond_atom_site_label_2
_ccdc_geom_bond_type
O17   V3    S    
O1    C5    A    
O19   V1    S    
O13   V1    S    
O3    C7    A    
O15   V3    S    
O7    C3    A    
C7    C18   S    
C9    C18   A    
O9    V1    S    
C14   C18   A    
C24   C28   T    
O4    C8    A    
S1    O22   D    
O1    V3    S    
O2    V4    S    
O3    V1    S    
S2    O25   D    
C1    O15   A    
C2    O16   A    
O2    C6    A    
O29   H7    S    
O14   V2    S    
O11   C7    A    
O12   C8    A    
C8    C17   S    
C10   C17   A    
O10   V2    S    
S4    O32   S    
O5    V1    S    
C9    H1    S    
O7    V3    S    
C11   H3    S    
S3    O27   D    
O8    V4    S    
C12   C16   A    
S4    O31   D    
O18   V4    S    
S4    O30   D    
S1    O23   S    
C23   C27   T    
C9    C13   A    
C27   C28   S    
O23   H5    S    
S3    O28   D    
C11   C15   A    
O32   H8    S    
O5    C1    A    
S2    O24   D    
C12   H4    S    
C5    C20   S    
C6    C19   S    
C21   C25   T    
O8    C4    A    
O9    C5    A    
C11   C20   A    
O6    V2    S    
C10   H2    S    
O16   V4    S    
C3    O13   A    
C16   S4    S    
S2    O26   S    
C10   C14   A    
C15   S3    S    
C4    C21   S    
C12   C19   A    
O6    C2    A    
C15   C19   A    
O11   V3    S    
O12   V4    S    
C22   C26   T    
S3    O29   S    
O10   C6    A    
O20   V2    S    
S1    O21   D    
O26   H6    S    
C13   C17   A    
C13   S1    S    
C16   C20   A    
C1    C24   S    
C25   C26   S    
C4    O14   A    
C2    C23   S    
C3    C22   S    
O4    V2    S    
C14   S2    S    
