data_mof_unit_47113.cif
_audit_creation_date              2013-03-05T15:51:27-0500
_audit_creation_method            fapswitch 2.2
_symmetry_space_group_name_H-M    P1
_symmetry_Int_Tables_number       1
_space_group_crystal_system       triclinic
_cell_length_a                    19.088285
_cell_length_b                    10.985419
_cell_length_c                    18.761595
_cell_angle_alpha                 90.397659
_cell_angle_beta                  90.567555
_cell_angle_gamma                 90.467842
_cell_volume                      3933.7504081

loop_
_atom_site_label
_atom_site_type_symbol
_atom_site_description
_atom_site_fract_x
_atom_site_fract_y
_atom_site_fract_z
_atom_type_partial_charge
O1    O     O_R   0.957020 0.451640 0.669920 -0.513990
O2    O     O_R   0.042980 0.451640 0.330080 -0.519903
O3    O     O_R   0.457020 0.951640 0.669920 -0.517401
O4    O     O_R   0.542980 0.951640 0.330080 -0.516411
O5    O     O_R   0.821450 0.543440 0.674610 -0.497122
O6    O     O_R   0.178550 0.543440 0.325390 -0.496477
O7    O     O_R   0.321450 0.043440 0.674610 -0.496455
O8    O     O_R   0.678550 0.043440 0.325390 -0.485365
C1    C     C_R   0.760424 0.534685 0.646591 0.525978
C2    C     C_R   0.238767 0.532346 0.353988 0.537564
C3    C     C_R   0.260022 0.035131 0.646549 0.526497
C4    C     C_R   0.738444 0.028860 0.355399 0.541932
O9    O     O_R   0.715320 0.458650 0.668100 -0.539891
O10   O     O_R   0.284680 0.458650 0.331900 -0.527796
O11   O     O_R   0.215320 0.958650 0.668100 -0.535288
O12   O     O_R   0.784680 0.958650 0.331900 -0.540935
O13   O     O_R   0.737170 0.209590 0.674530 -0.506203
O14   O     O_R   0.262830 0.209590 0.325470 -0.488375
O15   O     O_R   0.237170 0.709590 0.674530 -0.509706
O16   O     O_R   0.762830 0.709590 0.325470 -0.491270
C5    C     C_R   0.772993 0.125910 0.646317 0.542907
C6    C     C_R   0.208392 0.172619 0.361108 0.552373
C7    C     C_R   0.273219 0.624824 0.646510 0.536798
C8    C     C_R   0.709055 0.671040 0.361257 0.555666
O17   O     O_R   0.832710 0.092740 0.669580 -0.514950
O18   O     O_R   0.167290 0.092740 0.330420 -0.501242
O19   O     O_R   0.332710 0.592740 0.669580 -0.505398
O20   O     O_R   0.667290 0.592740 0.330420 -0.502419
O21   O     O_R   0.946290 0.250060 0.676040 -0.504930
O22   O     O_R   0.053710 0.250060 0.323960 -0.523837
O23   O     O_R   0.446290 0.750060 0.676040 -0.504530
O24   O     O_R   0.553710 0.750060 0.323960 -0.523758
C9    C     C_R   0.973386 0.344294 0.648444 0.529360
C10   C     C_R   0.030036 0.347951 0.354455 0.524504
C11   C     C_R   0.472983 0.844473 0.647927 0.525273
C12   C     C_R   0.528652 0.847547 0.353531 0.526806
O25   O     O_R   0.956270 0.452200 0.830470 -0.480545
O26   O     O_R   0.043730 0.452200 0.169530 -0.465040
O27   O     O_R   0.456270 0.952200 0.830470 -0.482211
O28   O     O_R   0.543730 0.952200 0.169530 -0.470872
O29   O     O_R   0.820760 0.543950 0.823440 -0.465351
O30   O     O_R   0.179240 0.543950 0.176560 -0.467429
O31   O     O_R   0.320760 0.043950 0.823440 -0.456987
O32   O     O_R   0.679240 0.043950 0.176560 -0.469264
C13   C     C_R   0.761680 0.536183 0.851523 0.558173
C14   C     C_R   0.240481 0.534672 0.149138 0.561785
C15   C     C_R   0.261882 0.034215 0.852467 0.554521
C16   C     C_R   0.740386 0.033994 0.148920 0.567982
O33   O     O_R   0.714570 0.459210 0.828640 -0.462740
O34   O     O_R   0.285430 0.459210 0.171360 -0.516214
O35   O     O_R   0.214570 0.959210 0.828640 -0.472174
O36   O     O_R   0.785430 0.959210 0.171360 -0.516543
O37   O     O_R   0.736470 0.210100 0.823360 -0.440935
O38   O     O_R   0.263530 0.210100 0.176640 -0.468925
O39   O     O_R   0.236470 0.710100 0.823360 -0.440190
O40   O     O_R   0.763530 0.710100 0.176640 -0.472060
C17   C     C_R   0.773147 0.131095 0.854971 0.551150
C18   C     C_R   0.226612 0.126758 0.146405 0.618880
C19   C     C_R   0.272978 0.631841 0.855169 0.552531
C20   C     C_R   0.726058 0.628589 0.145717 0.621178
O41   O     O_R   0.831960 0.093290 0.830130 -0.524934
O42   O     O_R   0.168040 0.093290 0.169870 -0.466981
O43   O     O_R   0.331960 0.593290 0.830130 -0.524724
O44   O     O_R   0.668040 0.593290 0.169870 -0.465726
O45   O     O_R   0.945600 0.250580 0.824860 -0.514326
O46   O     O_R   0.054400 0.250580 0.175140 -0.526906
O47   O     O_R   0.445600 0.750580 0.824860 -0.514744
O48   O     O_R   0.554400 0.750580 0.175140 -0.526288
C21   C     C_R   0.937902 0.350470 0.860493 0.554362
C22   C     C_R   0.028289 0.346204 0.147714 0.557287
C23   C     C_R   0.437708 0.850589 0.860516 0.552263
C24   C     C_R   0.527258 0.846338 0.148372 0.553063
Cr1   Cr    Cr6+3 0.885860 0.491680 0.749630 1.077175
Cr2   Cr    Cr6+3 0.114140 0.491680 0.250370 1.085620
Cr3   Cr    Cr6+3 0.385860 0.991680 0.749630 1.077181
Cr4   Cr    Cr6+3 0.614140 0.991680 0.250370 1.086848
Cr5   Cr    Cr6+3 0.730490 0.332970 0.748720 1.066718
Cr6   Cr    Cr6+3 0.269510 0.332970 0.251280 1.062545
Cr7   Cr    Cr6+3 0.230490 0.832970 0.748720 1.067854
Cr8   Cr    Cr6+3 0.769510 0.832970 0.251280 1.060113
Cr9   Cr    Cr6+3 0.887570 0.179310 0.750150 1.017794
Cr10  Cr    Cr6+3 0.112430 0.179310 0.249850 1.046003
Cr11  Cr    Cr6+3 0.387570 0.679310 0.750150 1.018866
Cr12  Cr    Cr6+3 0.612430 0.679310 0.249850 1.046214
O49   O     O_3   0.834640 0.334650 0.749500 -0.291900
O50   O     O_3   0.165360 0.334650 0.250500 -0.308178
O51   O     O_3   0.334640 0.834650 0.749500 -0.292204
O52   O     O_3   0.665360 0.834650 0.250500 -0.305310
C25   C     C_R   0.745663 0.056389 0.429783 0.024624
C26   C     C_R   0.240881 0.105222 0.583082 0.005736
C27   C     C_R   0.243678 0.562916 0.427654 0.036455
C28   C     C_R   0.744301 0.602590 0.582189 0.014401
C29   C     C_R   0.706481 0.147214 0.461080 0.027933
C30   C     C_R   0.290086 0.172533 0.545028 0.012686
C31   C     C_R   0.290106 0.651999 0.451604 0.003244
C32   C     C_R   0.797973 0.648365 0.539979 -0.000168
C33   C     C_R   0.711289 0.164416 0.533795 0.020107
C34   C     C_R   0.278444 0.199486 0.473808 0.023497
C35   C     C_R   0.297716 0.671690 0.523792 0.049154
C36   C     C_R   0.786114 0.673053 0.468969 0.002658
C37   C     C_R   0.782265 0.984832 0.546325 -0.148096
C38   C     C_R   0.162431 0.115020 0.479880 -0.166940
C39   C     C_R   0.223502 0.498614 0.549293 -0.157305
C40   C     C_R   0.663811 0.627447 0.482016 -0.159439
C41   C     C_R   0.781372 0.972295 0.473101 -0.145101
C42   C     C_R   0.173884 0.088254 0.551822 -0.161742
C43   C     C_R   0.212975 0.481882 0.476326 -0.115392
C44   C     C_R   0.675530 0.602804 0.554271 -0.158190
C45   C     C_3   0.710129 0.280453 0.446462 -0.271543
C46   C     C_3   0.366000 0.150800 0.533595 -0.252392
C47   C     C_3   0.290346 0.785198 0.436108 -0.282883
C48   C     C_3   0.869337 0.600043 0.525622 -0.252822
C49   C     C_3   0.716103 0.299617 0.526152 -0.243910
C50   C     C_3   0.352970 0.178297 0.455421 -0.258448
C51   C     C_3   0.298714 0.806556 0.515649 -0.262662
C52   C     C_3   0.856209 0.628024 0.447488 -0.266254
C53   C     C_R   0.750849 0.086150 0.576857 0.018015
C54   C     C_R   0.217324 0.160750 0.438388 -0.003973
C55   C     C_R   0.261397 0.600277 0.572756 0.033141
C56   C     C_R   0.720345 0.654605 0.437486 0.013717
H1    H     H_    0.813260 0.922627 0.577966 0.139816
H2    H     H_    0.112650 0.090676 0.455535 0.156601
H3    H     H_    0.200183 0.436044 0.586772 0.112981
H4    H     H_    0.611716 0.616803 0.459896 0.150384
H5    H     H_    0.810970 0.898935 0.450191 0.145025
H6    H     H_    0.132682 0.041646 0.580235 0.139718
H7    H     H_    0.180692 0.406440 0.457689 0.115080
H8    H     H_    0.632149 0.571368 0.586076 0.129760
H9    H     H_    0.239401 0.817436 0.414327 0.160739
H10   H     H_    0.873719 0.500948 0.536396 0.150806
H11   H     H_    0.660368 0.315257 0.423398 0.157734
H12   H     H_    0.381473 0.055138 0.543286 0.157416
H13   H     H_    0.758223 0.307692 0.417369 0.145253
H14   H     H_    0.399045 0.220518 0.561231 0.146757
H15   H     H_    0.337115 0.813648 0.405361 0.147075
H16   H     H_    0.910926 0.658071 0.550469 0.156184
H17   H     H_    0.767990 0.336958 0.543165 0.142794
H18   H     H_    0.379415 0.262578 0.437352 0.137512
H19   H     H_    0.350238 0.846823 0.531016 0.136087
H20   H     H_    0.889929 0.702847 0.427221 0.128754
C57   C     C_R   0.005585 0.348067 0.429536 -0.039198
C58   C     C_R   0.009819 0.329801 0.579537 -0.043440
C59   C     C_R   0.500896 0.846847 0.427359 -0.042918
C60   C     C_R   0.507297 0.831200 0.577589 -0.044993
C61   C     C_R   0.964772 0.134578 0.421695 -0.088319
C62   C     C_R   0.990204 0.106802 0.566885 -0.077685
C63   C     C_R   0.464569 0.631879 0.420449 -0.087804
C64   C     C_R   0.489224 0.607319 0.566044 -0.079730
C65   C     C_R   0.956050 0.021008 0.453088 -0.125277
C66   C     C_R   0.970386 0.006519 0.525224 -0.135598
C67   C     C_R   0.456566 0.518897 0.452452 -0.117382
C68   C     C_R   0.470316 0.506039 0.524826 -0.128960
C69   C     C_R   0.996195 0.224413 0.536938 0.008548
C70   C     C_R   0.988945 0.236016 0.462147 -0.011567
C71   C     C_R   0.494216 0.724648 0.535574 0.003880
C72   C     C_R   0.486699 0.734710 0.460607 -0.015535
H21   H     H_    0.951737 0.142440 0.365687 0.141511
H22   H     H_    0.003776 0.089872 0.621969 0.136600
H23   H     H_    0.451969 0.638540 0.364267 0.138740
H24   H     H_    0.502964 0.591167 0.621144 0.135940
C73   C     C_R   0.032984 0.437223 0.547079 -0.000908
C74   C     C_R   0.021057 0.453049 0.473666 0.008739
C75   C     C_R   0.526567 0.940051 0.543690 0.004005
C76   C     C_R   0.511889 0.953398 0.470665 0.010916
C77   C     C_R   0.063001 0.533225 0.588221 -0.082529
C78   C     C_R   0.024735 0.574815 0.447973 -0.074473
C79   C     C_R   0.553518 0.040569 0.583125 -0.067673
C80   C     C_R   0.508706 0.074093 0.443901 -0.074229
C81   C     C_R   0.073240 0.648063 0.559269 -0.119179
C82   C     C_R   0.051810 0.669851 0.489807 -0.141533
C83   C     C_R   0.552913 0.156961 0.554666 -0.117656
C84   C     C_R   0.529588 0.173984 0.485294 -0.138181
H25   H     H_    0.003003 0.601363 0.397211 0.153427
H26   H     H_    0.078197 0.519394 0.643352 0.131522
H27   H     H_    0.486175 0.094426 0.392365 0.148953
H28   H     H_    0.571980 0.029959 0.637504 0.135092
H29   H     H_    0.095357 0.721124 0.591555 0.129349
H30   H     H_    0.055324 0.760959 0.468408 0.112661
H31   H     H_    0.569333 0.234135 0.587012 0.111468
H32   H     H_    0.527041 0.264808 0.463561 0.103193
C85   C     C_R   0.755875 0.088403 0.080197 -0.011702
C86   C     C_R   0.255984 0.088699 0.923750 -0.055583
C87   C     C_R   0.255812 0.590169 0.080578 -0.008053
C88   C     C_R   0.757608 0.597071 0.921087 -0.012408
C89   C     C_R   0.806842 0.033450 0.038817 -0.050214
C90   C     C_R   0.191567 0.070918 0.954923 0.047992
C91   C     C_R   0.306654 0.536552 0.038940 -0.054381
C92   C     C_R   0.693517 0.617370 0.951181 -0.007509
C93   C     C_R   0.806337 0.043557 0.966818 -0.076704
C94   C     C_R   0.184315 0.074909 0.027341 0.061280
C95   C     C_R   0.305813 0.547559 0.967133 -0.080998
C96   C     C_R   0.684906 0.618236 0.022216 -0.003080
C97   C     C_R   0.710657 0.183957 0.971975 0.158729
C98   C     C_R   0.308622 0.100531 0.044520 0.155146
C99   C     C_R   0.208531 0.686220 0.972639 0.147449
C100  C     C_R   0.807533 0.599024 0.043495 0.168308
C101  C     C_R   0.713426 0.177593 0.048405 0.160078
C102  C     C_R   0.316420 0.112818 0.968968 0.122965
C103  C     C_R   0.213365 0.679809 0.049324 0.163671
C104  C     C_R   0.818001 0.610191 0.967985 0.134653
C105  C     C_3   0.832547 0.905575 0.034243 -0.195810
C106  C     C_3   0.125766 0.140762 0.942743 -0.262918
C107  C     C_3   0.333307 0.409567 0.034002 -0.192645
C108  C     C_3   0.617672 0.632406 0.934912 -0.234731
C109  C     C_3   0.832513 0.919445 0.954049 -0.211594
C110  C     C_3   0.117631 0.143631 0.022753 -0.238859
C111  C     C_3   0.332461 0.424030 0.953950 -0.209290
C112  C     C_3   0.608484 0.637707 0.016151 -0.218525
C113  C     C_R   0.756949 0.109673 0.930332 -0.039488
C114  C     C_R   0.241232 0.091738 0.073182 -0.000262
C115  C     C_R   0.256063 0.612768 0.930781 -0.035207
C116  C     C_R   0.739218 0.604296 0.070957 0.012686
H33   H     H_    0.792673 0.839570 0.052762 0.146143
H34   H     H_    0.084638 0.085331 0.915100 0.193304
H35   H     H_    0.294273 0.341994 0.052685 0.151282
H36   H     H_    0.592975 0.551373 0.909056 0.215345
H37   H     H_    0.885901 0.896115 0.057688 0.215956
H38   H     H_    0.135472 0.232098 0.919405 0.111103
H39   H     H_    0.387050 0.402400 0.056751 0.217435
H40   H     H_    0.606666 0.720290 0.908231 0.117528
H41   H     H_    0.885964 0.921486 0.931134 0.216995
H42   H     H_    0.122878 0.236571 0.045828 0.103115
H43   H     H_    0.385690 0.426976 0.930518 0.215994
H44   H     H_    0.596771 0.729800 0.035782 0.112677
C117  C     C_R   0.994154 0.341567 0.078949 0.048943
C118  C     C_R   0.955520 0.341815 0.935107 -0.004575
C119  C     C_R   0.491010 0.843023 0.080332 0.045719
C120  C     C_R   0.454347 0.842605 0.935586 -0.010167
C121  C     C_R   0.004066 0.443193 0.036630 0.113994
C122  C     C_R   0.985789 0.442178 0.966712 0.075060
C123  C     C_R   0.501667 0.944292 0.037695 0.113120
C124  C     C_R   0.484109 0.943354 0.967445 0.075323
C125  C     C_R   0.941240 0.238804 0.976946 -0.167980
C126  C     C_R   0.959683 0.238926 0.049817 -0.147936
C127  C     C_R   0.439688 0.739796 0.977504 -0.170812
C128  C     C_R   0.456914 0.740264 0.050770 -0.151900
C129  C     C_3   0.070327 0.511292 0.022243 -0.242645
C130  C     C_3   0.050152 0.507637 0.944594 -0.220128
C131  C     C_3   0.568653 0.010791 0.024065 -0.245296
C132  C     C_3   0.549318 0.007629 0.946213 -0.224514
H45   H     H_    0.920458 0.157426 0.952303 0.155390
H46   H     H_    0.951608 0.157910 0.081330 0.141271
H47   H     H_    0.420129 0.657911 0.952496 0.156080
H48   H     H_    0.449339 0.658770 0.081980 0.142044
H49   H     H_    0.118435 0.458968 0.034904 0.087881
H50   H     H_    0.035756 0.596685 0.922251 0.269865
H51   H     H_    0.616145 0.956980 0.037118 0.090897
H52   H     H_    0.536232 0.097022 0.923619 0.265695
H53   H     H_    0.067911 0.603800 0.044803 0.251697
H54   H     H_    0.085464 0.451093 0.911409 0.125918
H55   H     H_    0.566798 0.102753 0.047487 0.246244
H56   H     H_    0.584688 0.950390 0.913508 0.123293
N1    N     N_R   0.662833 0.266030 0.938320 0.109655
O53   O     O_R   0.622493 0.231166 0.885717 -0.347502
O54   O     O_R   0.656974 0.375763 0.962501 -0.313471
N2    N     N_R   0.367359 0.094369 0.092782 0.111024
O55   O     O_R   0.373483 0.997675 0.131887 -0.324205
O56   O     O_R   0.398019 0.194035 0.114861 -0.298793
N3    N     N_R   0.154024 0.758381 0.939462 0.087063
O57   O     O_R   0.124048 0.722755 0.880349 -0.344066
O58   O     O_R   0.123461 0.844671 0.974618 -0.293948
N4    N     N_R   0.864646 0.579945 0.092294 0.104128
O59   O     O_R   0.866869 0.477186 0.126201 -0.329808
O60   O     O_R   0.897838 0.673264 0.119741 -0.289575
N5    N     N_R   0.676952 0.262101 0.093902 0.102998
O61   O     O_R   0.708118 0.304539 0.150981 -0.304495
O62   O     O_R   0.612526 0.293656 0.081290 -0.292672
N6    N     N_R   0.381365 0.161755 0.940356 0.068020
O63   O     O_R   0.382412 0.212927 0.878065 -0.348063
O64   O     O_R   0.433724 0.187595 0.982622 -0.318536
N7    N     N_R   0.182659 0.769099 0.095688 0.106681
O65   O     O_R   0.115491 0.771037 0.106300 -0.289206
O66   O     O_R   0.223375 0.828287 0.140084 -0.315140
N8    N     N_R   0.884785 0.655717 0.942005 0.060090
O67   O     O_R   0.889291 0.704526 0.879247 -0.343652
O68   O     O_R   0.934404 0.684581 0.987019 -0.319077
H57   H     H_    0.793017 0.861269 0.925885 0.153725
H58   H     H_    0.072791 0.088013 0.041724 0.193234
H59   H     H_    0.292723 0.365748 0.926165 0.158567
H60   H     H_    0.577154 0.561240 0.038152 0.210050
H61   H     H_    0.669966 0.346319 0.548724 0.152647
H62   H     H_    0.359239 0.097609 0.419988 0.148325
H63   H     H_    0.252309 0.850192 0.539794 0.155185
H64   H     H_    0.853089 0.545255 0.413077 0.156555
H65   H     H_    0.939061 0.943666 0.421105 0.114435
H66   H     H_    0.965755 0.917402 0.549102 0.106544
H67   H     H_    0.440787 0.441048 0.420513 0.113473
H68   H     H_    0.466353 0.417372 0.549246 0.104684

loop_
_geom_bond_atom_site_label_1
_geom_bond_atom_site_label_2
_geom_bond_distance
_ccdc_geom_bond_type
C80   H27   1.079852 S    
O4    C12   1.257080 A    
O39   C19   1.260773 A    
C40   C44   1.400401 A    
C39   H3    1.083041 S    
Cr7   O51   1.987890 S    
C118  C125  1.408045 A    
C82   H30   1.082785 S    
C107  H35   1.108523 S    
O25   C21   1.302064 A    
C31   C35   1.376118 A    
C57   C70   1.413623 A    
C34   C50   1.486914 S    
N7    O65   1.299771 A    
O21   C9    1.269332 A    
C90   C106  1.493656 S    
N8    O67   1.300496 A    
C64   H24   1.080222 S    
C1    O9    1.265537 A    
O44   Cr12  2.073559 S    
C5    C53   1.430350 S    
C62   C66   1.393950 A    
C3    O11   1.263840 A    
C50   H62   1.112238 S    
C4    O12   1.257893 A    
O2    C10   1.254001 A    
O17   Cr9   2.053881 S    
C77   C81   1.390076 A    
C17   C113  1.470415 S    
C8    C56   1.456896 S    
O16   Cr8   1.953881 S    
C45   H13   1.112639 S    
C27   C43   1.408241 A    
C76   C80   1.422585 A    
C79   C83   1.389124 A    
O13   C5    1.266293 A    
O28   Cr4   2.058097 S    
O12   Cr8   2.057591 S    
C97   N1    1.433489 S    
C90   C94   1.367506 A    
O15   C7    1.275857 A    
C121  C122  1.353985 A    
O46   Cr10  1.950207 S    
C61   H21   1.081656 S    
O14   Cr6   1.953881 S    
C129  H49   1.111875 S    
C106  H34   1.111690 S    
C20   C116  1.450695 S    
C127  H47   1.074186 S    
C51   H19   1.109771 S    
C2    C27   1.422038 S    
C49   H17   1.111939 S    
C121  C129  1.492112 S    
C103  N7    1.438741 S    
C6    C54   1.465042 S    
O36   Cr8   2.072399 S    
C99   N3    1.451160 S    
Cr12  O52   1.975933 S    
N3    O58   1.296891 A    
C67   H67   1.079945 S    
N4    O60   1.301206 A    
C68   H68   1.081703 S    
C17   O41   1.290470 A    
C19   O43   1.297347 A    
C41   H5    1.077422 S    
C20   O44   1.259983 A    
C94   C114  1.389333 A    
C37   C53   1.391191 A    
Cr8   O52   1.988193 S    
O46   C22   1.275797 A    
C33   C53   1.403687 A    
C35   C55   1.397755 A    
C100  C116  1.408327 A    
C16   O36   1.265151 A    
C109  H57   1.111554 S    
C71   C72   1.417556 A    
O27   C23   1.302126 A    
C39   C43   1.392374 A    
O31   C15   1.257804 A    
C73   C77   1.416475 A    
O32   C16   1.287034 A    
C13   C88   1.465438 S    
C95   C115  1.373030 A    
C119  C123  1.389542 A    
C10   C57   1.488334 S    
O47   Cr11  1.935075 S    
C85   C101  1.408492 A    
C21   C118  1.440429 S    
C58   C73   1.402048 A    
C117  C126  1.405442 A    
O24   C12   1.299560 A    
C94   C110  1.487289 S    
O30   C14   1.286365 A    
N1    O53   1.299429 A    
C104  N8    1.455372 S    
C28   C32   1.393848 A    
O32   Cr4   1.955765 S    
C96   C116  1.385728 A    
O7    C3    1.282872 A    
C28   C44   1.408560 A    
O11   Cr7   2.074780 S    
C88   C104  1.448910 A    
C24   C119  1.446049 S    
N2    O56   1.300496 A    
C64   C71   1.416497 A    
O27   Cr3   2.067138 S    
O3    Cr3   2.077464 S    
C125  C126  1.408380 A    
C46   C50   1.518018 S    
O8    C4    1.281099 A    
C11   C60   1.485872 S    
Cr5   O49   1.987890 S    
C57   C74   1.441907 A    
C129  C130  1.503357 S    
C130  H54   1.112470 S    
C83   H31   1.081674 S    
C48   H16   1.110923 S    
C1    C28   1.456032 S    
C81   H29   1.082574 S    
C19   C115  1.473998 S    
C34   C54   1.398730 A    
C99   C103  1.443028 A    
O22   C10   1.300961 A    
C108  C112  1.536709 S    
C2    O10   1.268607 A    
C51   H63   1.109732 S    
C77   H26   1.083534 S    
C118  C122  1.369208 A    
C92   C108  1.487364 S    
C63   C67   1.390472 A    
O5    C1    1.275884 A    
C98   C114  1.402002 A    
O3    C11   1.284785 A    
C67   C68   1.388807 A    
C95   C111  1.473265 S    
C44   H8    1.081218 S    
N5    O62   1.300322 A    
Cr1   O49   1.975859 S    
C126  H46   1.082716 S    
C61   C70   1.415472 A    
Cr3   O51   1.975859 S    
C78   C82   1.394580 A    
C46   H14   1.110594 S    
C29   C33   1.378038 A    
C48   C52   1.518697 S    
O26   Cr2   2.058097 S    
C5    O17   1.273477 A    
O29   C13   1.251998 A    
O28   C24   1.262539 A    
O14   C6    1.304778 A    
C64   C68   1.393601 A    
C89   C93   1.356075 A    
N4    O59   1.300388 A    
C62   H22   1.080683 S    
C112  H44   1.099674 S    
C108  H36   1.110228 S    
O40   Cr8   1.940111 S    
C92   C96   1.344411 A    
C106  H38   1.112401 S    
O41   Cr9   2.075152 S    
C98   C102  1.433933 A    
C110  H42   1.109598 S    
C32   C36   1.378323 A    
C98   N2    1.436479 S    
N8    O68   1.298605 A    
C50   H18   1.107733 S    
C25   C29   1.382889 A    
O35   Cr7   2.061765 S    
O29   Cr1   1.956080 S    
C25   C41   1.410062 A    
C105  C109  1.513322 S    
C66   H66   1.082766 S    
C48   H10   1.112263 S    
C101  N5    1.444497 S    
Cr9   O49   1.990277 S    
C29   C45   1.492224 S    
C18   O42   1.258685 A    
Cr11  O51   1.990277 S    
O26   C22   1.263187 A    
O20   Cr12  2.071440 S    
C23   C120  1.444148 S    
C131  C132  1.503085 S    
C36   C52   1.488639 S    
C73   C74   1.406014 A    
C111  H43   1.111378 S    
C119  C128  1.406286 A    
C108  H40   1.111178 S    
C40   C56   1.402699 A    
C35   C51   1.490458 S    
C16   C85   1.456861 S    
C30   C34   1.386800 A    
C91   C107  1.491349 S    
C110  H58   1.110447 S    
C131  H51   1.112465 S    
C86   C90   1.379892 A    
C89   C105  1.493958 S    
C120  C127  1.408495 A    
C74   C78   1.426426 A    
C47   H9    1.112591 S    
C93   C109  1.474769 S    
C45   H11   1.111631 S    
C127  C128  1.410174 A    
C46   H12   1.109641 S    
C84   H32   1.081727 S    
O42   Cr10  2.073559 S    
O18   Cr10  2.071440 S    
O31   Cr3   1.956080 S    
O34   Cr6   2.072399 S    
C26   C30   1.395680 A    
O24   Cr12  1.955449 S    
O30   Cr2   1.955765 S    
O48   Cr12  1.950207 S    
C8    O20   1.297280 A    
C26   C42   1.412065 A    
O37   C17   1.266484 A    
C15   O35   1.291935 A    
Cr10  O50   1.975933 S    
C30   C46   1.487918 S    
C37   H1    1.083835 S    
O40   C20   1.274414 A    
O43   Cr11  2.075152 S    
O48   C24   1.279957 A    
O37   Cr5   1.954876 S    
C102  N6    1.456124 S    
C87   C91   1.384555 A    
O39   Cr7   1.954876 S    
O45   Cr9   1.935075 S    
C13   O33   1.297262 A    
C130  H50   1.102707 S    
O13   Cr5   1.941886 S    
O15   Cr7   1.941886 S    
C63   C72   1.412904 A    
C105  H33   1.107031 S    
C40   H4    1.078892 S    
C132  H56   1.112441 S    
C60   C75   1.406305 A    
O23   C11   1.271927 A    
C52   H64   1.112337 S    
C59   C76   1.433064 A    
C120  C124  1.370683 A    
C78   H25   1.078031 S    
O6    C2    1.270798 A    
C42   H6    1.081833 S    
O1    Cr1   2.077464 S    
O19   Cr11  2.053881 S    
C93   C113  1.374843 A    
C65   C66   1.388601 A    
C7    C55   1.423389 S    
C47   H15   1.111559 S    
C62   C69   1.416671 A    
O45   C21   1.291145 A    
O47   C23   1.292946 A    
C117  C121  1.387221 A    
C112  H60   1.111387 S    
C80   C84   1.393224 A    
N6    O63   1.300614 A    
C6    O18   1.299938 A    
C132  H52   1.101886 S    
C38   H2    1.081036 S    
C61   C65   1.392809 A    
C49   H61   1.108995 S    
O38   Cr6   1.940111 S    
C83   C84   1.385798 A    
O22   Cr10  1.955449 S    
C81   C82   1.385057 A    
C75   C76   1.404610 A    
C86   C102  1.446812 A    
C22   C117  1.439956 S    
O8    Cr4   1.938855 S    
C100  C104  1.438615 A    
C63   H23   1.081921 S    
O1    C9    1.285485 A    
O21   Cr9   1.955845 S    
C32   C48   1.492323 S    
C12   C59   1.487935 S    
O23   Cr11  1.955845 S    
C123  C131  1.492578 S    
O16   C8    1.301649 A    
O33   Cr5   2.061765 S    
C36   C56   1.394827 A    
O6    Cr2   1.938855 S    
C7    O19   1.264922 A    
N5    O61   1.301526 A    
Cr4   O52   1.989778 S    
C91   C95   1.353404 A    
C38   C54   1.403308 A    
C45   C49   1.511464 S    
Cr6   O50   1.988193 S    
O5    Cr1   1.950440 S    
C96   C112  1.479464 S    
C129  H53   1.099637 S    
C15   C86   1.467133 S    
C18   C114  1.454352 S    
C37   C41   1.379657 A    
O9    Cr5   2.074780 S    
C131  H55   1.099846 S    
C4    C25   1.430976 S    
N1    O54   1.291160 A    
C85   C89   1.389850 A    
O7    Cr3   1.950440 S    
C107  C111  1.511334 S    
C87   C103  1.407713 A    
C88   C92   1.371725 A    
C14   C87   1.458539 S    
C75   C79   1.415349 A    
C99   C115  1.451999 A    
C97   C113  1.440046 A    
N2    O55   1.300531 A    
Cr2   O50   1.989778 S    
C125  H45   1.074777 S    
C122  C130  1.482740 S    
C33   C49   1.495299 S    
N3    O57   1.299356 A    
C111  H59   1.112038 S    
O38   C18   1.277084 A    
N7    O66   1.300766 A    
O25   Cr1   2.067138 S    
C65   H65   1.082439 S    
C39   C55   1.392102 A    
N6    O64   1.297996 A    
O2    Cr2   2.077165 S    
C9    C58   1.482266 S    
C14   O34   1.267481 A    
C107  H39   1.110785 S    
C128  H48   1.082633 S    
C60   C71   1.425608 A    
C100  N4    1.434319 S    
C105  H37   1.111303 S    
C31   C47   1.493811 S    
C3    C26   1.467291 S    
C59   C72   1.410190 A    
C97   C101  1.436594 A    
C109  H41   1.111198 S    
C38   C42   1.398858 A    
O10   Cr6   2.057591 S    
C58   C69   1.422974 A    
O4    Cr4   2.077165 S    
C27   C31   1.384502 A    
C106  C110  1.510783 S    
C123  C124  1.356674 A    
C124  C132  1.485250 S    
C47   C51   1.515709 S    
C43   H7    1.082698 S    
C69   C70   1.415381 A    
C79   H28   1.083457 S    
C52   H20   1.111328 S    
