data_mof_unit_45859.cif
_audit_creation_date              2012-12-11T20:21:41-0500
_audit_creation_method            fapswitch 2.2
_symmetry_space_group_name_H-M    P1
_symmetry_Int_Tables_number       1
_space_group_crystal_system       triclinic
_cell_length_a                    8.223811
_cell_length_b                    17.438114
_cell_length_c                    26.973108
_cell_angle_alpha                 99.739929
_cell_angle_beta                  92.696666
_cell_angle_gamma                 81.440957
_cell_volume                      3768.98867541

loop_
_atom_site_label
_atom_site_type_symbol
_atom_type_description
_atom_site_fract_x
_atom_site_fract_y
_atom_site_fract_z
_atom_type_partial_charge
Ba1   Ba    Ba6+2 0.860160 0.462360 0.521850 1.653812
Ba2   Ba    Ba6+2 0.329680 0.537570 0.478140 1.642021
C1    C     C_3   0.623293 0.198439 0.658996 -0.361615
C2    C     C_R   0.887318 0.572794 0.178640 0.572204
C3    C     C_2   0.751190 0.547249 0.273970 -0.084826
C4    C     C_3   0.161951 0.244333 0.644733 0.316430
C5    C     C_3   0.732505 0.575410 0.329648 -0.049263
C6    C     C_1   0.984558 0.486322 0.342167 0.032132
C7    C     C_2   0.025985 0.483316 0.294353 -0.106942
C8    C     C_2   0.900824 0.512724 0.256306 0.187709
C9    C     C_R   0.019263 0.504351 0.101012 -0.080109
C10   C     C_R   0.075189 0.440054 0.125825 -0.035736
C11   C     C_R   0.172179 0.374316 0.099194 -0.059931
C12   C     C_3   0.614861 0.275038 0.638461 0.373258
C13   C     C_R   0.923491 0.570666 0.127728 -0.023216
C14   C     C_2   0.844767 0.525768 0.360976 -0.291687
C15   C     C_2   0.356883 0.484463 0.640334 -0.280105
C16   C     C_3   0.088305 0.222777 0.690232 -0.351563
C17   C     C_R   0.201970 0.435003 0.972104 0.019874
C18   C     C_R   0.035891 0.565728 0.973568 0.020602
C19   C     C_R   0.139198 0.499835 0.947504 0.049646
C20   C     C_R   0.305962 0.371491 0.944391 -0.098899
C21   C     C_R   0.344683 0.371217 0.894548 -0.061464
C22   C     C_R   0.282692 0.434331 0.869769 -0.034031
C23   C     C_3   0.491224 0.664414 0.634367 0.304637
C24   C     C_R   0.180198 0.498880 0.896240 -0.078243
C25   C     C_R   0.118731 0.562601 0.871440 -0.031751
C26   C     C_R   0.162404 0.561763 0.821213 0.585822
C27   C     C_R   0.321055 0.434086 0.819007 0.589390
C28   C     C_3   0.220791 0.298751 0.411232 0.315426
C29   C     C_2   0.463111 0.484778 0.728641 -0.077058
C30   C     C_3   0.505250 0.490720 0.675220 -0.067979
C31   C     C_1   0.210816 0.516643 0.657374 0.045674
C32   C     C_2   0.171626 0.515750 0.704478 -0.088416
C33   C     C_2   0.303861 0.497939 0.743140 0.208022
C34   C     C_3   0.477995 0.694329 0.690564 -0.375599
C35   C     C_R   0.159569 0.435875 0.023221 0.019731
C36   C     C_R   0.059113 0.502561 0.049533 0.049317
C37   C     C_R   0.998202 0.567695 0.025026 0.020602
C38   C     C_R   0.213927 0.372238 0.049340 -0.099019
C39   C     C_R   0.866134 0.634594 0.103273 -0.059863
C40   C     C_3   0.250530 0.209852 0.396104 -0.369116
C41   C     C_R   0.973416 0.627712 0.946904 -0.100523
C42   C     C_R   0.014633 0.626228 0.897308 -0.061618
C43   C     C_R   0.901977 0.633255 0.053309 -0.102587
C44   C     C_2   0.451044 0.279920 0.516235 -0.245558
C45   C     C_3   0.029707 0.706261 0.346622 0.344344
C46   C     C_3   0.377454 0.228673 0.546493 -0.068656
C47   C     C_2   0.424629 0.142478 0.528323 -0.100242
C48   C     C_2   0.552778 0.116158 0.497363 0.013662
C49   C     C_2   0.633839 0.174578 0.476435 -0.123672
C50   C     C_1   0.574729 0.250438 0.485751 0.060663
C51   C     C_R   0.790200 0.862735 0.472405 -0.126649
C52   C     C_3   0.974649 0.701576 0.587860 0.308160
C53   C     C_R   0.848240 0.782282 0.465823 0.015739
C54   C     C_R   0.617384 0.759735 0.510989 0.042885
C55   C     C_R   0.559305 0.840091 0.518329 -0.114447
C56   C     C_3   0.037663 0.729405 0.295080 -0.345264
C57   C     C_R   0.643599 0.892097 0.498426 0.010841
C58   C     C_2   0.613764 0.030835 0.483236 -0.074310
C59   C     C_2   0.585198 0.977125 0.511058 -0.071062
C60   C     C_R   0.757593 0.730736 0.482968 -0.283482
C61   C     C_3   0.942712 0.790383 0.603583 -0.382935
C62   C     C_3   0.693910 0.362749 0.368672 0.302548
C63   C     C_3   0.692488 0.343148 0.311557 -0.358365
C64   C     C_3   0.486518 0.746169 0.369493 0.370968
C65   C     C_3   0.440198 0.823776 0.350250 -0.363374
C66   C     C_R   0.032578 0.442553 0.176656 0.598074
H1    H     H_    0.678962 0.261678 0.601942 0.062464
H2    H     H_    0.816720 0.376777 0.382018 0.008384
H3    H     H_    0.599397 0.414553 0.379859 0.073732
H4    H     H_    0.753167 0.174323 0.666389 0.125666
H5    H     H_    0.790028 0.293200 0.299120 0.132327
H6    H     H_    0.715079 0.394692 0.295244 0.068956
H7    H     H_    0.570910 0.327071 0.297504 0.134809
H8    H     H_    0.483785 0.299711 0.633378 -0.085818
H9    H     H_    0.568726 0.154351 0.631156 0.058178
H10   H     H_    0.368518 0.650865 0.619710 0.028659
H11   H     H_    0.582708 0.610230 0.628259 0.033795
H12   H     H_    0.340383 0.193093 0.365291 0.120291
H13   H     H_    0.393095 0.750672 0.697280 0.136738
H14   H     H_    0.429034 0.651129 0.709431 0.073917
H15   H     H_    0.601012 0.703846 0.707105 0.127071
H16   H     H_    0.173285 0.232061 0.723289 0.093096
H17   H     H_    0.106512 0.648088 0.346619 0.080357
H18   H     H_    0.899583 0.701973 0.353431 -0.055907
H19   H     H_    0.949299 0.783739 0.292483 0.115112
H20   H     H_    0.622990 0.734556 0.371879 -0.072281
H21   H     H_    0.436595 0.752402 0.407757 0.080768
H22   H     H_    0.492497 0.871082 0.376108 0.069685
H23   H     H_    0.299886 0.181864 0.428661 0.074966
H24   H     H_    0.304493 0.839547 0.348336 0.150066
H25   H     H_    0.174241 0.308101 0.652838 0.030144
H26   H     H_    0.490346 0.819139 0.312158 0.120305
H27   H     H_    0.151531 0.461600 0.283046 0.137939
H28   H     H_    0.217548 0.323735 0.117004 0.121712
H29   H     H_    0.562207 0.475465 0.755998 0.102709
H30   H     H_    0.424884 0.320884 0.875413 0.119911
H31   H     H_    0.361240 0.320661 0.960116 0.068574
H32   H     H_    0.288745 0.319077 0.032313 0.068995
H33   H     H_    0.651851 0.565535 0.248704 0.125809
H34   H     H_    0.133078 0.187935 0.383141 0.133176
H35   H     H_    0.792120 0.686682 0.122813 0.123125
H36   H     H_    0.890574 0.678738 0.962946 0.069002
H37   H     H_    0.284800 0.208411 0.639395 -0.026956
H38   H     H_    0.963399 0.675676 0.879111 0.122022
H39   H     H_    0.044426 0.529835 0.715608 0.127894
H40   H     H_    0.852988 0.685659 0.038380 0.068882
H41   H     H_    0.824923 0.536645 0.401202 0.081683
H42   H     H_    0.370899 0.455849 0.601461 0.071637
H43   H     H_    0.515544 0.995218 0.545163 0.068337
H44   H     H_    0.739478 0.154087 0.452543 0.082207
H45   H     H_    0.858485 0.679703 0.574723 0.006635
H46   H     H_    0.864348 0.902020 0.460141 0.074878
H47   H     H_    0.686196 0.012530 0.449613 0.071255
H48   H     H_    0.356352 0.102886 0.542837 0.064618
H49   H     H_    0.969363 0.260537 0.699281 0.166264
H50   H     H_    0.452049 0.862367 0.541102 0.078498
H51   H     H_    0.415279 0.342859 0.525530 0.070566
H52   H     H_    0.804206 0.668664 0.478657 0.064259
H53   H     H_    0.069364 0.160034 0.682700 0.108994
H54   H     H_    0.339071 0.320025 0.422277 -0.001901
H55   H     H_    0.137269 0.313777 0.443596 0.086561
H56   H     H_    0.062858 0.687507 0.556733 0.077647
H57   H     H_    0.554644 0.208838 0.694599 0.134284
H58   H     H_    0.163896 0.740189 0.287993 0.151487
H59   H     H_    0.005848 0.680773 0.265867 0.129425
H60   H     H_    0.847080 0.806276 0.632735 0.135383
H61   H     H_    0.900061 0.819273 0.570871 0.062658
H62   H     H_    0.057820 0.812365 0.619038 0.124488
N1    N     N_R   0.940385 0.508916 0.203111 -0.420815
N2    N     N_R   0.262034 0.497767 0.795247 -0.424963
O1    O     O_2   0.906370 0.542040 0.619810 -0.464527
O2    O     O_2   0.185296 0.780806 0.477414 -0.485177
O3    O     O_3   0.089686 0.763390 0.382949 -0.598764
O4    O     O_3   0.138370 0.541980 0.559630 -0.493655
O5    O     O_3   0.572820 0.404940 0.471170 -0.496303
O6    O     O_2   0.345130 0.693150 0.532000 -0.462312
O7    O     O_3   0.542267 0.722712 0.611258 -0.641221
O8    O     O_2   0.409367 0.534699 0.324454 -0.495650
O9    O     O_3   0.420091 0.686078 0.336832 -0.590942
O10   O     O_2   0.075942 0.385038 0.196941 -0.597908
O11   O     O_2   0.405670 0.376734 0.795847 -0.596101
O12   O     O_3   0.660372 0.297438 0.388139 -0.634467
O13   O     O_2   0.809415 0.632577 0.201279 -0.621314
O14   O     O_2   0.113286 0.618746 0.800846 -0.601130
O15   O     O_3   0.686580 0.398330 0.583860 -0.483550
O16   O     O_2   0.847769 0.442505 0.668986 -0.476590
O17   O     O_3   0.037899 0.668016 0.629527 -0.628290
O18   O     O_3   0.692589 0.327883 0.672893 -0.584249
O19   O     O_2   0.844570 0.306830 0.467970 -0.454610
O20   O     O_3   0.101900 0.357890 0.557750 -0.473733
O21   O     O_2   0.062896 0.218611 0.503730 -0.481786
O22   O     O_3   0.061458 0.227283 0.601791 -0.574643
O23   O     O_2   0.283330 0.457940 0.380160 -0.459294
O24   O     O_3   0.051340 0.457960 0.440360 -0.499379
O25   O     O_3   0.503130 0.601610 0.416130 -0.478622
O26   O     O_3   0.151380 0.331997 0.370087 -0.624636
O27   O     O_3   0.616890 0.595000 0.528820 -0.480561
O28   O     O_3   0.087820 0.642040 0.442240 -0.493362
P1    P     P_3+3 0.071770 0.565500 0.613330 0.997522
P2    P     P_3+3 0.664870 0.318630 0.453960 0.982895
P3    P     P_3+3 0.150694 0.256290 0.551603 0.962338
P4    P     P_3+3 0.117940 0.434440 0.386660 0.991580
P5    P     P_3+3 0.054014 0.743278 0.442426 0.948089
P6    P     P_3+3 0.681384 0.416491 0.649875 0.992396
P7    P     P_3+3 0.532189 0.694152 0.545954 0.950462
P8    P     P_3+3 0.516138 0.595942 0.351204 0.950119

loop_
_geom_bond_atom_site_label_1
_geom_bond_atom_site_label_2
_ccdc_geom_bond_type
O8    P8    D    
C5    P8    S    
C53   C60   A    
C40   H12   S    
Ba2   O23   S    
C30   P6    S    
Ba1   O24   S    
O16   P6    D    
C19   C24   A    
C56   H19   S    
C51   C57   A    
C46   P3    S    
C10   C66   A    
C24   C25   A    
C49   H44   S    
O21   P3    D    
C32   H39   S    
C45   H17   S    
C17   C19   A    
C22   C24   A    
C32   C33   S    
C35   C38   A    
C1    H9    S    
C64   H20   S    
C36   C37   A    
C55   C57   A    
C27   N2    Am   
C52   C61   S    
C34   H15   S    
C27   O11   D    
C52   H45   S    
C44   C50   D    
C23   O7    S    
C63   H5    S    
C54   C55   A    
Ba1   O20   S    
Ba1   Ba2   S    
C61   H62   S    
C41   H36   S    
C11   C38   A    
C17   C35   A    
C22   C27   A    
C9    C13   A    
C25   C42   A    
C28   H54   S    
C34   H14   S    
C6    C7    D    
C65   H26   S    
C16   H16   S    
C21   C22   A    
C66   O10   D    
C62   H2    S    
C64   H21   S    
Ba1   O4    S    
C7    C8    S    
C7    H27   S    
C60   H52   S    
C61   H60   S    
C43   H40   S    
O26   P4    S    
C37   C43   A    
C45   O3    S    
C4    H25   S    
C61   H61   S    
C64   C65   S    
Ba1   P1    S    
C56   H59   S    
C6    C14   D    
C15   H42   S    
C21   H30   S    
C15   C31   D    
Ba1   O1    S    
C40   H34   S    
O25   P8    S    
C14   H41   S    
C48   C49   S    
C2    N1    Am   
C3    H33   S    
O4    P1    S    
C51   C53   A    
C4    C16   S    
C44   C46   S    
C57   C59   S    
C11   H28   S    
C62   H3    S    
C49   C50   D    
Ba2   O6    S    
C45   H18   S    
O22   P3    S    
Ba1   O27   S    
C17   C20   A    
C13   C39   A    
C6    P4    S    
Ba2   P4    S    
C3    C5    S    
C18   C37   A    
Ba2   O27   S    
C62   O12   S    
C65   H22   S    
Ba2   O4    S    
C63   H6    S    
C23   H10   S    
C58   C59   D    
C26   N2    Am   
C12   H8    S    
C9    C36   A    
C31   P1    S    
C41   C42   A    
C35   C36   A    
O15   P6    S    
C64   O9    S    
C29   C30   S    
C34   H13   S    
O19   P2    D    
C12   O18   S    
C31   C32   D    
O3    P5    S    
O2    P5    D    
O28   P5    S    
C28   H55   S    
O7    P7    S    
C16   H49   S    
C4    O22   S    
C1    C12   S    
Ba2   O28   S    
C46   C47   S    
Ba1   P2    S    
C56   H58   S    
O6    P7    D    
C12   H1    S    
C54   C60   A    
Ba1   O15   S    
O17   P1    S    
C53   P5    S    
C59   H43   S    
C18   C41   A    
Ba1   O5    S    
C51   H46   S    
C28   O26   S    
C52   H56   S    
C5    C14   S    
O9    P8    S    
Ba2   O24   S    
C20   H31   S    
O12   P2    S    
C23   C34   S    
C23   H11   S    
Ba2   O5    S    
C8    N1    S    
O1    P1    D    
C38   H32   S    
C9    C10   A    
C1    H57   S    
C66   N1    Am   
C42   H38   S    
O23   P4    D    
C26   O14   D    
C63   H7    S    
C48   C58   S    
C62   C63   S    
C2    C13   A    
C1    H4    S    
C3    C8    D    
C45   C56   S    
O5    P2    S    
Ba2   O25   S    
C2    O13   D    
C54   P7    S    
C65   H24   S    
C4    H37   S    
O27   P7    S    
C44   H51   S    
Ba1   O19   S    
C29   C33   D    
C29   H29   S    
O20   P3    S    
C16   H53   S    
C39   H35   S    
C47   H48   S    
C10   C11   A    
O24   P4    S    
C18   C19   A    
C47   C48   D    
C25   C26   A    
C15   C30   S    
C39   C43   A    
C20   C21   A    
C28   C40   S    
C58   H47   S    
C33   N2    S    
C52   O17   S    
C40   H23   S    
C50   P2    S    
C55   H50   S    
O18   P6    S    
