data_mof_unit_6884.cif
_audit_creation_date              2012-12-11T14:07:46-0500
_audit_creation_method            fapswitch 2.2
_symmetry_space_group_name_H-M    P1
_symmetry_Int_Tables_number       1
_space_group_crystal_system       triclinic
_cell_length_a                    20.023249
_cell_length_b                    17.13082
_cell_length_c                    15.459485
_cell_angle_alpha                 90.00021
_cell_angle_beta                  53.448407
_cell_angle_gamma                 90.000053
_cell_volume                      4259.8744254

loop_
_atom_site_label
_atom_site_type_symbol
_atom_type_description
_atom_site_fract_x
_atom_site_fract_y
_atom_site_fract_z
_atom_type_partial_charge
C1    C     C_R   0.375450 0.196316 0.996121 0.150839
C2    C     C_R   0.675509 0.828917 0.037741 -0.026663
C3    C     C_R   0.175428 0.671130 0.037855 -0.026697
C4    C     C_R   0.175539 0.328933 0.037697 -0.026666
C5    C     C_R   0.617540 0.819366 0.693005 0.037368
C6    C     C_R   0.617523 0.180645 0.693017 0.037282
C7    C     C_R   0.117533 0.319363 0.693008 0.037347
C8    C     C_R   0.117555 0.680623 0.692998 0.037447
C9    C     C_3   0.191672 0.139644 0.506502 -0.514300
C10   C     C_3   0.191661 0.860315 0.506468 -0.514315
C11   C     C_3   0.691672 0.639653 0.506494 -0.514314
C12   C     C_R   0.375407 0.803697 0.996170 0.150781
C13   C     C_3   0.691695 0.360381 0.506529 -0.514285
C14   C     C_3   0.133793 0.186036 0.612409 0.402034
C15   C     C_3   0.133755 0.813914 0.612359 0.402008
C16   C     C_3   0.633787 0.686048 0.612397 0.402017
C17   C     C_3   0.633831 0.313997 0.612447 0.402028
C18   C     C_3   0.312647 0.226119 0.458564 -0.412822
C19   C     C_3   0.312660 0.773918 0.458616 -0.412783
C20   C     C_3   0.812652 0.726112 0.458575 -0.412820
C21   C     C_3   0.812648 0.273847 0.458535 -0.412884
C22   C     C_3   0.722909 0.762519 0.399576 -0.396523
C23   C     C_R   0.875442 0.696314 0.996130 0.150794
C24   C     C_3   0.722830 0.237540 0.399612 -0.396455
C25   C     C_3   0.222887 0.262503 0.399584 -0.396504
C26   C     C_3   0.222983 0.737428 0.399548 -0.396556
C27   C     C_3   0.262507 0.193641 0.419390 0.338938
C28   C     C_3   0.262538 0.806336 0.419385 0.338947
C29   C     C_3   0.762516 0.693647 0.419388 0.338945
C30   C     C_3   0.762499 0.306369 0.419397 0.338929
C31   C     C_3   0.666270 0.771987 0.595527 0.260003
C32   C     C_3   0.666252 0.228029 0.595540 0.260014
C33   C     C_3   0.166263 0.271982 0.595530 0.259998
C34   C     C_R   0.875370 0.303709 0.996212 0.150739
C35   C     C_3   0.166287 0.727998 0.595521 0.260005
C36   C     C_3   0.756741 0.774261 0.559888 -0.405685
C37   C     C_3   0.756742 0.225673 0.559825 -0.405628
C38   C     C_3   0.256739 0.274274 0.559872 -0.405683
C39   C     C_3   0.256744 0.725788 0.559944 -0.405726
C40   C     C_R   0.356280 0.823029 0.218265 -0.141938
C41   C     C_R   0.356266 0.176958 0.218265 -0.141969
C42   C     C_R   0.856266 0.323041 0.218271 -0.141910
C43   C     C_R   0.856270 0.676961 0.218265 -0.141967
C44   C     C_3   0.665602 0.808343 0.503525 -0.507600
C45   C     C_R   0.647947 0.902174 0.085356 -0.131412
C46   C     C_3   0.665501 0.191732 0.503574 -0.507647
C47   C     C_3   0.165577 0.308325 0.503536 -0.507600
C48   C     C_3   0.165691 0.691594 0.503487 -0.507604
C49   C     C_2   0.231213 0.721472 0.039428 0.519072
C50   C     C_2   0.231327 0.278601 0.039274 0.519086
C51   C     C_2   0.731111 0.221536 0.039568 0.519072
C52   C     C_2   0.731299 0.778583 0.039314 0.519057
C53   C     C_2   0.782811 0.264053 0.950199 -0.317401
C54   C     C_2   0.782997 0.736049 0.949964 -0.317432
C55   C     C_2   0.282911 0.764000 0.950073 -0.317452
C56   C     C_R   0.647839 0.097891 0.085509 -0.131344
C57   C     C_2   0.283024 0.236062 0.949930 -0.317510
C58   C     C_R   0.358279 0.892002 0.906576 -0.188382
C59   C     C_R   0.358323 0.108022 0.906520 -0.188376
C60   C     C_R   0.858242 0.392021 0.906624 -0.188377
C61   C     C_R   0.858315 0.608018 0.906531 -0.188369
C62   C     C_R   0.367198 0.088469 0.316094 -0.135564
C63   C     C_R   0.367210 0.911522 0.316095 -0.135586
C64   C     C_R   0.867202 0.588472 0.316094 -0.135570
C65   C     C_R   0.867202 0.411530 0.316096 -0.135587
C66   C     C_R   0.338302 0.182642 0.947369 0.133535
C67   C     C_R   0.147963 0.402182 0.085332 -0.131430
C68   C     C_R   0.338227 0.817393 0.947463 0.133565
C69   C     C_R   0.838288 0.682636 0.947387 0.133565
C70   C     C_R   0.838163 0.317422 0.947543 0.133559
C71   C     C_R   0.320913 0.849735 0.321093 0.037134
C72   C     C_R   0.320888 0.150244 0.321093 0.037122
C73   C     C_R   0.820885 0.349762 0.321098 0.037132
C74   C     C_R   0.820895 0.650249 0.321093 0.037133
C75   C     C_R   0.637911 0.193401 0.990965 -0.160528
C76   C     C_R   0.638040 0.806661 0.990784 -0.160469
C77   C     C_R   0.137984 0.693366 0.990861 -0.160502
C78   C     C_R   0.147897 0.597857 0.085426 -0.131389
C79   C     C_R   0.138063 0.306671 0.990751 -0.160471
C80   C     C_R   0.606578 0.803229 0.788386 -0.128099
C81   C     C_R   0.606574 0.196773 0.788392 -0.128199
C82   C     C_R   0.106575 0.303228 0.788388 -0.128108
C83   C     C_R   0.106586 0.696768 0.788381 -0.128034
C84   C     C_R   0.595598 0.104109 0.695155 -0.157435
C85   C     C_R   0.595606 0.895899 0.695150 -0.157515
C86   C     C_R   0.095609 0.604096 0.695148 -0.157587
C87   C     C_R   0.095603 0.395897 0.695151 -0.157495
C88   C     C_1   0.405889 0.271409 0.001014 0.064890
C89   C     C_R   0.675327 0.171187 0.038001 -0.026746
C90   C     C_1   0.405825 0.728590 0.001053 0.064912
C91   C     C_1   0.905876 0.771409 0.001021 0.065016
C92   C     C_1   0.905766 0.228589 0.001097 0.064853
H1    H     H_    0.155288 0.117319 0.478529 0.152166
H2    H     H_    0.339754 0.822126 0.476846 0.149569
H3    H     H_    0.839765 0.677925 0.476808 0.149581
H4    H     H_    0.839781 0.322008 0.476777 0.149596
H5    H     H_    0.761069 0.751928 0.623990 0.148680
H6    H     H_    0.761125 0.247938 0.623909 0.148713
H7    H     H_    0.261079 0.251957 0.623970 0.148681
H8    H     H_    0.261025 0.748173 0.624064 0.148654
H9    H     H_    0.771768 0.803192 0.338059 0.169422
H10   H     H_    0.771655 0.196844 0.338094 0.169423
H11   H     H_    0.271739 0.303180 0.338065 0.169426
H12   H     H_    0.155308 0.882620 0.478438 0.152181
H13   H     H_    0.271871 0.696771 0.338036 0.169420
H14   H     H_    0.687365 0.740639 0.370143 0.177893
H15   H     H_    0.687292 0.259463 0.370191 0.177932
H16   H     H_    0.187343 0.240614 0.370155 0.177881
H17   H     H_    0.187439 0.759272 0.370099 0.177916
H18   H     H_    0.601336 0.808781 0.526355 0.156142
H19   H     H_    0.601221 0.191371 0.526451 0.156161
H20   H     H_    0.101307 0.308747 0.526377 0.156147
H21   H     H_    0.101437 0.691096 0.526276 0.156129
H22   H     H_    0.688708 0.869575 0.486894 0.182752
H23   H     H_    0.655294 0.617333 0.478508 0.152162
H24   H     H_    0.688545 0.130479 0.486924 0.182728
H25   H     H_    0.188670 0.369561 0.486899 0.182747
H26   H     H_    0.188845 0.630378 0.486872 0.182781
H27   H     H_    0.365173 0.262972 0.394803 0.169959
H28   H     H_    0.365204 0.737064 0.394887 0.169956
H29   H     H_    0.865181 0.762966 0.394821 0.169958
H30   H     H_    0.865163 0.236996 0.394752 0.169960
H31   H     H_    0.338652 0.773155 0.193996 0.134162
H32   H     H_    0.338633 0.226828 0.193996 0.134178
H33   H     H_    0.838635 0.273164 0.194012 0.134164
H34   H     H_    0.655291 0.382721 0.478592 0.152156
H35   H     H_    0.838638 0.726833 0.193995 0.134163
H36   H     H_    0.779745 0.835618 0.543553 0.175371
H37   H     H_    0.779707 0.164302 0.543431 0.175372
H38   H     H_    0.279734 0.335634 0.543523 0.175369
H39   H     H_    0.279778 0.664444 0.543654 0.175370
H40   H     H_    0.782840 0.261034 0.879922 0.105390
H41   H     H_    0.783041 0.739064 0.879675 0.105377
H42   H     H_    0.282948 0.760985 0.879788 0.105374
H43   H     H_    0.283070 0.239074 0.879639 0.105373
H44   H     H_    0.346158 0.919846 0.854404 0.111095
H45   H     H_    0.570656 0.687892 0.631682 0.090133
H46   H     H_    0.346220 0.080187 0.854326 0.111086
H47   H     H_    0.846106 0.419872 0.854471 0.111115
H48   H     H_    0.846207 0.580181 0.854342 0.111087
H49   H     H_    0.362701 0.061636 0.382342 0.080224
H50   H     H_    0.362710 0.938360 0.382342 0.080230
H51   H     H_    0.862703 0.561637 0.382342 0.080231
H52   H     H_    0.862712 0.438360 0.382341 0.080235
H53   H     H_    0.639168 0.249607 0.958057 0.103976
H54   H     H_    0.639345 0.750461 0.957828 0.103935
H55   H     H_    0.139268 0.749568 0.957923 0.103929
H56   H     H_    0.570671 0.312215 0.631821 0.090134
H57   H     H_    0.139377 0.250473 0.957783 0.103932
H58   H     H_    0.614605 0.748579 0.815849 0.147119
H59   H     H_    0.614603 0.251417 0.815864 0.147244
H60   H     H_    0.114600 0.248578 0.815853 0.147142
H61   H     H_    0.114621 0.751420 0.815834 0.147008
H62   H     H_    0.589192 0.073578 0.639324 0.093150
H63   H     H_    0.589206 0.926432 0.639315 0.093171
H64   H     H_    0.089208 0.573564 0.639313 0.093191
H65   H     H_    0.089200 0.426429 0.639318 0.093169
H66   H     H_    0.659941 0.930817 0.137129 0.094307
H67   H     H_    0.070655 0.187866 0.631715 0.090142
H68   H     H_    0.659808 0.069257 0.137313 0.094278
H69   H     H_    0.159959 0.430823 0.137106 0.094314
H70   H     H_    0.159877 0.569223 0.137218 0.094288
H71   H     H_    0.217595 0.087675 0.520184 0.174730
H72   H     H_    0.217546 0.912296 0.520185 0.174731
H73   H     H_    0.717586 0.587682 0.520184 0.174744
H74   H     H_    0.717644 0.412341 0.520185 0.174741
H75   H     H_    0.182362 0.140049 0.679402 0.313297
H76   H     H_    0.182170 0.859994 0.679501 0.313308
H77   H     H_    0.682323 0.640040 0.679421 0.313316
H78   H     H_    0.070648 0.812023 0.631571 0.090141
H79   H     H_    0.682512 0.359915 0.679336 0.313306
H80   H     H_    0.180820 0.697754 0.189939 0.302857
H81   H     H_    0.180899 0.302305 0.189803 0.302875
H82   H     H_    0.680744 0.197813 0.190066 0.302847
H83   H     H_    0.680894 0.802302 0.189831 0.302869
H84   H     H_    0.339765 0.177938 0.476799 0.149577
N1    N     N_R   0.408680 0.130160 0.995800 -0.077627
N2    N     N_R   0.403730 0.078230 0.935950 -0.048616
N3    N     N_R   0.903730 0.421770 0.935950 -0.048619
N4    N     N_R   0.903730 0.578230 0.935950 -0.048614
N5    N     N_R   0.426630 0.075970 0.212960 -0.036356
N6    N     N_R   0.426630 0.924030 0.212960 -0.036360
N7    N     N_R   0.926630 0.575970 0.212960 -0.036358
N8    N     N_R   0.926630 0.424030 0.212960 -0.036363
N9    N     N_R   0.591320 0.134600 0.004200 -0.036027
N10   N     N_R   0.591320 0.865400 0.004200 -0.036036
N11   N     N_R   0.091320 0.634600 0.004200 -0.036032
N12   N     N_R   0.408680 0.869840 0.995800 -0.077623
N13   N     N_R   0.091320 0.365400 0.004200 -0.036035
N14   N     N_R   0.578320 0.867660 0.846880 -0.049070
N15   N     N_R   0.578320 0.132340 0.846880 -0.049075
N16   N     N_R   0.078320 0.367660 0.846880 -0.049066
N17   N     N_R   0.078320 0.632340 0.846880 -0.049077
N18   N     N_R   0.573370 0.074390 0.787040 -0.035044
N19   N     N_R   0.573370 0.925610 0.787040 -0.035043
N20   N     N_R   0.073370 0.574390 0.787040 -0.035042
N21   N     N_R   0.073370 0.425610 0.787040 -0.035041
N22   N     N_R   0.596270 0.927870 0.064040 -0.035941
N23   N     N_R   0.908680 0.630160 0.995800 -0.077627
N24   N     N_R   0.596270 0.072130 0.064040 -0.035928
N25   N     N_R   0.096270 0.427870 0.064040 -0.035939
N26   N     N_R   0.096270 0.572130 0.064040 -0.035931
N27   N     N_1   0.430420 0.331533 0.004737 -0.071204
N28   N     N_1   0.430340 0.668454 0.004767 -0.071191
N29   N     N_1   0.930405 0.831536 0.004742 -0.071193
N30   N     N_1   0.930263 0.168444 0.004814 -0.071197
N31   N     N_R   0.908680 0.369840 0.995800 -0.077614
N32   N     N_R   0.421680 0.867580 0.153120 -0.043548
N33   N     N_R   0.421680 0.132420 0.153120 -0.043538
N34   N     N_R   0.921680 0.367580 0.153120 -0.043553
N35   N     N_R   0.921680 0.632420 0.153120 -0.043546
N36   N     N_R   0.403730 0.921770 0.935950 -0.048617
Ni1   Ni    Ni4+2 0.500000 0.131190 0.000000 0.221442
Ni2   Ni    Ni4+2 0.500000 0.868810 0.000000 0.221457
Ni3   Ni    Ni4+2 0.000000 0.631190 0.000000 0.221452
Ni4   Ni    Ni4+2 0.000000 0.368810 0.000000 0.221460
Ni5   Ni    Ni4+2 0.488650 1.000000 0.862740 0.201625
Ni6   Ni    Ni4+2 0.988650 0.500000 0.862740 0.201636
Ni7   Ni    Ni4+2 0.511350 1.000000 0.137260 0.208968
Ni8   Ni    Ni4+2 0.011350 0.500000 0.137260 0.208967
O1    O     O_3   0.125902 0.147683 0.698578 -0.761495
O2    O     O_3   0.125743 0.852299 0.698591 -0.761439
O3    O     O_3   0.625870 0.647687 0.698579 -0.761469
O4    O     O_3   0.626028 0.352328 0.698571 -0.761523
O5    O     O_3   0.226876 0.730343 0.131812 -0.783593
O6    O     O_3   0.226964 0.269724 0.131676 -0.783596
O7    O     O_3   0.726796 0.230403 0.131935 -0.783593
O8    O     O_3   0.726943 0.769704 0.131710 -0.783602

loop_
_geom_bond_atom_site_label_1
_geom_bond_atom_site_label_2
_ccdc_geom_bond_type
N35   Ni3   S    
C40   N32   A    
N7    Ni8   S    
C40   C71   A    
C8    C83   A    
C23   C69   A    
C14   O1    S    
C6    C32   S    
N22   Ni7   S    
C57   C66   S    
H82   O7    S    
C14   C33   S    
H79   O4    S    
C3    C49   S    
C76   N10   A    
C36   H36   S    
C75   H53   S    
C16   C31   S    
C80   H58   S    
C12   C68   A    
N11   N26   A    
C22   H9    S    
C22   C44   S    
N23   Ni3   S    
C38   H38   S    
C41   H32   S    
C12   C90   S    
C22   C29   S    
C10   C15   S    
C59   C66   A    
N36   Ni5   S    
C35   C48   S    
C24   C30   S    
C61   C69   A    
C47   H20   S    
C12   N12   A    
C23   N23   A    
C65   C73   A    
N5    N33   A    
C85   H63   S    
N26   Ni8   S    
C21   H30   S    
C9    H71   S    
C86   H64   S    
C81   N15   A    
N2    Ni5   S    
C42   H33   S    
C86   N20   A    
C64   N7    A    
C1    N1    A    
C52   O8    S    
C7    C87   A    
C16   H45   S    
C84   N18   A    
N5    Ni7   S    
N32   Ni2   S    
N17   Ni3   S    
C36   H5    S    
C11   H23   S    
C77   H55   S    
N6    N32   A    
C42   N34   A    
C26   C48   S    
C79   H57   S    
C41   N33   A    
N16   Ni4   S    
C43   C74   A    
C76   H54   S    
N6    Ni7   S    
N9    N24   A    
C6    C81   A    
C46   H19   S    
C7    C33   S    
C82   H60   S    
C75   N9    A    
C84   H62   S    
C53   C70   S    
C26   H13   S    
C15   C35   S    
C37   H6    S    
C91   N29   T    
C52   C54   D    
C55   C68   S    
N18   Ni5   S    
C90   N28   T    
C20   C29   S    
N9    Ni1   S    
C2    C45   A    
N11   Ni3   S    
C6    C84   A    
C31   C44   S    
C45   H66   S    
N1    Ni1   S    
C13   C30   S    
C17   H56   S    
C92   N30   T    
C4    C79   A    
C43   H35   S    
C24   H15   S    
C65   H52   S    
N12   Ni2   S    
C25   H11   S    
C48   H26   S    
C29   C74   S    
C59   H46   S    
N13   N25   A    
C45   N22   A    
C81   H59   S    
C54   H41   S    
N33   Ni1   S    
H83   O8    S    
C87   H65   S    
C15   H78   S    
C4    C50   S    
C51   C53   D    
C8    C35   S    
C83   N17   A    
C35   C39   S    
C9    C14   S    
C67   N25   A    
N13   Ni4   S    
C24   H10   S    
C11   C16   S    
C67   H69   S    
C26   H17   S    
N3    N31   A    
C60   C70   A    
N17   N20   A    
N4    N23   A    
C1    C66   A    
C57   H43   S    
C62   C72   A    
C53   H40   S    
C32   C37   S    
C5    C80   A    
N8    N34   A    
C19   C28   S    
N14   Ni2   S    
H80   O5    S    
C11   C29   S    
C20   H29   S    
C19   H2    S    
C2    C52   S    
N14   N19   A    
C41   C72   A    
C13   H34   S    
C58   C68   A    
C56   C89   A    
C64   H51   S    
C20   H3    S    
C63   C71   A    
C19   H28   S    
C78   H70   S    
N3    Ni6   S    
C51   O7    S    
C77   N11   A    
C23   C91   S    
C50   O6    S    
C28   C71   S    
C87   N21   A    
C62   H49   S    
C49   O5    S    
N21   Ni6   S    
C3    C77   A    
C9    H1    S    
C60   N3    A    
N19   Ni5   S    
C2    C76   A    
C9    C27   S    
C11   H73   S    
C80   N14   A    
C10   C28   S    
C30   C73   S    
C40   H31   S    
C34   C70   A    
C25   C47   S    
C42   C73   A    
C10   H72   S    
C82   N16   A    
C50   C57   D    
C32   C46   S    
C59   N2    A    
C85   N19   A    
C18   C27   S    
C78   N26   A    
N25   Ni8   S    
H76   O2    S    
C38   H7    S    
C4    C67   A    
N20   Ni6   S    
C61   H48   S    
H75   O1    S    
C83   H61   S    
C21   H4    S    
C58   N36   A    
C34   N31   A    
C25   C27   S    
C55   H42   S    
C21   C30   S    
C26   C28   S    
C33   C38   S    
C46   H24   S    
C14   H67   S    
H81   O6    S    
C58   H44   S    
C15   O2    S    
C10   H12   S    
C18   C38   S    
N15   N18   A    
C24   C46   S    
C56   H68   S    
C17   O4    S    
C49   C55   D    
N16   N21   A    
C62   N5    A    
N12   N36   A    
C13   H74   S    
H77   O3    S    
C54   C69   S    
C39   H39   S    
C1    C88   S    
N34   Ni4   S    
N10   Ni2   S    
N31   Ni4   S    
C33   C47   S    
C63   H50   S    
C37   H37   S    
C51   C89   S    
C8    C86   A    
C88   N27   T    
N8    Ni8   S    
C34   C92   S    
C43   N35   A    
C22   H14   S    
C75   C89   A    
C60   H47   S    
C44   H22   S    
C13   C17   S    
C20   C36   S    
C47   H25   S    
C7    C82   A    
C21   C37   S    
C39   H8    S    
C61   N4    A    
C19   C39   S    
N1    N2    A    
C79   N13   A    
C63   N6    A    
C17   C32   S    
C64   C74   A    
C31   C36   S    
N10   N22   A    
C16   O3    S    
N4    Ni6   S    
N24   Ni7   S    
C5    C31   S    
C3    C78   A    
N7    N35   A    
C18   H27   S    
C5    C85   A    
N15   Ni1   S    
C27   C72   S    
C25   H16   S    
C44   H18   S    
C48   H21   S    
C56   N24   A    
C65   N8    A    
C18   H84   S    
