data_mof_unit_31116.cif
_audit_creation_date              2012-12-10T20:00:04-0500
_audit_creation_method            fapswitch 2.2
_symmetry_space_group_name_H-M    P1
_symmetry_Int_Tables_number       1
_space_group_crystal_system       triclinic
_cell_length_a                    15.092107
_cell_length_b                    14.330363
_cell_length_c                    8.971326
_cell_angle_alpha                 89.765347
_cell_angle_beta                  93.939905
_cell_angle_gamma                 87.781493
_cell_volume                      1934.19606486

loop_
_atom_site_label
_atom_site_type_symbol
_atom_type_description
_atom_site_fract_x
_atom_site_fract_y
_atom_site_fract_z
_atom_type_partial_charge
C1    C     C_R   0.328029 0.501643 0.504095 1.018564
C2    C     C_R   0.420731 0.896072 0.462442 0.423963
C3    C     C_R   0.499494 0.500137 0.218728 0.908490
C4    C     C_R   0.500411 0.499858 0.781263 0.920889
C5    C     C_R   0.497400 0.053332 0.498512 -0.130551
C6    C     C_R   0.498499 0.946466 0.495769 -0.213829
C7    C     C_1   0.499793 0.500156 0.065283 -0.163352
C8    C     C_1   0.500125 0.499799 0.934716 -0.159297
C9    C     C_R   0.092829 0.560508 0.380368 0.345962
C10   C     C_R   0.907195 0.413129 0.423324 0.401054
C11   C     C_R   0.903493 0.579904 0.473933 0.338825
C12   C     C_R   0.672055 0.498312 0.490682 0.970890
C13   C     C_R   0.096052 0.434403 0.565279 0.393349
C14   C     C_R   0.181507 0.574345 0.421874 0.346427
C15   C     C_R   0.816427 0.410522 0.445056 0.326584
C16   C     C_R   0.811374 0.580657 0.460162 0.316070
C17   C     C_R   0.188931 0.434367 0.577516 0.253540
C18   C     C_R   0.231660 0.504300 0.502774 -0.382178
C19   C     C_R   0.767591 0.495643 0.466856 -0.433214
C20   C     C_R   0.048364 0.494313 0.460688 -0.159398
C21   C     C_R   0.951642 0.495992 0.452072 -0.171125
C22   C     C_2   0.399974 0.261479 0.269112 0.536117
C23   C     C_R   0.452014 0.207194 0.388252 -0.049629
C24   C     C_2   0.641054 0.746858 0.659598 0.569330
C25   C     C_2   0.595196 0.250159 0.734987 0.482875
C26   C     C_2   0.370000 0.757443 0.316831 0.526911
C27   C     C_3   0.019053 0.577283 0.149899 0.137926
C28   C     C_3   0.991317 0.649604 0.030281 -0.838313
C29   C     C_3   0.961074 0.327657 0.233575 0.103104
C30   C     C_3   0.997519 0.231199 0.193857 -0.788857
C31   C     C_3   0.949879 0.686659 0.647097 0.121290
C32   C     C_3   0.952226 0.792099 0.664296 -0.754772
C33   C     C_3   0.040349 0.421030 0.795128 0.153094
C34   C     C_R   0.572170 0.794763 0.557976 -0.072915
C35   C     C_3   0.947246 0.404491 0.842172 -0.926735
C36   C     C_3   0.183962 0.729948 0.477675 0.185119
C37   C     C_3   0.219580 0.721536 0.641370 -0.942947
C38   C     C_3   0.779332 0.274789 0.558496 0.178644
C39   C     C_3   0.862252 0.210306 0.578213 -0.789675
C40   C     C_3   0.770869 0.701799 0.298577 0.201661
C41   C     C_3   0.682768 0.692890 0.207375 -0.872130
C42   C     C_3   0.242253 0.286209 0.635859 0.162548
C43   C     C_3   0.312396 0.233333 0.736547 -0.780457
C44   C     C_3   0.436592 0.027755 0.165084 0.207913
C45   C     C_R   0.545100 0.201284 0.612949 -0.085872
C46   C     C_3   0.368667 0.003702 0.038872 -0.757104
C47   C     C_3   0.679962 0.956115 0.386132 0.140085
C48   C     C_3   0.775590 0.985471 0.388092 -0.792680
C49   C     C_3   0.554310 0.015786 0.829767 0.195520
C50   C     C_3   0.619736 0.972904 0.950087 -0.802782
C51   C     C_3   0.309714 0.959040 0.592327 0.109795
C52   C     C_3   0.217409 0.006079 0.578860 -0.804381
C53   C     C_R   0.429446 0.799107 0.433729 -0.115514
C54   C     C_R   0.449688 0.108234 0.385432 0.362118
C55   C     C_R   0.577987 0.891655 0.526653 0.409535
C56   C     C_R   0.545536 0.101963 0.613555 0.379942
H1    H     H_    0.363384 0.324717 0.293784 0.075405
H2    H     H_    0.008506 0.379472 0.198624 0.107632
H3    H     H_    0.895256 0.339862 0.170696 0.155217
H4    H     H_    0.950713 0.177277 0.223484 0.254296
H5    H     H_    0.006234 0.227710 0.072103 0.208345
H6    H     H_    0.062951 0.216615 0.255685 0.253335
H7    H     H_    0.012180 0.654600 0.701221 0.122338
H8    H     H_    0.891771 0.663241 0.706102 0.158725
H9    H     H_    0.889275 0.825208 0.614841 0.290530
H10   H     H_    0.959631 0.810055 0.784675 0.212210
H11   H     H_    0.008782 0.820085 0.607874 0.224722
H12   H     H_    0.627953 0.681107 0.711206 0.078730
H13   H     H_    0.049038 0.498043 0.793592 0.102703
H14   H     H_    0.089611 0.389749 0.880604 0.172520
H15   H     H_    0.937701 0.328620 0.855510 0.262690
H16   H     H_    0.937113 0.439182 0.950011 0.194570
H17   H     H_    0.896916 0.434008 0.757114 0.245700
H18   H     H_    0.110279 0.734116 0.470686 0.194572
H19   H     H_    0.203835 0.797846 0.434117 0.209843
H20   H     H_    0.194592 0.782427 0.704508 0.223949
H21   H     H_    0.196175 0.657480 0.693648 0.249201
H22   H     H_    0.293329 0.719865 0.649587 0.281259
H23   H     H_    0.623860 0.316151 0.714118 0.085581
H24   H     H_    0.722130 0.228676 0.550939 0.158666
H25   H     H_    0.773636 0.319296 0.659342 0.098661
H26   H     H_    0.920541 0.249640 0.619539 0.299682
H27   H     H_    0.852070 0.155598 0.662727 0.206512
H28   H     H_    0.875872 0.176118 0.470982 0.274855
H29   H     H_    0.824777 0.668664 0.235224 0.125200
H30   H     H_    0.785686 0.776718 0.307734 0.166036
H31   H     H_    0.685870 0.727253 0.096769 0.206990
H32   H     H_    0.669191 0.618015 0.189802 0.252337
H33   H     H_    0.627901 0.726793 0.266213 0.269009
H34   H     H_    0.374678 0.684054 0.293328 0.146489
H35   H     H_    0.262056 0.281097 0.518610 0.122128
H36   H     H_    0.177654 0.252417 0.643934 0.175831
H37   H     H_    0.290439 0.229331 0.851971 0.271744
H38   H     H_    0.323257 0.161835 0.693925 0.180229
H39   H     H_    0.376248 0.269458 0.738960 0.288860
H40   H     H_    0.472936 0.962273 0.202867 0.106956
H41   H     H_    0.484867 0.076329 0.122549 0.146731
H42   H     H_    0.342653 0.068328 0.979769 0.242593
H43   H     H_    0.399359 0.956189 0.958208 0.161379
H44   H     H_    0.312289 0.967902 0.084175 0.310448
H45   H     H_    0.959558 0.537169 0.169783 0.108747
H46   H     H_    0.636794 0.016206 0.343061 0.123315
H47   H     H_    0.671520 0.896688 0.307498 0.110014
H48   H     H_    0.821689 0.925916 0.422158 0.249497
H49   H     H_    0.790481 0.009750 0.275114 0.204199
H50   H     H_    0.785669 0.043061 0.468650 0.266043
H51   H     H_    0.511515 0.959674 0.785429 0.089301
H52   H     H_    0.511930 0.070604 0.879938 0.156184
H53   H     H_    0.656835 0.028621 0.009632 0.262930
H54   H     H_    0.583953 0.933015 0.031632 0.159295
H55   H     H_    0.667667 0.924123 0.898791 0.293082
H56   H     H_    0.071981 0.530045 0.107253 0.110359
H57   H     H_    0.355509 0.006386 0.654343 0.112758
H58   H     H_    0.307054 0.893598 0.658525 0.126647
H59   H     H_    0.169080 0.958783 0.523122 0.245927
H60   H     H_    0.195936 0.023283 0.691795 0.205588
H61   H     H_    0.218252 0.071523 0.512265 0.261341
H62   H     H_    0.050688 0.683313 0.991317 0.258146
H63   H     H_    0.955933 0.614397 0.935674 0.182173
H64   H     H_    0.945653 0.703850 0.074192 0.263396
N1    N     N_R   0.500000 0.252470 0.500000 -0.214182
N2    N     N_R   0.500000 0.747530 0.500000 -0.233150
O1    O     O_R   0.369060 0.579480 0.500010 -0.612184
O2    O     O_2   0.712101 0.781906 0.693032 -0.560186
O3    O     O_2   0.605436 0.217547 0.861136 -0.566934
O4    O     O_2   0.317745 0.806034 0.237389 -0.568739
O5    O     O_3   0.048827 0.623576 0.280919 -0.541015
O6    O     O_3   0.953940 0.331922 0.389188 -0.558058
O7    O     O_3   0.945018 0.663837 0.494019 -0.561900
O8    O     O_3   0.051514 0.376821 0.656488 -0.581653
O9    O     O_3   0.218610 0.657671 0.387386 -0.582641
O10   O     O_3   0.774811 0.326775 0.423377 -0.571625
O11   O     O_3   0.764935 0.665718 0.444967 -0.545054
O12   O     O_R   0.630940 0.420520 0.499990 -0.619583
O13   O     O_3   0.236840 0.379609 0.684541 -0.584316
O14   O     O_3   0.390776 0.068144 0.281792 -0.535119
O15   O     O_3   0.660365 0.931224 0.532679 -0.502475
O16   O     O_3   0.602683 0.054085 0.717169 -0.526908
O17   O     O_3   0.337424 0.940073 0.448033 -0.512521
O18   O     O_R   0.630940 0.579480 0.499990 -0.589985
O19   O     O_R   0.369060 0.420520 0.500010 -0.643533
O20   O     O_R   0.500000 0.579460 0.285340 -0.658786
O21   O     O_R   0.500000 0.420540 0.714660 -0.629727
O22   O     O_R   0.500000 0.579460 0.714660 -0.651167
O23   O     O_R   0.500000 0.420540 0.285340 -0.611511
O24   O     O_2   0.397616 0.236094 0.139270 -0.587550
Zn1   Zn    Zn3+2 0.500000 0.606140 0.500000 0.910570
Zn2   Zn    Zn3+2 0.500000 0.393860 0.500000 0.935156

loop_
_geom_bond_atom_site_label_1
_geom_bond_atom_site_label_2
_ccdc_geom_bond_type
C33   O8    S    
C44   O14   S    
C41   H33   S    
C46   H43   S    
C14   C18   A    
C5    C56   A    
C24   O2    D    
C6    C55   A    
C4    C8    S    
C22   H1    S    
C7    C8    T    
C49   H51   S    
C15   C19   A    
C1    C18   S    
C9    O5    S    
C2    O17   S    
C36   C37   S    
C39   H28   S    
C3    C7    S    
C53   N2    A    
C38   C39   S    
C48   H48   S    
C50   H54   S    
C43   H38   S    
C42   H35   S    
C26   O4    D    
C40   H30   S    
C25   O3    D    
O19   Zn2   S    
C43   H37   S    
C48   H49   S    
C27   O5    S    
C48   H50   S    
C15   O10   S    
C22   O24   D    
C45   C56   A    
C30   H4    S    
C17   O13   S    
C43   H39   S    
C13   O8    S    
C12   O18   A    
C33   H13   S    
C52   H61   S    
C46   H42   S    
C35   H15   S    
C34   C55   A    
C34   N2    A    
C47   H46   S    
C12   O12   A    
C49   O16   S    
C2    C6    A    
C3    O20   A    
C4    O21   A    
O22   Zn1   S    
C10   O6    S    
C16   O11   S    
C11   O7    S    
O18   Zn1   S    
C44   C46   S    
C49   H52   S    
C14   O9    S    
C52   H60   S    
C10   C21   A    
O21   Zn2   S    
C41   H31   S    
C51   H58   S    
C47   H47   S    
C51   C52   S    
C29   H3    S    
C5    C54   A    
C23   N1    A    
C28   H64   S    
C36   O9    S    
C45   N1    A    
C37   H21   S    
C11   C21   A    
C50   H53   S    
C24   C34   S    
C42   O13   S    
C38   O10   S    
C40   H29   S    
C9    C14   A    
C1    O1    A    
C29   C30   S    
C44   H40   S    
C36   H19   S    
C31   H7    S    
C56   O16   S    
C44   H41   S    
C9    C20   A    
C47   C48   S    
C54   O14   S    
C47   O15   S    
C17   C18   A    
N1    Zn2   S    
C51   H57   S    
N2    Zn1   S    
C29   H2    S    
C36   H18   S    
C33   H14   S    
C32   H11   S    
C40   C41   S    
C37   H20   S    
O1    Zn1   S    
C27   H56   S    
C3    O23   A    
C30   H6    S    
C38   H25   S    
C30   H5    S    
C42   C43   S    
C26   C53   S    
C25   C45   S    
O23   Zn2   S    
C23   C54   A    
C32   H10   S    
C40   O11   S    
C52   H59   S    
C41   H32   S    
C46   H44   S    
C35   H17   S    
C13   C20   A    
C25   H23   S    
C31   H8    S    
C31   C32   S    
C39   H26   S    
C2    C53   A    
C4    O22   A    
C28   H63   S    
C35   H16   S    
C26   H34   S    
O12   Zn2   S    
C37   H22   S    
C55   O15   S    
C13   C17   A    
C10   C15   A    
C39   H27   S    
C31   O7    S    
C28   H62   S    
C5    C6    S    
C38   H24   S    
C16   C19   A    
O20   Zn1   S    
C12   C19   S    
C50   H55   S    
C33   C35   S    
C27   H45   S    
C42   H36   S    
C11   C16   A    
C1    O19   A    
C24   H12   S    
C20   C21   S    
C49   C50   S    
C29   O6    S    
C27   C28   S    
C22   C23   S    
C32   H9    S    
C51   O17   S    
