data_mof_unit_17413.cif
_audit_creation_date              2012-12-11T15:45:41-0500
_audit_creation_method            fapswitch 2.2
_symmetry_space_group_name_H-M    P1
_symmetry_Int_Tables_number       1
_space_group_crystal_system       triclinic
_cell_length_a                    8.363803
_cell_length_b                    18.954147
_cell_length_c                    22.855616
_cell_angle_alpha                 94.628772
_cell_angle_beta                  90.291533
_cell_angle_gamma                 93.903676
_cell_volume                      3602.87199088

loop_
_atom_site_label
_atom_site_type_symbol
_atom_type_description
_atom_site_fract_x
_atom_site_fract_y
_atom_site_fract_z
_atom_type_partial_charge
Ba1   Ba    Ba6+2 0.850680 0.532880 0.472010 1.658540
Ba2   Ba    Ba6+2 0.339140 0.467180 0.527990 1.666202
C1    C     C_3   0.639155 0.793280 0.317795 0.316363
C2    C     C_R   0.057255 0.565732 0.941907 -0.087678
C3    C     C_R   0.009283 0.564104 0.881835 0.605209
C4    C     C_3   0.039252 0.691209 0.314280 0.357391
C5    C     C_R   0.989423 0.436823 0.873972 0.595404
C6    C     C_R   0.041533 0.436174 0.933011 -0.008460
C7    C     C_R   0.074785 0.500892 0.967223 -0.108070
C8    C     C_R   0.087076 0.630122 0.977673 0.427409
C9    C     C_R   0.138300 0.628963 0.036229 -0.133350
C10   C     C_R   0.156100 0.564806 0.061656 -0.080778
C11   C     C_R   0.125106 0.500571 0.027063 -0.056847
C12   C     C_3   0.586879 0.718296 0.333796 0.404314
C13   C     C_R   0.061117 0.372111 0.958667 -0.073524
C14   C     C_R   0.112500 0.372029 0.017058 -0.086266
C15   C     C_R   0.144671 0.435982 0.052132 -0.029642
C16   C     C_3   0.021570 0.720963 0.254477 -0.094879
C17   C     C_R   0.193394 0.436767 0.111885 0.584739
C18   C     C_R   0.202906 0.563854 0.121198 0.579036
C19   C     C_2   0.770040 0.488233 0.770734 -0.102821
C20   C     C_3   0.719154 0.493946 0.706978 0.023288
C21   C     C_1   0.002557 0.515302 0.685282 0.045232
C22   C     C_2   0.048443 0.514968 0.741069 -0.108809
C23   C     C_3   0.527466 0.353501 0.349060 0.288288
C24   C     C_2   0.926622 0.499977 0.787336 0.214660
C25   C     C_R   0.411598 0.531717 0.229577 0.105879
C26   C     C_R   0.447959 0.538663 0.289992 0.063863
C27   C     C_R   0.187574 0.484598 0.312623 0.040107
C28   C     C_3   0.142807 0.687629 0.593091 0.378553
C29   C     C_R   0.146936 0.475374 0.251508 0.372588
C30   C     C_R   0.258581 0.501784 0.209138 0.167991
C31   C     C_2   0.861209 0.487024 0.666830 -0.246359
C32   C     C_R   0.390095 0.703739 0.479105 -0.259879
C33   C     C_R   0.531749 0.726492 0.509197 0.016164
C34   C     C_3   0.539706 0.323982 0.285370 0.238557
C35   C     C_R   0.578017 0.798869 0.517702 -0.123021
C36   C     C_R   0.478942 0.849186 0.497602 0.022652
C37   C     C_R   0.331736 0.825468 0.469560 -0.070869
C38   C     C_R   0.286418 0.752528 0.461670 0.051354
C39   C     C_R   0.525292 0.969221 0.459860 -0.070979
C40   C     C_3   0.075577 0.759789 0.606214 -0.338640
C41   C     C_R   0.583611 0.040119 0.466890 -0.126805
C42   C     C_R   0.643338 0.070798 0.521447 0.074501
C43   C     C_R   0.641495 0.028024 0.569873 0.177180
C44   C     C_R   0.588260 0.955934 0.561370 -0.080365
C45   C     C_3   0.999315 0.278760 0.685068 0.297741
C46   C     C_R   0.529984 0.925953 0.506521 0.025403
C47   C     C_R   0.856197 0.171652 0.547169 0.069848
C48   C     C_R   0.902907 0.245135 0.550460 -0.009208
C49   C     C_R   0.652625 0.268025 0.504487 0.091676
C50   C     C_R   0.601553 0.196379 0.503496 -0.154718
C51   C     C_R   0.700495 0.147465 0.525955 0.004619
C52   C     C_3   0.054969 0.307774 0.398519 0.376470
C53   C     C_R   0.797905 0.292540 0.531160 -0.259833
C54   C     C_3   0.144732 0.241016 0.384257 -0.306507
C55   C     C_3   0.543918 0.679045 0.653822 0.687748
C56   C     C_3   0.027809 0.260174 0.747482 -0.309550
C57   C     C_3   0.517794 0.758599 0.663801 -0.387229
C58   C     C_3   0.698750 0.669426 0.738897 0.206673
C59   C     C_3   0.443847 0.871789 0.302929 0.180240
C60   C     C_3   0.537166 0.348465 0.188854 0.178127
C61   C     C_3   0.928751 0.722212 0.973937 0.235354
C62   C     C_3   0.907152 0.463704 0.197713 0.254782
C63   C     C_3   0.537894 0.289618 0.668032 0.343679
C64   C     C_3   0.511391 0.220976 0.697756 -0.356156
C65   C     C_R   0.335369 0.517239 0.330477 -0.395595
H1    H     H_    0.623475 0.714800 0.380319 0.043670
H2    H     H_    0.763193 0.806835 0.334607 0.040177
H3    H     H_    0.633111 0.790019 0.673524 0.086817
H4    H     H_    0.434464 0.767991 0.700856 0.125835
H5    H     H_    0.463700 0.778120 0.624491 0.030785
H6    H     H_    0.405643 0.371979 0.357078 -0.005204
H7    H     H_    0.618474 0.398579 0.357634 0.062684
H8    H     H_    0.445870 0.279595 0.277057 0.034298
H9    H     H_    0.660484 0.302967 0.279504 0.048325
H10   H     H_    0.644859 0.794064 0.268984 -0.002334
H11   H     H_    0.140042 0.744693 0.241552 0.119290
H12   H     H_    0.148527 0.791268 0.641115 0.099943
H13   H     H_    0.973540 0.335692 0.685887 0.028955
H14   H     H_    0.893967 0.244680 0.667373 -0.030289
H15   H     H_    0.127390 0.295467 0.768170 0.153981
H16   H     H_    0.916997 0.266477 0.773340 0.136602
H17   H     H_    0.059387 0.204177 0.747334 0.094874
H18   H     H_    0.635401 0.283960 0.635695 -0.046505
H19   H     H_    0.425255 0.298293 0.644779 0.124248
H20   H     H_    0.624636 0.207722 0.718554 0.106959
H21   H     H_    0.470245 0.177241 0.664743 0.090107
H22   H     H_    0.924111 0.668110 0.328709 0.105138
H23   H     H_    0.078615 0.789279 0.566186 0.072270
H24   H     H_    0.418037 0.226638 0.731888 0.139045
H25   H     H_    0.125779 0.321443 0.034817 0.114304
H26   H     H_    0.037017 0.321535 0.933523 0.113033
H27   H     H_    0.163385 0.679154 0.061871 0.126320
H28   H     H_    0.172827 0.527639 0.753819 0.120755
H29   H     H_    0.679047 0.479364 0.803547 0.086208
H30   H     H_    0.366493 0.523445 0.376721 0.092603
H31   H     H_    0.123656 0.648457 0.310553 -0.000910
H32   H     H_    0.847690 0.458241 0.623814 0.060247
H33   H     H_    0.487386 0.178332 0.482982 0.085114
H34   H     H_    0.949990 0.753247 0.621319 0.127467
H35   H     H_    0.582473 0.071272 0.429195 0.073088
H36   H     H_    0.479622 0.947907 0.417433 0.121407
H37   H     H_    0.689178 0.815819 0.540821 0.070952
H38   H     H_    0.588730 0.923512 0.598319 0.072908
H39   H     H_    0.252482 0.863309 0.454608 0.068631
H40   H     H_    0.835683 0.348378 0.531984 0.063508
H41   H     H_    0.355187 0.647605 0.472473 0.061135
H42   H     H_    0.936596 0.763610 0.257444 0.066689
H43   H     H_    0.266997 0.696909 0.579407 -0.146338
H44   H     H_    0.077597 0.658767 0.555659 0.094129
H45   H     H_    0.106572 0.336105 0.439213 0.097636
H46   H     H_    0.840560 0.259239 0.370477 0.193661
H47   H     H_    0.836516 0.334875 0.413313 0.164218
H48   H     H_    0.698496 0.642926 0.780427 0.078295
H49   H     H_    0.805497 0.652923 0.713914 0.062679
H50   H     H_    0.708901 0.727422 0.751167 0.030554
H51   H     H_    0.384695 0.692139 0.283456 0.173773
H52   H     H_    0.375007 0.665392 0.352364 0.104003
H53   H     H_    0.374866 0.829500 0.274870 0.049775
H54   H     H_    0.519547 0.906127 0.275337 0.019246
H55   H     H_    0.355625 0.905003 0.325857 0.057789
H56   H     H_    0.087587 0.208129 0.346383 0.097569
H57   H     H_    0.444297 0.304768 0.176882 0.089138
H58   H     H_    0.659087 0.329395 0.181818 0.018328
H59   H     H_    0.523081 0.390493 0.158683 0.081204
H60   H     H_    0.506731 0.600710 0.173165 0.214391
H61   H     H_    0.538333 0.514321 0.154442 0.153740
H62   H     H_    0.824124 0.684766 0.960513 0.028238
H63   H     H_    0.913913 0.772104 0.952871 0.074873
H64   H     H_    0.929506 0.735243 0.022285 -0.014866
H65   H     H_    0.783382 0.455005 0.213598 0.115182
H66   H     H_    0.932974 0.521795 0.195698 0.039930
H67   H     H_    0.144635 0.208980 0.422881 0.086811
H68   H     H_    0.906505 0.436478 0.153021 0.013023
H69   H     H_    0.796375 0.037791 0.638554 0.183908
H70   H     H_    0.695883 0.111191 0.632336 0.171934
H71   H     H_    0.066089 0.125614 0.535567 0.189304
H72   H     H_    0.004354 0.134497 0.606124 0.179558
H73   H     H_    0.967319 0.688248 0.169345 0.193242
H74   H     H_    0.847092 0.649804 0.216855 0.221445
H75   H     H_    0.269732 0.255244 0.372458 0.123012
H76   H     H_    0.438309 0.651991 0.631432 0.055760
N1    N     N_R   0.975395 0.500212 0.848850 -0.430693
N2    N     N_R   0.217950 0.500325 0.146423 -0.429249
N3    N     N_3   0.889595 0.286797 0.408642 -0.532068
N4    N     N_3   0.413411 0.707056 0.327533 -0.469894
N5    N     N_3   0.533766 0.553064 0.189463 -0.496369
N6    N     N_3   0.684997 0.055909 0.628533 -0.506064
N7    N     N_3   0.966372 0.121401 0.562746 -0.505298
N8    N     N_3   0.966574 0.665501 0.209548 -0.482087
O1    O     O_2   0.896730 0.461690 0.361000 -0.447306
O2    O     O_2   0.238937 0.251363 0.544651 -0.501688
O3    O     O_3   0.136573 0.265533 0.651954 -0.606048
O4    O     O_3   0.137170 0.462400 0.432040 -0.503714
O5    O     O_3   0.560670 0.583970 0.528500 -0.471498
O6    O     O_2   0.373560 0.329680 0.473470 -0.470068
O7    O     O_3   0.556207 0.298050 0.383906 -0.694537
O8    O     O_2   0.389050 0.446089 0.705897 -0.470282
O9    O     O_3   0.581136 0.345416 0.710553 -0.610856
O10   O     O_2   0.996880 0.619496 0.858866 -0.559357
O11   O     O_2   0.956857 0.380822 0.844844 -0.612430
O12   O     O_3   0.680508 0.667089 0.619831 -0.652262
O13   O     O_2   0.210038 0.380810 0.133427 -0.585710
O14   O     O_2   0.229541 0.619996 0.150788 -0.614678
O15   O     O_3   0.657500 0.588540 0.395070 -0.482944
O16   O     O_2   0.784524 0.547018 0.294257 -0.486587
O17   O     O_3   0.061540 0.349085 0.350307 -0.610492
O18   O     O_3   0.662926 0.669350 0.295580 -0.672213
O19   O     O_2   0.816140 0.670340 0.526560 -0.458238
O20   O     O_3   0.069580 0.624410 0.423530 -0.507491
O21   O     O_2   0.950768 0.750388 0.455902 -0.496321
O22   O     O_3   0.554220 0.647768 0.708064 -0.656485
O23   O     O_3   0.094085 0.746962 0.354946 -0.622741
O24   O     O_3   0.538915 0.843165 0.345154 -0.652162
O25   O     O_3   0.518345 0.377311 0.247103 -0.672416
O26   O     O_3   0.074229 0.694980 0.954957 -0.599603
O27   O     O_3   0.011184 0.431646 0.234949 -0.609872
O28   O     O_2   0.292960 0.538340 0.639040 -0.453488
O29   O     O_3   0.052540 0.537650 0.567960 -0.493993
O30   O     O_3   0.532200 0.411510 0.604930 -0.486963
O31   O     O_3   0.139426 0.651768 0.644547 -0.636321
O32   O     O_3   0.629030 0.416090 0.471500 -0.479517
O33   O     O_3   0.120120 0.375640 0.576470 -0.471047
P1    P     P_3+3 0.067040 0.441110 0.370020 1.040281
P2    P     P_3+3 0.640420 0.660110 0.543790 0.971789
P3    P     P_3+3 0.096917 0.717756 0.425732 0.927403
P4    P     P_3+3 0.122660 0.558950 0.629980 1.018555
P5    P     P_3+3 0.099437 0.283345 0.579484 0.930335
P6    P     P_3+3 0.637346 0.583469 0.318958 0.943100
P7    P     P_3+3 0.554317 0.327230 0.458357 0.936152
P8    P     P_3+3 0.554157 0.426688 0.681492 0.994169

loop_
_geom_bond_atom_site_label_1
_geom_bond_atom_site_label_2
_ccdc_geom_bond_type
C37   H39   S    
C19   C24   D    
Ba2   O4    S    
C28   O31   S    
C59   O24   S    
C16   H42   S    
C63   C64   S    
C60   H57   S    
H69   N6    S    
Ba1   O32   S    
C5    C6    A    
C38   P3    S    
O2    P5    D    
C43   C44   A    
H71   N7    S    
C18   O14   D    
C17   N2    Am   
C47   N7    S    
C28   H43   S    
O12   P2    S    
C32   C38   A    
C45   H13   S    
C57   H3    S    
H51   N4    S    
C1    H2    S    
C23   H6    S    
C22   C24   S    
C17   O13   D    
C23   H7    S    
C56   H15   S    
C64   H21   S    
C36   C37   A    
C32   C33   A    
O30   P8    S    
C55   C57   S    
O21   P3    D    
H52   N4    S    
C13   C14   A    
C44   H38   S    
Ba1   O19   S    
C23   O7    S    
Ba1   O1    S    
C59   H54   S    
Ba1   Ba2   S    
C61   H63   S    
Ba1   O4    S    
C48   P5    S    
C7    C11   A    
C34   H9    S    
C15   C17   A    
C27   C65   A    
C42   C51   S    
C62   H65   S    
C14   C15   A    
C21   C31   D    
C21   C22   D    
C61   H64   S    
O29   P4    S    
C43   N6    S    
H60   N5    S    
C52   N3    S    
C54   H75   S    
C45   H14   S    
C62   H68   S    
C40   H12   S    
C19   C20   S    
C59   H53   S    
C10   C18   A    
C58   O22   S    
C39   C41   A    
H70   N6    S    
Ba2   O29   S    
O18   P6    S    
O16   P6    D    
C12   O18   S    
C24   N1    S    
C5    N1    Am   
C44   C46   A    
C4    C16   S    
C5    O11   D    
C52   C54   S    
C55   H76   S    
C29   O27   S    
C49   C50   A    
C54   H56   S    
C63   H19   S    
C26   C65   A    
H47   N3    S    
O4    P1    S    
C22   H28   S    
O15   P6    S    
C64   H20   S    
C60   H59   S    
C6    C7    A    
C3    N1    Am   
O31   P4    S    
C30   N2    S    
C4    O23   S    
Ba1   P2    S    
C12   N4    S    
Ba1   O20   S    
C39   H36   S    
C26   P6    S    
C59   H55   S    
C40   H23   S    
Ba2   O30   S    
C3    O10   D    
H46   N3    S    
Ba1   O5    S    
C41   C42   A    
O6    P7    D    
C35   C36   A    
C34   H8    S    
C56   H17   S    
O23   P3    S    
C35   H37   S    
C62   O27   S    
C29   C30   A    
C55   O12   S    
C16   H11   S    
C60   O25   S    
O19   P2    D    
C52   H45   S    
C58   H50   S    
Ba2   O33   S    
C10   C11   A    
C63   H18   S    
H73   N8    S    
C63   O9    S    
C1    C12   S    
C55   O22   S    
C9    H27   S    
C1    O24   S    
C19   H29   S    
O3    P5    S    
C34   O25   S    
C6    C13   A    
Ba1   P1    S    
C58   H49   S    
Ba2   O28   S    
C20   P8    S    
C16   N8    S    
C1    H10   S    
C40   H34   S    
C4    H31   S    
C37   C38   A    
C49   P7    S    
C50   C51   A    
H74   N8    S    
C20   C31   S    
C62   H66   S    
Ba2   O5    S    
O17   P1    S    
C33   C35   A    
C25   C30   A    
O33   P5    S    
C8    O26   S    
C36   C46   S    
O8    P8    D    
H61   N5    S    
C42   C43   A    
C52   O17   S    
O1    P1    D    
O32   P7    S    
C13   H26   S    
C60   H58   S    
C54   H67   S    
C9    C10   A    
C14   H25   S    
C64   H24   S    
O28   P4    D    
C45   O3    S    
O5    P2    S    
C4    H22   S    
C57   H5    S    
H72   N7    S    
C50   H33   S    
C48   C53   A    
C61   O26   S    
C11   C15   A    
C28   H44   S    
C32   H41   S    
C41   H35   S    
C25   N5    S    
C27   C29   A    
C23   C34   S    
O7    P7    S    
C45   C56   S    
C21   P4    S    
Ba1   O15   S    
C33   P2    S    
C47   C51   A    
Ba1   O29   S    
C39   C46   A    
C27   P1    S    
C49   C53   A    
Ba2   O32   S    
C61   H62   S    
Ba2   P4    S    
C8    C9    A    
C65   H30   S    
O9    P8    S    
C2    C3    A    
Ba2   O6    S    
C47   C48   A    
C53   H40   S    
C25   C26   A    
C12   H1    S    
C18   N2    Am   
C28   C40   S    
C58   H48   S    
C31   H32   S    
C2    C7    A    
C56   H16   S    
C2    C8    A    
O20   P3    S    
C57   H4    S    
