data_mof_unit_54969.cif
_audit_creation_date              2012-12-11T17:44:02-0500
_audit_creation_method            fapswitch 2.2
_symmetry_space_group_name_H-M    P1
_symmetry_Int_Tables_number       1
_space_group_crystal_system       triclinic
_cell_length_a                    20.365795
_cell_length_b                    22.825881
_cell_length_c                    6.928264
_cell_angle_alpha                 89.894751
_cell_angle_beta                  86.45094
_cell_angle_gamma                 90.029175
_cell_volume                      3214.53989444

loop_
_atom_site_label
_atom_site_type_symbol
_atom_type_description
_atom_site_fract_x
_atom_site_fract_y
_atom_site_fract_z
_atom_type_partial_charge
O1    O     O_R   0.751270 0.447300 0.600030 -0.553258
O2    O     O_R   0.248730 0.947300 0.399970 -0.551419
O3    O     O_R   0.613530 0.440160 0.952150 -0.549372
O4    O     O_R   0.386470 0.940160 0.047850 -0.537776
O5    O     O_R   0.613050 0.552700 0.122560 -0.541906
O6    O     O_R   0.386950 0.052700 0.877440 -0.530709
C1    C     C_R   0.592191 0.425408 0.788076 0.718709
C2    C     C_R   0.407510 0.925354 0.212593 0.712648
O7    O     O_R   0.750780 0.440350 0.929820 -0.551627
O8    O     O_R   0.249220 0.940350 0.070180 -0.552058
O9    O     O_R   0.751280 0.552900 0.100070 -0.533578
O10   O     O_R   0.248720 0.052900 0.899930 -0.531584
C3    C     C_R   0.773880 0.425944 0.757078 0.660910
C4    C     C_R   0.226178 0.925892 0.243096 0.661720
O11   O     O_R   0.613040 0.447100 0.622520 -0.516166
O12   O     O_R   0.386960 0.947100 0.377480 -0.525697
O13   O     O_3   0.682160 0.536920 0.777780 -0.360077
O14   O     O_3   0.317840 0.036920 0.222220 -0.363523
V1    V     V_3+5 0.682160 0.493150 0.052630 1.438382
V2    V     V_3+5 0.317840 0.993150 0.947370 1.456998
O15   O     O_R   0.750790 0.559840 0.429870 -0.534438
O16   O     O_R   0.249210 0.059840 0.570130 -0.537465
C5    C     C_R   0.776900 0.570898 0.257341 0.764926
C6    C     C_R   0.223420 0.071307 0.742626 0.765782
O17   O     O_R   0.613540 0.559650 0.452200 -0.505667
O18   O     O_R   0.386460 0.059650 0.547800 -0.525312
C7    C     C_R   0.593371 0.576125 0.286400 0.782685
C8    C     C_R   0.406404 0.076295 0.713080 0.792798
V3    V     V_3+5 0.682160 0.506850 0.552630 1.500810
V4    V     V_3+5 0.317840 0.006850 0.447370 1.479556
O19   O     O_3   0.682150 0.463080 0.277610 -0.379551
O20   O     O_3   0.317850 0.963080 0.722390 -0.377037
C9    C     C_R   0.572219 0.861742 0.093457 -0.167310
C10   C     C_R   0.434241 0.357015 0.959715 -0.170984
H1    H     H_    0.526556 0.944585 0.058265 0.160201
H2    H     H_    0.479926 0.439972 0.988608 0.151169
H3    H     H_    0.617952 0.878880 0.029168 0.141598
H4    H     H_    0.392155 0.371817 0.048983 0.139188
C11   C     C_R   0.460998 0.882833 0.205724 -0.090740
C12   C     C_R   0.538395 0.382793 0.799881 -0.081049
C13   C     C_R   0.473493 0.597629 0.310314 -0.008083
C14   C     C_R   0.524636 0.099767 0.645504 -0.010561
C15   C     C_R   0.420778 0.635966 0.295345 -0.168734
C16   C     C_R   0.577271 0.138891 0.637022 -0.167673
C17   C     C_R   0.430585 0.695446 0.266840 -0.128212
C18   C     C_R   0.568482 0.197372 0.684787 -0.124462
C19   C     C_R   0.493951 0.720345 0.256019 0.090878
C20   C     C_R   0.505755 0.220680 0.735209 0.090933
C21   C     C_R   0.549530 0.681866 0.253855 -0.063053
C22   C     C_R   0.451125 0.181156 0.757164 -0.058740
C23   C     C_R   0.502935 0.782328 0.230027 0.002079
C24   C     C_R   0.497133 0.281896 0.777016 -0.000372
C25   C     C_R   0.565068 0.803154 0.154806 0.027800
C26   C     C_R   0.439122 0.299816 0.885391 0.027723
C27   C     C_R   0.619728 0.765852 0.147878 0.211190
C28   C     C_R   0.385567 0.261343 0.910535 0.209683
C29   C     C_R   0.612655 0.707366 0.209488 -0.149727
C30   C     C_R   0.389917 0.204678 0.832033 -0.148745
C31   C     C_R   0.452465 0.824780 0.274489 0.214290
C32   C     C_R   0.544040 0.326264 0.717095 0.207594
C33   C     C_R   0.520078 0.900174 0.112024 -0.188221
C34   C     C_R   0.484152 0.396961 0.922781 -0.188828
C35   C     C_R   0.538877 0.619668 0.287334 -0.166104
C36   C     C_R   0.460842 0.119901 0.708373 -0.169830
H5    H     H_    0.387286 0.720879 0.242160 0.156634
H6    H     H_    0.612720 0.223051 0.691379 0.155130
H7    H     H_    0.370677 0.619726 0.304651 0.161721
H8    H     H_    0.626723 0.123673 0.598181 0.155795
C37   C     C_R   0.171465 0.881860 0.261821 -0.041490
C38   C     C_R   0.828730 0.382068 0.738588 -0.041081
C39   C     C_R   0.145731 0.856599 0.096828 -0.217678
C40   C     C_R   0.854786 0.356955 0.903608 -0.216597
C41   C     C_R   0.094030 0.815706 0.114255 -0.143489
C42   C     C_R   0.906629 0.316236 0.886171 -0.143718
C43   C     C_R   0.066430 0.798850 0.298287 0.425089
C44   C     C_R   0.934049 0.299414 0.702102 0.424825
C45   C     C_R   0.092260 0.823975 0.462158 -0.181714
C46   C     C_R   0.907903 0.324408 0.538242 -0.181506
C47   C     C_R   0.143932 0.864777 0.444777 -0.199639
C48   C     C_R   0.856116 0.365033 0.555630 -0.200777
C49   C     C_R   0.909944 0.680252 0.386663 -0.153798
C50   C     C_R   0.090525 0.180915 0.613283 -0.152329
C51   C     C_R   0.857703 0.639913 0.403884 -0.188531
C52   C     C_R   0.142650 0.140488 0.595988 -0.191045
C53   C     C_R   0.939621 0.695034 0.203142 0.421877
C54   C     C_R   0.061369 0.196008 0.796988 0.420516
N1    N     N_2   0.013267 0.757660 0.326393 -0.306716
N2    N     N_2   0.987265 0.258336 0.673878 -0.306418
N3    N     N_2   0.992892 0.736112 0.175112 -0.305416
N4    N     N_2   0.008112 0.237041 0.825146 -0.305203
C55   C     C_R   0.833418 0.613222 0.239160 -0.001633
C56   C     C_R   0.167295 0.113989 0.760809 -0.006355
H9    H     H_    0.836069 0.629927 0.546861 0.143493
H10   H     H_    0.163838 0.130206 0.452878 0.143275
H11   H     H_    0.926715 0.699801 0.517057 0.138113
H12   H     H_    0.073397 0.200249 0.482800 0.138163
H13   H     H_    0.072059 0.811889 0.604962 0.120391
H14   H     H_    0.927943 0.312351 0.395405 0.120365
H15   H     H_    0.162147 0.883079 0.575268 0.127850
H16   H     H_    0.837683 0.383228 0.425088 0.127697
C57   C     C_R   0.863401 0.627869 0.056829 -0.153106
C58   C     C_R   0.137912 0.129046 0.943326 -0.152397
C59   C     C_R   0.915501 0.668223 0.039618 -0.185943
C60   C     C_R   0.085959 0.169485 0.960607 -0.189530
H17   H     H_    0.846419 0.608319 0.926627 0.133788
H18   H     H_    0.155155 0.109662 0.073656 0.138682
H19   H     H_    0.075817 0.797582 0.983571 0.134479
H20   H     H_    0.925076 0.298203 0.016859 0.134377
H21   H     H_    0.937296 0.678716 0.897191 0.120788
H22   H     H_    0.064589 0.180215 0.103178 0.121451
H23   H     H_    0.165469 0.868482 0.953392 0.129630
H24   H     H_    0.835193 0.368820 0.047043 0.129692
N5    N     N_2   0.683783 0.787047 0.086343 -0.517109
H25   H     H_    0.687203 0.807896 0.954021 0.253726
C61   C     C_3   0.719159 0.815747 0.234498 -0.482608
H26   H     H_    0.694253 0.857118 0.280683 0.179285
H27   H     H_    0.769895 0.826099 0.176610 0.200658
H28   H     H_    0.722449 0.786587 0.362023 0.222789
N6    N     N_2   0.324753 0.280048 0.005116 -0.521469
H29   H     H_    0.328397 0.297885 0.140603 0.254627
C62   C     C_3   0.281121 0.311555 0.884389 -0.477322
H30   H     H_    0.302998 0.354242 0.837853 0.184106
H31   H     H_    0.233613 0.319794 0.967198 0.199798
H32   H     H_    0.271084 0.285411 0.754456 0.222792
N7    N     N_2   0.396738 0.810937 0.401324 -0.549735
H33   H     H_    0.354013 0.832927 0.374791 0.240245
C63   C     C_3   0.410039 0.810116 0.604047 -0.480510
H34   H     H_    0.365180 0.796105 0.691279 0.182543
H35   H     H_    0.424304 0.854576 0.651677 0.213930
H36   H     H_    0.450131 0.778648 0.630485 0.203517
N8    N     N_2   0.592539 0.315931 0.563614 -0.550585
H37   H     H_    0.636817 0.337082 0.575620 0.244105
C64   C     C_3   0.568183 0.320556 0.372352 -0.466502
H38   H     H_    0.607933 0.308862 0.262253 0.181373
H39   H     H_    0.551937 0.366147 0.344882 0.214385
H40   H     H_    0.526351 0.289972 0.357102 0.200590
C65   C     C_2   0.457412 0.534217 0.340435 0.707021
O21   O     O_2   0.494539 0.501658 0.421839 -0.564892
O22   O     O_R   0.398225 0.511941 0.278737 -0.668925
H41   H     H_    0.392534 0.468583 0.307336 0.289999
C66   C     C_2   0.539378 0.037564 0.592237 0.718414
O23   O     O_2   0.507702 0.997309 0.668608 -0.571157
O24   O     O_R   0.591226 0.025043 0.456664 -0.666950
H42   H     H_    0.596682 0.981473 0.432180 0.294740
C67   C     C_2   0.674373 0.675616 0.222775 0.792835
O25   O     O_2   0.694538 0.666242 0.381996 -0.555792
O26   O     O_R   0.713728 0.663293 0.055416 -0.639219
H43   H     H_    0.691604 0.673014 0.932235 0.277531
C68   C     C_2   0.327136 0.174215 0.819995 0.788963
O27   O     O_2   0.304923 0.168320 0.661740 -0.562099
O28   O     O_R   0.289517 0.158585 0.987769 -0.633633
H44   H     H_    0.313510 0.164826 0.109966 0.282221

loop_
_geom_bond_atom_site_label_1
_geom_bond_atom_site_label_2
_ccdc_geom_bond_type
V4    O20   S    
C40   H24   S    
C12   C32   A    
C5    C55   S    
C29   C67   S    
C9    C25   A    
C22   C36   A    
O26   H43   S    
O4    C2    A    
V1    O19   S    
C67   O25   D    
C21   C29   A    
C19   C21   A    
C65   O22   S    
O9    V1    S    
C42   C44   A    
C21   C35   A    
C47   H15   S    
C44   C46   A    
C18   H6    S    
O3    C1    A    
C66   O24   S    
C49   H11   S    
C46   C48   A    
C41   H19   S    
C3    C38   S    
O12   V4    S    
C61   H26   S    
C51   H9    S    
C10   C34   A    
C12   C34   A    
C17   C19   A    
C37   C39   A    
O7    C3    A    
C62   H32   S    
C24   C32   A    
C49   C51   A    
O5    C7    A    
C66   O23   D    
O7    V1    S    
O6    C8    A    
O8    V2    S    
C61   H27   S    
C39   H23   S    
C46   H14   S    
C64   H40   S    
C1    C12   S    
O3    V1    S    
O14   V4    S    
C2    C11   S    
C44   N2    S    
C13   C65   S    
C53   C59   A    
C30   C68   S    
C56   C58   A    
C20   C22   A    
C54   C60   A    
C2    O12   A    
C48   H16   S    
C57   H17   S    
C41   C43   A    
C14   C16   A    
C55   C57   A    
H2    C34   S    
C6    C56   S    
C32   N8    S    
C67   O26   S    
C24   C26   A    
O11   V3    S    
C18   C20   A    
C25   C27   A    
O15   C5    A    
O17   V3    S    
C11   C33   A    
C26   C28   A    
C50   H12   S    
C38   C48   A    
C22   C30   A    
C40   C42   A    
C54   N4    S    
C39   C41   A    
C53   N3    S    
O13   V1    S    
C19   C23   A    
C1    O11   A    
C16   C18   A    
C50   C54   A    
O15   V3    S    
C9    H3    S    
C23   C25   A    
C63   H35   S    
C15   H7    S    
C43   C45   A    
O28   H44   S    
C61   H28   S    
C11   C31   A    
O10   V2    S    
C14   C66   S    
O1    V3    S    
C45   C47   A    
H1    C33   S    
C52   H10   S    
N6    H29   S    
C58   C60   A    
C15   C17   A    
C62   H30   S    
N6    C62   S    
C7    C35   S    
C8    C36   S    
C43   N1    S    
N2    N4    D    
C10   C26   A    
C50   C52   A    
C27   C29   A    
C17   H5    S    
N7    H33   S    
C4    C37   S    
O16   C6    A    
C16   H8    S    
C23   C31   A    
C13   C35   A    
C63   H34   S    
C14   C36   A    
O6    V2    S    
N7    C63   S    
N5    H25   S    
V2    O20   S    
O16   V4    S    
C10   H4    S    
C13   C15   A    
N8    C64   S    
O22   H41   S    
O18   V4    S    
O5    V1    S    
C31   N7    S    
C27   N5    S    
C65   O21   D    
O10   C6    A    
O18   C8    A    
C57   C59   A    
O2    V4    S    
C59   H21   S    
C68   O28   S    
C63   H36   S    
V3    O19   S    
O13   V3    S    
C60   H22   S    
C64   H38   S    
C51   C55   A    
O9    C5    A    
C28   N6    S    
C28   C30   A    
C58   H18   S    
O14   V2    S    
N8    H37   S    
O2    C4    A    
C62   H31   S    
C37   C47   A    
C42   H20   S    
O4    V2    S    
C20   C24   A    
O1    C3    A    
C9    C33   A    
C64   H39   S    
N1    N3    D    
C38   C40   A    
C45   H13   S    
C52   C56   A    
C68   O27   D    
C49   C53   A    
O24   H42   S    
O8    C4    A    
N5    C61   S    
O17   C7    A    
