data_mof_unit_40025.cif
_audit_creation_date              2012-12-11T18:04:50-0500
_audit_creation_method            fapswitch 2.2
_symmetry_space_group_name_H-M    P1
_symmetry_Int_Tables_number       1
_space_group_crystal_system       triclinic
_cell_length_a                    8.201471
_cell_length_b                    12.729655
_cell_length_c                    22.919935
_cell_angle_alpha                 97.221865
_cell_angle_beta                  89.500557
_cell_angle_gamma                 98.567726
_cell_volume                      2347.28753936

loop_
_atom_site_label
_atom_site_type_symbol
_atom_type_description
_atom_site_fract_x
_atom_site_fract_y
_atom_site_fract_z
_atom_type_partial_charge
Ba1   Ba    Ba6+2 0.856210 0.551220 0.472190 1.651762
Ba2   Ba    Ba6+2 0.333620 0.448870 0.527810 1.660192
C1    C     C_3   0.615618 0.916941 0.302839 -0.384157
C2    C     C_3   0.651495 0.825599 0.335190 0.340212
C3    C     C_3   0.473967 0.285807 0.349895 0.294915
C4    C     C_3   0.451142 0.251811 0.284116 -0.365033
C5    C     C_3   0.046154 0.217460 0.690636 0.310343
C6    C     C_3   0.098455 0.200448 0.752075 0.348257
C7    C     C_3   0.545762 0.180982 0.662863 0.319501
C8    C     C_3   0.562057 0.080045 0.689764 -0.341841
C9    C     C_R   0.345516 0.522801 0.332052 -0.305649
C10   C     C_R   0.190614 0.533838 0.929803 -0.031446
C11   C     C_R   0.156611 0.520817 0.868745 0.674900
C12   C     C_3   0.145791 0.775635 0.310370 0.324747
C13   C     C_R   0.926194 0.387895 0.879801 0.597739
C14   C     C_R   0.969129 0.389057 0.939886 -0.024268
C15   C     C_R   0.096279 0.466825 0.965616 -0.058178
C16   C     C_R   0.317405 0.612078 0.955789 -0.038073
C17   C     C_R   0.345102 0.625734 0.016641 -0.064221
C18   C     C_R   0.254829 0.556560 0.052766 -0.020994
C19   C     C_R   0.134610 0.474272 0.026676 -0.047456
C20   C     C_R   0.887424 0.314622 0.975032 -0.037656
C21   C     C_R   0.931040 0.318385 0.034397 -0.066614
C22   C     C_R   0.054007 0.398883 0.061185 -0.025973
C23   C     C_3   0.128826 0.802814 0.248227 -0.336704
C24   C     C_R   0.101026 0.403986 0.121116 0.597020
C25   C     C_R   0.282525 0.568050 0.114245 0.579916
C26   C     C_2   0.782625 0.445936 0.770134 -0.113265
C27   C     C_3   0.722977 0.472279 0.711847 -0.043374
C28   C     C_1   0.003865 0.535524 0.688972 -0.000954
C29   C     C_2   0.037733 0.555865 0.747320 0.379787
C30   C     C_2   0.943254 0.480836 0.787621 0.112185
C31   C     C_R   0.420474 0.539202 0.230906 -0.101641
C32   C     C_R   0.461168 0.555360 0.290959 -0.017652
C33   C     C_R   0.188946 0.472730 0.314347 0.028445
C34   C     C_3   0.223404 0.775062 0.592063 0.281436
C35   C     C_R   0.141953 0.463601 0.254458 -0.101940
C36   C     C_R   0.257335 0.497399 0.211133 0.189600
C37   C     C_2   0.864462 0.476069 0.669520 -0.343949
C38   C     C_R   0.760906 0.179840 0.524501 -0.283775
C39   C     C_R   0.434055 0.809828 0.473731 -0.284291
C40   C     C_R   0.407948 0.988387 0.454789 -0.101894
C41   C     C_R   0.344917 0.880332 0.450795 -0.009189
C42   C     C_R   0.578751 0.847471 0.506302 0.066196
C43   C     C_R   0.641719 0.958970 0.513308 -0.064259
C44   C     C_R   0.555821 0.029548 0.485963 -0.060745
C45   C     C_3   0.225919 0.895272 0.604154 -0.308524
C46   C     C_R   0.617967 0.140018 0.491778 0.042338
C47   C     C_R   0.850199 0.111691 0.549218 -0.007209
C48   C     C_R   0.788611 0.002318 0.545514 -0.078118
C49   C     C_3   0.972275 0.222919 0.405064 0.280999
C50   C     C_3   0.964204 0.102345 0.391743 -0.340706
C51   C     C_3   0.673287 0.693748 0.650790 0.243109
C52   C     C_3   0.595841 0.719090 0.710455 -0.244127
H1    H     H_    0.744729 0.857250 0.370383 0.078125
H2    H     H_    0.299904 0.927135 0.644259 0.127762
H3    H     H_    0.280211 0.935332 0.566952 0.067828
H4    H     H_    0.098600 0.913271 0.611356 0.167739
H5    H     H_    0.849370 0.242344 0.417486 -0.001716
H6    H     H_    0.060118 0.251477 0.442128 0.080600
H7    H     H_    0.878437 0.071634 0.354405 0.117747
H8    H     H_    0.919853 0.063015 0.430470 0.084678
H9    H     H_    0.088546 0.082263 0.380037 0.138052
H10   H     H_    0.799591 0.676238 0.656303 0.060945
H11   H     H_    0.597929 0.620955 0.628324 0.065092
H12   H     H_    0.574522 0.981002 0.334471 0.090719
H13   H     H_    0.676335 0.783151 0.738343 0.166107
H14   H     H_    0.476618 0.747185 0.703792 0.163074
H15   H     H_    0.534886 0.793220 0.355844 -0.051217
H16   H     H_    0.516673 0.887176 0.269511 0.132573
H17   H     H_    0.356088 0.307782 0.368001 0.021895
H18   H     H_    0.572369 0.356403 0.356926 0.053797
H19   H     H_    0.351874 0.181948 0.275921 0.138243
H20   H     H_    0.416583 0.318452 0.262386 0.066636
H21   H     H_    0.567792 0.229583 0.264765 0.134286
H22   H     H_    0.727959 0.950434 0.280116 0.138889
H23   H     H_    0.161174 0.736536 0.216123 0.119736
H24   H     H_    0.099914 0.300180 0.683599 -0.005875
H25   H     H_    0.909913 0.209635 0.688396 -0.036155
H26   H     H_    0.233814 0.202316 0.753709 0.075777
H27   H     H_    0.067349 0.266453 0.784450 -0.008700
H28   H     H_    0.663752 0.207027 0.641148 -0.047022
H29   H     H_    0.444124 0.162636 0.629695 0.089490
H30   H     H_    0.663341 0.097466 0.722717 0.193606
H31   H     H_    0.589405 0.016061 0.655129 0.068530
H32   H     H_    0.063992 0.699223 0.314260 0.093315
H33   H     H_    0.446376 0.052610 0.712498 0.159304
H34   H     H_    0.866112 0.258881 0.059525 0.129986
H35   H     H_    0.789842 0.252712 0.956677 0.149399
H36   H     H_    0.440470 0.689067 0.035132 0.133177
H37   H     H_    0.516782 0.560133 0.200091 0.128403
H38   H     H_    0.391711 0.665501 0.929382 0.149768
H39   H     H_    0.690442 0.409662 0.798356 0.167854
H40   H     H_    0.016174 0.430181 0.242399 0.145503
H41   H     H_    0.380057 0.532371 0.378088 0.081127
H42   H     H_    0.275630 0.765033 0.317472 -0.053806
H43   H     H_    0.866200 0.411849 0.633622 0.068285
H44   H     H_    0.336356 0.039366 0.435033 0.104100
H45   H     H_    0.858917 0.952620 0.566640 0.118482
H46   H     H_    0.808866 0.264310 0.527555 0.060730
H47   H     H_    0.384131 0.725601 0.469770 0.066957
H48   H     H_    0.999968 0.814131 0.239662 0.156881
H49   H     H_    0.212660 0.877596 0.242327 0.120268
H50   H     H_    0.348448 0.757706 0.581573 -0.024037
H51   H     H_    0.138617 0.744005 0.554356 0.075990
N1    N     N_R   0.008420 0.463024 0.845755 -0.426398
N2    N     N_R   0.211785 0.489829 0.148291 -0.422276
O1    O     O_2   0.890290 0.440320 0.360790 -0.457578
O2    O     O_3   0.681025 0.784197 0.621118 -0.633338
O3    O     O_3   0.099981 0.858563 0.350617 -0.601396
O4    O     O_2   0.299410 0.559720 0.639240 -0.475977
O5    O     O_3   0.058870 0.558650 0.568170 -0.499889
O6    O     O_3   0.517310 0.362160 0.604450 -0.481573
O7    O     O_3   0.173238 0.731441 0.643284 -0.583971
O8    O     O_3   0.614910 0.369290 0.471050 -0.477931
O9    O     O_3   0.099190 0.306290 0.575790 -0.491122
O10   O     O_2   0.187743 0.117359 0.539331 -0.485662
O11   O     O_3   0.104783 0.141620 0.648913 -0.577061
O12   O     O_3   0.130840 0.441440 0.431840 -0.500370
O13   O     O_3   0.574800 0.630800 0.528960 -0.496711
O14   O     O_2   0.344900 0.234690 0.472540 -0.467421
O15   O     O_3   0.518359 0.200140 0.375957 -0.648730
O16   O     O_2   0.376641 0.428699 0.704508 -0.471216
O17   O     O_3   0.510067 0.259275 0.707848 -0.594090
O18   O     O_2   0.261990 0.558186 0.836230 -0.537117
O19   O     O_2   0.819721 0.317211 0.857769 -0.556176
O20   O     O_2   0.045435 0.330467 0.148409 -0.596021
O21   O     O_2   0.368148 0.649093 0.137372 -0.604318
O22   O     O_3   0.672400 0.637930 0.395560 -0.483666
O23   O     O_2   0.802747 0.560628 0.293912 -0.496561
O24   O     O_3   0.021337 0.268583 0.354222 -0.624858
O25   O     O_3   0.714238 0.748878 0.295080 -0.587031
O26   O     O_2   0.844800 0.765340 0.527490 -0.466573
O27   O     O_3   0.090520 0.693800 0.424220 -0.492686
O28   O     O_2   0.007639 0.884064 0.460216 -0.488520
P1    P     P_3+3 0.057140 0.408270 0.369700 0.993292
P2    P     P_3+3 0.667360 0.749400 0.544670 0.978101
P3    P     P_3+3 0.136097 0.830959 0.421870 0.941303
P4    P     P_3+3 0.132580 0.591820 0.630310 1.052215
P5    P     P_3+3 0.058299 0.167924 0.578363 0.955323
P6    P     P_3+3 0.663713 0.622586 0.318527 0.969404
P7    P     P_3+3 0.527870 0.234780 0.452292 0.934748
P8    P     P_3+3 0.533148 0.383429 0.681322 0.972079
H52   H     H_    0.573298 0.647089 0.733661 0.107320
S1    S     S_3+6 0.000214 0.075639 0.772599 -0.046138
O29   O     O_2   0.123046 0.025467 0.803915 -0.232440
O30   O     O_2   0.860277 0.095240 0.813338 -0.254830
O31   O     O_3   0.927860 0.992594 0.712433 -0.541920
H53   H     H_    0.826615 0.949536 0.725299 0.361979
S2    S     S_3+6 0.076325 0.693335 0.778017 -0.022175
O32   O     O_2   0.010187 0.707494 0.839426 -0.248485
O33   O     O_2   0.258782 0.731296 0.779969 -0.265418
O34   O     O_3   0.985405 0.769727 0.737732 -0.539194
H54   H     H_    0.065558 0.835883 0.737414 0.418426

loop_
_geom_bond_atom_site_label_1
_geom_bond_atom_site_label_2
_ccdc_geom_bond_type
O28   P3    D    
C52   H52   S    
C32   P6    S    
O26   P2    D    
C42   P2    S    
C6    S1    S    
O5    P4    S    
C34   O7    S    
S1    O29   D    
O4    P4    D    
C5    C6    S    
C2    O25   S    
C51   C52   S    
Ba2   O5    S    
C48   H45   S    
C41   P3    S    
C23   H23   S    
Ba2   P4    S    
C8    H31   S    
C26   C27   S    
C33   C35   A    
C22   C24   A    
O1    P1    D    
C3    H18   S    
Ba1   O22   S    
C50   H7    S    
C40   H44   S    
Ba1   O5    S    
C40   C44   A    
C28   C29   D    
C51   H10   S    
O11   P5    S    
C23   H48   S    
C37   H43   S    
O22   P6    S    
C51   O2    S    
C13   C14   A    
C27   P8    S    
C7    O17   S    
C34   C45   S    
O2    P2    S    
C16   C17   A    
Ba1   O12   S    
C36   N2    S    
O23   P6    D    
Ba2   O9    S    
C17   C18   A    
C14   C15   A    
S2    O34   S    
C10   C15   A    
C35   H40   S    
C21   C22   A    
O17   P8    S    
Ba1   P1    S    
C51   H11   S    
C7    C8    S    
C7    H28   S    
C11   O18   D    
O8    P7    S    
C30   N1    S    
C39   C41   A    
C5    O11   S    
Ba1   O26   S    
C26   C30   D    
C12   H42   S    
C2    H15   S    
S1    O30   D    
C4    H20   S    
C8    H33   S    
C44   C46   A    
Ba2   O4    S    
C6    H27   S    
O3    P3    S    
C1    H16   S    
O31   H53   S    
C12   H32   S    
O24   P1    S    
C29   S2    S    
Ba2   O13   S    
C23   H49   S    
C52   H13   S    
C43   C44   A    
C3    O15   S    
C13   O19   D    
C15   C19   A    
C49   C50   S    
C26   H39   S    
Ba1   O13   S    
C24   N2    Am   
C38   H46   S    
C35   C36   A    
C45   H3    S    
Ba2   O8    S    
C29   C30   S    
C25   N2    Am   
C27   C37   S    
C31   C32   A    
C46   P7    S    
O7    P4    S    
C10   C11   A    
C1    H22   S    
C25   O21   D    
C7    H29   S    
C5    H24   S    
C21   H34   S    
C2    H1    S    
C39   C42   A    
S2    O33   D    
C47   P5    S    
C1    H12   S    
C49   H5    S    
C40   C41   A    
O15   P7    S    
C10   C16   A    
C1    C2    S    
Ba1   O27   S    
S1    O31   S    
Ba1   P2    S    
C42   C43   A    
C13   N1    Am   
C4    H19   S    
C5    H25   S    
Ba2   O14   S    
C9    H41   S    
O25   P6    S    
C38   C46   A    
C14   C20   A    
C28   P4    S    
C34   H51   S    
C20   C21   A    
O14   P7    D    
C9    C32   A    
O12   P1    S    
C11   N1    Am   
C50   H9    S    
C33   P1    S    
O27   P3    S    
Ba2   O12   S    
O13   P2    S    
C18   C25   A    
C31   C36   A    
C34   H50   S    
C16   H38   S    
C9    C33   A    
C3    H17   S    
C17   H36   S    
C50   H8    S    
C45   H4    S    
C3    C4    S    
C43   C48   A    
C12   O3    S    
Ba1   Ba2   S    
C8    H30   S    
Ba2   O6    S    
C20   H35   S    
C39   H47   S    
C28   C37   D    
C24   O20   D    
C12   C23   S    
Ba1   O1    S    
O10   P5    D    
O6    P8    S    
C52   H14   S    
C18   C19   A    
C49   O24   S    
C47   C48   A    
C19   C22   A    
O16   P8    D    
C6    H26   S    
S2    O32   D    
C49   H6    S    
Ba1   O8    S    
O34   H54   S    
C38   C47   A    
C45   H2    S    
O9    P5    S    
C31   H37   S    
C4    H21   S    
