data_mof_unit_46806.cif
_audit_creation_date              2012-12-10T17:43:41-0500
_audit_creation_method            fapswitch 2.2
_symmetry_space_group_name_H-M    P1
_symmetry_Int_Tables_number       1
_space_group_crystal_system       triclinic
_cell_length_a                    14.899711
_cell_length_b                    10.595833
_cell_length_c                    10.041384
_cell_angle_alpha                 86.766875
_cell_angle_beta                  90.657713
_cell_angle_gamma                 91.644983
_cell_volume                      1582.0292392

loop_
_atom_site_label
_atom_site_type_symbol
_atom_type_description
_atom_site_fract_x
_atom_site_fract_y
_atom_site_fract_z
_atom_type_partial_charge
C1    C     C_R   0.513174 0.262244 0.504506 0.882997
C2    C     C_R   0.184157 0.373714 0.501196 0.037139
C3    C     C_R   0.230380 0.492817 0.486901 -0.073679
C4    C     C_R   0.327079 0.498462 0.498066 0.917020
C5    C     C_R   0.186857 0.601706 0.434476 0.131274
C6    C     C_R   0.518374 0.094551 0.760582 -0.054279
C7    C     C_R   0.475895 0.025199 0.864993 0.448417
C8    C     C_R   0.419113 0.923632 0.837670 -0.182167
C9    C     C_R   0.414079 0.881004 0.708879 0.381807
C10   C     C_R   0.471114 0.937284 0.607281 -0.058057
C11   C     C_R   0.509175 0.055843 0.628872 -0.043028
C12   C     C_R   0.905552 0.597224 0.429521 0.054144
C13   C     C_R   0.537732 0.130620 0.517049 -0.111826
C14   C     C_R   0.572031 0.073656 0.406888 0.080373
C15   C     C_R   0.553536 0.944922 0.394369 0.407825
C16   C     C_R   0.497444 0.740894 0.496612 0.954440
C17   C     C_R   0.499432 0.877418 0.492079 -0.228438
C18   C     C_R   0.347495 0.401672 0.136768 0.208612
C19   C     C_R   0.264243 0.418955 0.070036 0.128136
C20   C     C_R   0.264609 0.436318 0.930359 0.092671
C21   C     C_R   0.346076 0.419249 0.867115 0.451162
C22   C     C_R   0.424967 0.458722 0.929938 -0.033042
C23   C     C_R   0.945774 0.256170 0.516837 0.420696
C24   C     C_R   0.425512 0.454389 0.072778 0.044649
C25   C     C_R   0.570169 0.547538 0.070355 -0.092361
C26   C     C_R   0.570069 0.549011 0.928391 0.434178
C27   C     C_R   0.672401 0.499488 0.500738 0.927111
C28   C     C_R   0.813303 0.598391 0.440794 -0.194668
C29   C     C_R   0.767737 0.495321 0.500618 -0.149252
C30   C     C_R   0.810920 0.385149 0.544851 0.367394
C31   C     C_R   0.902332 0.373588 0.513600 -0.084278
C32   C     C_R   0.950814 0.484425 0.466156 -0.067731
C33   C     C_3   0.355176 0.277112 0.215776 -0.708614
C34   C     C_R   0.037367 0.253773 0.484731 0.089374
C35   C     C_3   0.176942 0.396322 0.142637 -0.851324
C36   C     C_3   0.178851 0.437546 0.849780 -0.752225
C37   C     C_3   0.071478 0.135608 0.425904 -0.768952
C38   C     C_3   0.235263 0.254613 0.539212 -0.806721
C39   C     C_3   0.239078 0.721801 0.387509 -0.788417
C40   C     C_3   0.636072 0.146629 0.312827 -0.601023
C41   C     C_R   0.089687 0.368592 0.481839 0.040739
C42   C     C_R   0.044720 0.483565 0.458301 -0.034341
C43   C     C_R   0.092985 0.597732 0.424192 0.053668
C44   C     C_R   0.045947 0.706077 0.380654 -0.238984
C45   C     C_R   0.953266 0.705807 0.381067 0.413840
Cl1   Cl    Cl    0.486542 0.072527 0.028016 -0.616258
Cl2   Cl    Cl    0.327732 0.769446 0.679329 -0.666601
Cl3   Cl    Cl    0.604032 0.870728 0.260770 -0.516417
Cl4   Cl    Cl    0.352224 0.270925 0.802505 -0.654512
Cl5   Cl    Cl    0.749138 0.272146 0.646997 -0.531019
Cl6   Cl    Cl    0.660273 0.629278 0.847596 -0.499117
Cl7   Cl    Cl    0.886705 0.108746 0.541423 -0.461897
Cl8   Cl    Cl    0.900371 0.846121 0.324077 -0.532373
H1    H     H_    0.775777 0.680694 0.407597 0.227407
H2    H     H_    0.137591 0.483866 0.136892 0.251231
H3    H     H_    0.137273 0.318193 0.099115 0.257720
H4    H     H_    0.129216 0.498683 0.894003 0.246289
H5    H     H_    0.191856 0.477796 0.747681 0.255755
H6    H     H_    0.150163 0.340035 0.844831 0.256038
H7    H     H_    0.117467 0.161132 0.342004 0.216587
H8    H     H_    0.102998 0.072638 0.504000 0.258997
H9    H     H_    0.017069 0.080826 0.377372 0.298446
H10   H     H_    0.205848 0.205736 0.629862 0.290745
H11   H     H_    0.236406 0.189902 0.457352 0.217928
H12   H     H_    0.559330 0.176720 0.783345 0.220597
H13   H     H_    0.307329 0.272237 0.556649 0.260293
H14   H     H_    0.312671 0.717513 0.399589 0.253261
H15   H     H_    0.225788 0.742418 0.279532 0.228472
H16   H     H_    0.217940 0.802740 0.444088 0.262230
H17   H     H_    0.698860 0.093984 0.303674 0.286934
H18   H     H_    0.604688 0.162430 0.213219 0.276044
H19   H     H_    0.656879 0.239695 0.350219 0.212434
H20   H     H_    0.378855 0.877755 0.916515 0.197567
H21   H     H_    0.627064 0.588147 0.122361 0.207896
H22   H     H_    0.079966 0.793395 0.347199 0.185827
H23   H     H_    0.305422 0.205798 0.180678 0.231644
H24   H     H_    0.421613 0.236228 0.201820 0.286347
H25   H     H_    0.342777 0.287306 0.322043 0.231589
H26   H     H_    0.189177 0.368953 0.248198 0.247899
N1    N     N_R   0.499150 0.498800 0.142780 -0.126188
N2    N     N_R   0.499120 0.498720 0.857170 -0.133887
O1    O     O_R   0.500000 0.316780 0.614690 -0.583298
O2    O     O_R   0.499990 0.316750 0.385360 -0.638004
O3    O     O_R   0.367850 0.499980 0.614680 -0.567589
O4    O     O_R   0.367840 0.499960 0.385350 -0.634527
O5    O     O_R   0.500010 0.683250 0.614640 -0.564761
O6    O     O_R   0.500000 0.683220 0.385310 -0.574761
O7    O     O_R   0.632160 0.500040 0.614650 -0.530833
O8    O     O_R   0.632150 0.500020 0.385320 -0.635808
Zn1   Zn    Zn3+2 0.500010 0.500020 0.653130 1.073540
Zn2   Zn    Zn3+2 0.499990 0.499980 0.346870 0.983876

loop_
_geom_bond_atom_site_label_1
_geom_bond_atom_site_label_2
_ccdc_geom_bond_type
C40   H18   S    
O6    Zn2   S    
C27   C29   S    
C25   N1    A    
C41   C42   A    
C19   C20   A    
C36   H6    S    
C21   Cl4   S    
C37   H9    S    
O4    Zn2   S    
C7    C8    A    
C40   H17   S    
C12   C28   A    
C18   C24   A    
C28   C29   A    
C25   H21   S    
C36   H5    S    
C30   C31   A    
C33   H25   S    
C2    C41   A    
C34   C37   S    
C18   C19   A    
C39   H15   S    
C24   N1    A    
C6    H12   S    
C38   H13   S    
C8    C9    A    
C16   O6    A    
O8    Zn2   S    
C9    C10   A    
C5    C43   A    
C45   Cl8   S    
C13   C14   A    
C12   C32   A    
C16   O5    A    
C34   C41   A    
O3    Zn1   S    
C15   Cl3   S    
C38   H11   S    
C35   H2    S    
C22   N2    A    
C36   H4    S    
O5    Zn1   S    
C6    C11   A    
C28   H1    S    
C16   C17   S    
C4    O4    A    
C25   C26   A    
C23   C31   A    
C44   H22   S    
C43   C44   A    
C7    Cl1   S    
C29   C30   A    
C2    C38   S    
C33   H23   S    
C31   C32   A    
C4    O3    A    
C23   C34   A    
C39   H16   S    
N2    Zn1   S    
O7    Zn1   S    
C9    Cl2   S    
C26   N2    A    
C5    C39   S    
C22   C24   A    
C1    C13   S    
C42   C43   A    
C3    C4    S    
C44   C45   A    
C38   H10   S    
C15   C17   A    
C40   H19   S    
C35   H3    S    
C39   H14   S    
C12   C45   A    
C3    C5    A    
C37   H8    S    
C6    C7    A    
C1    O2    A    
O2    Zn2   S    
O1    Zn1   S    
N1    Zn2   S    
C2    C3    A    
C1    O1    A    
C19   C35   S    
C26   Cl6   S    
C11   C13   A    
C33   H24   S    
C23   Cl7   S    
C35   H26   S    
C8    H20   S    
C27   O8    A    
C30   Cl5   S    
C27   O7    A    
C18   C33   S    
C37   H7    S    
C10   C11   A    
C14   C40   S    
C20   C36   S    
C20   C21   A    
C32   C42   A    
C14   C15   A    
C10   C17   A    
C21   C22   A    
