data_mof_unit_24325.cif
_audit_creation_date              2012-12-10T21:07:01-0500
_audit_creation_method            fapswitch 2.2
_symmetry_space_group_name_H-M    P1
_symmetry_Int_Tables_number       1
_space_group_crystal_system       triclinic
_cell_length_a                    10.789362
_cell_length_b                    15.833316
_cell_length_c                    15.038492
_cell_angle_alpha                 90.381777
_cell_angle_beta                  91.053653
_cell_angle_gamma                 89.962856
_cell_volume                      2568.55454437

loop_
_atom_site_label
_atom_site_type_symbol
_atom_type_description
_atom_site_fract_x
_atom_site_fract_y
_atom_site_fract_z
_atom_type_partial_charge
C1    C     C_R   0.500559 0.338874 0.499729 0.881625
C2    C     C_R   0.500140 0.661162 0.500271 0.889263
C3    C     C_R   0.872791 0.495256 0.502542 -0.078923
C4    C     C_R   0.127045 0.501489 0.497049 -0.080050
C5    C     C_R   0.942085 0.483229 0.581921 0.030928
C6    C     C_R   0.057688 0.512033 0.417378 0.028396
C7    C     C_R   0.570495 0.956252 0.574214 0.229824
C8    C     C_R   0.504541 0.043729 0.417368 0.300139
C9    C     C_R   0.524213 0.913176 0.498175 -0.261269
C10   C     C_R   0.527691 0.087114 0.498118 -0.269854
C11   C     C_R   0.484952 0.956155 0.420771 0.327895
C12   C     C_R   0.555262 0.044441 0.578169 0.309758
C13   C     C_1   0.515134 0.824072 0.499990 0.258812
C14   C     C_1   0.518295 0.176172 0.498945 0.256233
C15   C     C_1   0.509297 0.250800 0.499244 -0.074720
C16   C     C_1   0.507363 0.749357 0.500720 -0.067123
C17   C     C_R   0.459490 0.428285 0.951808 0.490902
C18   C     C_R   0.539507 0.571698 0.048146 0.492369
C19   C     C_R   0.499446 0.499883 0.905043 -0.119323
C20   C     C_R   0.500139 0.499975 0.094948 -0.123817
C21   C     C_R   0.537911 0.571489 0.953914 -0.306294
C22   C     C_R   0.461470 0.428398 0.046081 -0.314298
C23   C     C_R   0.259302 0.501400 0.498904 0.879594
C24   C     C_R   0.740613 0.497656 0.501029 0.881745
C25   C     C_1   0.499780 0.500201 0.807193 0.180130
C26   C     C_1   0.500039 0.499707 0.192804 0.186440
C27   C     C_R   0.215304 0.615707 0.223107 -0.199160
C28   C     C_R   0.781549 0.375305 0.772332 -0.179636
C29   C     C_R   0.169175 0.602586 0.308169 -0.108150
C30   C     C_R   0.828619 0.390401 0.687935 -0.096136
C31   C     C_R   0.110806 0.526093 0.328369 0.082980
C32   C     C_R   0.888502 0.466992 0.670342 0.069956
C33   C     C_R   0.095911 0.464102 0.261823 -0.267813
C34   C     C_R   0.903324 0.527212 0.738635 -0.258328
C35   C     C_R   0.137784 0.478512 0.175018 0.525057
C36   C     C_R   0.860411 0.510845 0.824781 0.526151
C37   C     C_R   0.200530 0.553686 0.157179 -0.201671
C38   C     C_R   0.796624 0.435489 0.840147 -0.216776
C39   C     C_R   0.930917 0.508475 0.421540 -0.238907
C40   C     C_R   0.068923 0.487313 0.577911 -0.238809
H1    H     H_    0.237110 0.564280 0.091653 0.159610
H2    H     H_    0.759211 0.423389 0.905128 0.162971
H3    H     H_    0.262506 0.674026 0.208077 0.185832
H4    H     H_    0.733332 0.316853 0.785260 0.202134
H5    H     H_    0.179809 0.651389 0.358513 0.148530
H6    H     H_    0.817525 0.342981 0.636152 0.152317
H7    H     H_    0.052442 0.404732 0.278105 0.152010
H8    H     H_    0.947174 0.586869 0.724063 0.155320
H9    H     H_    0.877567 0.517885 0.360510 0.169735
H10   H     H_    0.122333 0.477706 0.638874 0.169126
H11   H     H_    0.432602 0.372359 0.081056 0.201186
H12   H     H_    0.566697 0.627572 0.918976 0.203853
N1    N     N_1   0.499960 0.500020 0.270550 -0.084745
N2    N     N_1   0.500040 0.499980 0.729450 -0.087593
O1    O     O_R   0.500000 0.378020 0.573650 -0.608762
O2    O     O_R   0.500000 0.621980 0.426350 -0.604554
O3    O     O_R   0.500060 0.378020 0.426320 -0.588626
O4    O     O_R   0.499940 0.621980 0.573680 -0.592780
O5    O     O_R   0.316730 0.500010 0.573660 -0.629446
O6    O     O_R   0.683270 0.499990 0.426340 -0.629648
O7    O     O_R   0.316790 0.500010 0.426330 -0.608562
O8    O     O_R   0.683210 0.499990 0.573670 -0.606224
Zn1   Zn    Zn3+2 0.499960 0.500000 0.598370 1.009668
Zn2   Zn    Zn3+2 0.500040 0.500000 0.401630 1.014693
O9    O     O_3   0.424190 0.356621 0.904846 -0.608663
C41   C     C_3   0.294116 0.348322 0.908312 0.076201
H13   H     H_    0.245898 0.408796 0.891815 0.127103
H14   H     H_    0.266546 0.327290 0.975530 0.200749
C42   C     C_3   0.251556 0.282162 0.840648 -0.738153
H15   H     H_    0.296388 0.220544 0.855449 0.287855
H16   H     H_    0.149384 0.274512 0.843275 0.211492
H17   H     H_    0.276583 0.302203 0.772642 0.260222
O10   O     O_3   0.573359 0.643768 0.094902 -0.591635
C43   C     C_3   0.703616 0.651397 0.094093 0.076591
H18   H     H_    0.734631 0.668638 0.026471 0.195598
H19   H     H_    0.750171 0.591673 0.115348 0.122635
C44   C     C_3   0.743677 0.720930 0.158661 -0.694842
H20   H     H_    0.714345 0.705118 0.226993 0.261022
H21   H     H_    0.846150 0.727527 0.158524 0.198396
H22   H     H_    0.700959 0.781924 0.138672 0.292820
O11   O     O_3   0.127082 0.417965 0.108340 -0.632888
C45   C     C_3   0.000936 0.397464 0.092864 0.075909
H23   H     H_    0.943455 0.455321 0.083011 0.137963
H24   H     H_    0.963822 0.360187 0.148779 0.164203
C46   C     C_3   0.989104 0.343287 0.009270 -0.792542
H25   H     H_    0.045702 0.285074 0.016705 0.269791
H26   H     H_    0.890772 0.324885 0.998004 0.223892
H27   H     H_    0.021083 0.379068 0.950798 0.230961
O12   O     O_3   0.870364 0.569928 0.892991 -0.627893
C47   C     C_3   0.996294 0.590418 0.909552 0.079188
H28   H     H_    0.034953 0.627190 0.853837 0.160534
H29   H     H_    0.053197 0.532503 0.920517 0.135975
C48   C     C_3   0.006651 0.645368 0.992662 -0.797370
H30   H     H_    0.973073 0.610317 0.051160 0.230846
H31   H     H_    0.104855 0.663617 0.004786 0.221940
H32   H     H_    0.950805 0.703746 0.983872 0.270118
S1    S     S_3+6 0.566839 0.102142 0.680955 0.074007
O13   O     O_2   0.542094 0.046779 0.759383 -0.163614
O14   O     O_2   0.695079 0.138667 0.689873 -0.312336
O15   O     O_3   0.462973 0.181456 0.682480 -0.577341
H33   H     H_    0.492550 0.220101 0.730403 0.387460
S2    S     S_3+6 0.408087 0.899834 0.332027 0.088161
O16   O     O_2   0.328358 0.957281 0.276100 -0.191130
O17   O     O_2   0.504003 0.858673 0.274847 -0.261207
O18   O     O_3   0.315812 0.824592 0.373285 -0.588575
H34   H     H_    0.283949 0.793158 0.320537 0.370029
S3    S     S_3+6 0.648778 0.899265 0.660998 0.103614
O19   O     O_2   0.555112 0.869983 0.726758 -0.203545
O20   O     O_2   0.714265 0.823191 0.624193 -0.319853
O21   O     O_3   0.755334 0.959728 0.713844 -0.427040
H35   H     H_    0.815779 0.974348 0.667609 0.362232
S4    S     S_3+6 0.504424 0.099532 0.314289 0.088254
O22   O     O_2   0.376364 0.133247 0.295645 -0.254364
O23   O     O_2   0.593912 0.172229 0.319416 -0.314135
O24   O     O_3   0.547533 0.036054 0.230217 -0.454256
H36   H     H_    0.534409 0.070030 0.175779 0.392438

loop_
_geom_bond_atom_site_label_1
_geom_bond_atom_site_label_2
_ccdc_geom_bond_type
C36   O12   S    
C41   H14   S    
C48   H30   S    
C27   C29   A    
C18   C21   A    
O10   C43   S    
S4    O23   D    
S1    O13   D    
C35   O11   S    
C44   H20   S    
C23   O5    A    
C43   H19   S    
O3    Zn2   S    
C35   C37   A    
C38   H2    S    
C8    S4    S    
N1    Zn2   S    
C44   H22   S    
C41   C42   S    
N2    Zn1   S    
O24   H36   S    
S2    O18   S    
C42   H16   S    
C9    C13   S    
O21   H35   S    
C33   C35   A    
C4    C40   A    
C43   C44   S    
O1    Zn1   S    
S3    O19   D    
O2    Zn2   S    
C1    C15   S    
C2    C16   S    
C18   C20   A    
C5    C32   S    
C46   H26   S    
C41   H13   S    
C3    C39   A    
C48   H31   S    
S3    O20   D    
C3    C24   S    
C42   H15   S    
S4    O22   D    
S1    O14   D    
O11   C45   S    
C44   H21   S    
C7    C12   A    
C43   H18   S    
C25   N2    T    
C4    C6    A    
C10   C14   S    
C4    C23   S    
C46   H25   S    
C28   H4    S    
C29   H5    S    
C32   C34   A    
O7    Zn2   S    
O8    Zn1   S    
C1    O3    A    
C47   H29   S    
C28   C38   A    
C24   O6    A    
C31   C33   A    
S2    O17   D    
C9    C11   A    
C12   S1    S    
C10   C12   A    
C39   H9    S    
C20   C22   A    
O9    C41   S    
C18   O10   S    
C45   H24   S    
C33   H7    S    
S3    O21   S    
C7    S3    S    
C5    C40   A    
C34   H8    S    
C26   N1    T    
S1    O15   S    
C47   C48   S    
C46   H27   S    
O4    Zn1   S    
C7    C9    A    
C24   O8    A    
C19   C21   A    
C6    C39   A    
C17   O9    S    
C30   H6    S    
C42   H17   S    
C3    C5    A    
C2    O4    A    
C48   H32   S    
C45   C46   S    
O18   H34   S    
O5    Zn1   S    
C17   C22   A    
O6    Zn2   S    
C28   C30   A    
C1    O1    A    
C29   C31   A    
C2    O2    A    
C30   C32   A    
C47   H28   S    
C20   C26   S    
C27   C37   A    
C8    C11   A    
C40   H10   S    
C36   C38   A    
O15   H33   S    
C17   C19   A    
C6    C31   S    
C11   S2    S    
C34   C36   A    
S4    O24   S    
C37   H1    S    
S2    O16   D    
C19   C25   S    
C27   H3    S    
C23   O7    A    
C8    C10   A    
C45   H23   S    
C13   C16   T    
C14   C15   T    
O12   C47   S    
C21   H12   S    
C22   H11   S    
