data_mof_unit_30096.cif
_audit_creation_date              2013-03-05T16:48:13-0500
_audit_creation_method            fapswitch 2.2
_symmetry_space_group_name_H-M    P1
_symmetry_Int_Tables_number       1
_space_group_crystal_system       triclinic
_cell_length_a                    23.363523
_cell_length_b                    8.927963
_cell_length_c                    8.103213
_cell_angle_alpha                 90.185382
_cell_angle_beta                  89.74126
_cell_angle_gamma                 89.646257
_cell_volume                      1690.17996444

loop_
_atom_site_label
_atom_site_type_symbol
_atom_site_description
_atom_site_fract_x
_atom_site_fract_y
_atom_site_fract_z
_atom_type_partial_charge
O1    O     O_R   0.500000 0.285350 0.636850 -0.617355
O2    O     O_R   0.500000 0.714650 0.363150 -0.615609
O3    O     O_R   0.500000 0.714650 0.636850 -0.617318
O4    O     O_R   0.500000 0.285350 0.363150 -0.615579
C1    C     C_R   0.500034 0.217988 0.499832 0.937349
C2    C     C_R   0.499971 0.782012 0.500171 0.937221
O5    O     O_R   0.416160 0.500000 0.636910 -0.619825
O6    O     O_R   0.583840 0.500000 0.363090 -0.623588
O7    O     O_R   0.583840 0.500000 0.636910 -0.619641
O8    O     O_R   0.416160 0.500000 0.363090 -0.623846
C3    C     C_R   0.208015 0.524795 0.527607 0.114923
C4    C     C_R   0.791408 0.456975 0.519122 0.126080
C5    C     C_R   0.389010 0.502878 0.500639 0.924427
C6    C     C_R   0.610971 0.496748 0.499856 0.923258
Zn1   Zn    Zn3+2 0.500000 0.500000 0.682780 0.984890
Zn2   Zn    Zn3+2 0.500000 0.500000 0.317220 0.985932
C7    C     C_R   0.300442 0.582822 0.641662 -0.360633
C8    C     C_R   0.698532 0.406129 0.635189 -0.355808
C9    C     C_R   0.294095 0.459113 0.375264 -0.292176
C10   C     C_R   0.706361 0.535227 0.372650 -0.292720
C11   C     C_R   0.326941 0.515777 0.504551 -0.154308
C12   C     C_R   0.672862 0.479188 0.501564 -0.153688
C13   C     C_R   0.876441 0.600644 0.566232 0.574917
C14   C     C_R   0.122686 0.375757 0.552092 0.571147
C15   C     C_R   0.883947 0.335451 0.527133 0.509358
C16   C     C_R   0.114992 0.643012 0.553736 0.515839
N1    N     N_R   0.851984 0.464017 0.539055 -0.323624
N2    N     N_R   0.147274 0.514507 0.547355 -0.326016
C17   C     C_R   0.943498 0.341891 0.539064 -0.020331
C18   C     C_R   0.055516 0.634653 0.567337 -0.026474
C19   C     C_R   0.935848 0.613290 0.572543 -0.047490
C20   C     C_R   0.063216 0.362370 0.550559 -0.044928
C21   C     C_R   0.969542 0.482685 0.557771 -0.025888
C22   C     C_R   0.029473 0.493178 0.559337 -0.025962
C23   C     C_R   0.977524 0.212091 0.529276 -0.176758
C24   C     C_R   0.021590 0.763859 0.585366 -0.177351
C25   C     C_R   0.962211 0.753076 0.590244 -0.171459
C26   C     C_R   0.036901 0.222155 0.537199 -0.177259
C27   C     C_1   0.500017 0.065198 0.499763 -0.193030
C28   C     C_1   0.499993 0.934802 0.500248 -0.193181
C29   C     C_R   0.240760 0.592079 0.652199 0.489872
C30   C     C_R   0.758026 0.390554 0.642655 0.480378
C31   C     C_R   0.234650 0.463502 0.385282 0.457336
C32   C     C_R   0.765731 0.524257 0.380262 0.459472
N3    N     N_1   0.500000 0.500000 0.073640 -0.035795
N4    N     N_1   0.500000 0.500000 0.926360 -0.036622
O9    O     O_2   0.843203 0.723798 0.585150 -0.548752
O10   O     O_2   0.155826 0.251415 0.556200 -0.537859
O11   O     O_2   0.858139 0.202703 0.500958 -0.575939
O12   O     O_2   0.140317 0.778061 0.542625 -0.573560
H1    H     H_    0.958440 0.102875 0.514322 0.178621
H2    H     H_    0.040819 0.873180 0.596314 0.173825
H3    H     H_    0.937019 0.854458 0.604453 0.189064
H4    H     H_    0.062229 0.120646 0.527985 0.193319
O13   O     O_3   0.213077 0.650920 0.790167 -0.654817
C33   C     C_3   0.234303 0.794347 0.831425 0.095592
H5    H     H_    0.243779 0.862331 0.719255 0.180267
H6    H     H_    0.273728 0.782298 0.906699 0.127273
C34   C     C_3   0.189310 0.878119 0.934503 -0.334603
H7    H     H_    0.149088 0.889044 0.862693 0.256522
H8    H     H_    0.179837 0.813724 0.048311 0.212422
C35   C     C_3   0.209804 0.033954 0.983453 -0.863617
H9    H     H_    0.250198 0.026085 0.054772 0.264929
H10   H     H_    0.176818 0.089277 0.062042 0.278953
H11   H     H_    0.216970 0.103480 0.871872 0.279032
O14   O     O_3   0.785175 0.327848 0.778040 -0.662243
C36   C     C_3   0.763640 0.183664 0.812839 0.088477
H12   H     H_    0.755947 0.117839 0.697744 0.180891
H13   H     H_    0.723164 0.193672 0.884844 0.131082
C37   C     C_3   0.807436 0.099013 0.917285 -0.330836
H14   H     H_    0.848285 0.087789 0.847260 0.251921
H15   H     H_    0.815941 0.163340 0.032066 0.219527
C38   C     C_3   0.786105 0.943470 0.963767 -0.857011
H16   H     H_    0.745083 0.951953 0.033102 0.259992
H17   H     H_    0.818188 0.887524 0.043582 0.279970
H18   H     H_    0.779773 0.874205 0.851279 0.288338
O15   O     O_3   0.203306 0.389671 0.265957 -0.615305
C39   C     C_3   0.175265 0.495309 0.164852 0.055533
H19   H     H_    0.206928 0.545831 0.079459 0.188330
H20   H     H_    0.154512 0.586860 0.237412 0.140367
C40   C     C_3   0.129243 0.415149 0.064648 -0.285806
H21   H     H_    0.149942 0.348901 0.964264 0.234099
H22   H     H_    0.105364 0.337028 0.146034 0.235212
C41   C     C_3   0.086582 0.525188 0.989536 -0.940418
H23   H     H_    0.062435 0.584996 0.088392 0.263290
H24   H     H_    0.055765 0.462823 0.912014 0.262834
H25   H     H_    0.108964 0.608126 0.911370 0.295687
O16   O     O_3   0.798481 0.596249 0.262420 -0.620891
C42   C     C_3   0.824106 0.489359 0.155818 0.052601
H26   H     H_    0.793830 0.463814 0.054582 0.201014
H27   H     H_    0.835319 0.382271 0.218556 0.143942
C43   C     C_3   0.878897 0.555386 0.082885 -0.297247
H28   H     H_    0.867703 0.648417 0.997984 0.233288
H29   H     H_    0.905724 0.601048 0.184061 0.230190
C44   C     C_3   0.913775 0.437990 0.988457 -0.939880
H30   H     H_    0.928243 0.347778 0.072993 0.266383
H31   H     H_    0.951966 0.491580 0.932972 0.265760
H32   H     H_    0.887944 0.388356 0.888021 0.296865
H33   H     H_    0.326305 0.625406 0.741634 0.171339
H34   H     H_    0.672258 0.363972 0.734876 0.171701
H35   H     H_    0.314452 0.406021 0.269640 0.186864
H36   H     H_    0.686668 0.592445 0.269525 0.185329

loop_
_geom_bond_atom_site_label_1
_geom_bond_atom_site_label_2
_geom_bond_distance
_ccdc_geom_bond_type
O13   C33   1.415612 S    
C38   H16   1.110827 S    
C44   H30   1.111079 S    
C41   H25   1.108045 S    
O3    C2    1.262000 A    
C40   H21   1.111380 S    
C44   H32   1.108299 S    
O15   C39   1.411419 S    
O1    C1    1.260987 A    
C24   C25   1.391618 A    
C9    C11   1.396776 A    
C41   H24   1.108967 S    
C16   O12   1.349432 S    
C39   H20   1.112788 S    
C10   H36   1.083637 S    
C17   C21   1.407952 A    
C33   H5    1.116691 S    
C29   O13   1.389113 S    
C35   H10   1.110064 S    
C10   C32   1.391612 A    
C4    C30   1.401591 A    
C19   C21   1.407339 A    
C3    C31   1.414912 A    
C37   H14   1.111940 S    
O1    Zn1   1.951011 S    
C20   C26   1.402153 A    
C42   H27   1.114643 S    
O2    Zn2   1.951010 S    
C24   H2    1.080507 S    
C25   H3    1.082174 S    
O5    Zn1   1.995402 S    
O14   C36   1.413776 S    
C34   H7    1.111491 S    
O6    Zn2   1.995400 S    
C38   H17   1.109717 S    
O2    C2    1.261009 A    
C8    H34   1.082283 S    
C40   H22   1.112250 S    
C9    C31   1.391154 A    
C15   O11   1.349653 S    
C15   C17   1.396630 A    
C34   H8    1.110480 S    
C13   O9    1.350107 S    
C18   C22   1.406804 A    
C4    N1    1.426936 S    
C36   H12   1.116590 S    
C14   O10   1.350120 S    
C23   C26   1.392456 A    
C41   H23   1.111080 S    
C27   C28   1.164191 T    
C39   H19   1.109500 S    
N3    N4    1.193440 T    
C43   C44   1.525337 S    
C7    C11   1.400316 A    
C19   C25   1.402356 A    
C36   H13   1.111918 S    
C20   C22   1.406421 A    
O4    Zn2   1.953375 S    
O7    C6    1.276415 A    
C14   C20   1.395412 A    
C35   H9    1.110848 S    
C26   H4    1.081490 S    
C37   C38   1.526079 S    
C43   H29   1.112127 S    
C21   C22   1.404028 A    
C5    C11   1.454199 S    
C42   C43   1.529768 S    
C7    H33   1.082216 S    
C10   C12   1.398187 A    
C16   C18   1.395909 A    
C13   N1    1.367818 A    
C1    C27   1.364103 S    
C23   H1    1.081379 S    
C38   H18   1.110796 S    
C2    C28   1.364109 S    
C15   N1    1.368409 A    
C40   C41   1.525220 S    
O3    Zn1   1.953374 S    
C34   C35   1.525979 S    
O6    C6    1.279523 A    
C35   H11   1.111035 S    
C8    C12   1.401147 A    
C14   N2    1.369254 A    
O4    C1    1.262021 A    
O8    C5    1.280066 A    
Zn2   N3    1.973781 S    
C44   H31   1.109175 S    
C31   O15   1.383451 S    
C17   C23   1.403098 A    
C16   N2    1.369807 A    
C33   C34   1.529814 S    
C18   C24   1.402451 A    
C36   C37   1.528685 S    
C6    C12   1.453624 S    
C8    C30   1.397660 A    
O7    Zn1   1.992102 S    
C4    C32   1.411676 A    
O8    Zn2   1.992104 S    
C9    H35   1.083678 S    
C39   C40   1.530122 S    
C3    N2    1.430964 S    
C43   H28   1.110952 S    
C33   H6    1.111921 S    
C3    C29   1.405031 A    
C7    C29   1.398548 A    
O5    C5    1.276192 A    
O16   C42   1.413602 S    
C30   O14   1.387503 S    
C37   H15   1.110862 S    
Zn1   N4    1.973781 S    
C42   H26   1.109648 S    
C32   O16   1.383422 S    
C13   C19   1.394377 A    
