data_mof_unit_19295.cif
_audit_creation_date              2012-12-10T17:33:54-0500
_audit_creation_method            fapswitch 2.2
_symmetry_space_group_name_H-M    P1
_symmetry_Int_Tables_number       1
_space_group_crystal_system       triclinic
_cell_length_a                    10.854291
_cell_length_b                    12.10658
_cell_length_c                    12.901467
_cell_angle_alpha                 94.12551
_cell_angle_beta                  93.43761
_cell_angle_gamma                 85.236197
_cell_volume                      1682.6385683

loop_
_atom_site_label
_atom_site_type_symbol
_atom_type_description
_atom_site_fract_x
_atom_site_fract_y
_atom_site_fract_z
_atom_type_partial_charge
C1    C     C_R   0.497810 0.523366 0.700687 0.951554
C2    C     C_3   0.122308 0.498580 0.502449 -0.321783
C3    C     C_3   0.063783 0.484822 0.385994 0.513710
C4    C     C_3   0.067945 0.613275 0.553178 0.031393
C5    C     C_R   0.505829 0.463277 0.188567 -0.129726
C6    C     C_R   0.496022 0.541142 0.813242 -0.115842
C7    C     C_R   0.530294 0.649518 0.977278 -0.023245
C8    C     C_R   0.522382 0.643240 0.868056 -0.082992
C9    C     C_R   0.471744 0.450026 0.866471 -0.122477
C10   C     C_R   0.482799 0.453518 0.973547 0.040457
C11   C     C_R   0.515078 0.553128 0.029234 0.104358
C12   C     C_R   0.742279 0.499865 0.505265 0.906874
C13   C     C_R   0.531853 0.554093 0.136347 -0.180253
C14   C     C_R   0.474766 0.364889 0.134242 -0.097610
C15   C     C_R   0.463833 0.358858 0.026561 0.394489
C16   C     C_R   0.400863 0.953115 0.388478 -0.081971
C17   C     C_R   0.403315 0.838892 0.401799 0.028851
C18   C     C_R   0.546179 0.857657 0.546961 0.081484
C19   C     C_R   0.541841 0.974325 0.538041 -0.043807
C20   C     C_R   0.469138 0.022572 0.456745 -0.094032
C21   C     C_R   0.464691 0.139282 0.446562 0.505090
C22   C     C_R   0.586741 0.160592 0.603889 -0.059943
C23   C     C_R   0.503360 0.477411 0.299924 0.940910
C24   C     C_R   0.604287 0.044329 0.610125 0.246235
C25   C     C_R   0.258178 0.500176 0.499675 1.052098
C26   C     C_3   0.945474 0.411801 0.588507 -0.365579
C27   C     C_3   0.090076 0.400249 0.570446 0.632903
C28   C     C_3   0.920961 0.463605 0.388792 -0.239750
C29   C     C_3   0.923113 0.622006 0.543169 0.154059
C30   C     C_3   0.879561 0.498468 0.506306 -0.349489
H1    H     H_    0.099403 0.681539 0.510979 0.240396
H2    H     H_    0.564014 0.626390 0.180682 0.192933
H3    H     H_    0.456695 0.293604 0.174931 0.243234
H4    H     H_    0.445866 0.374830 0.823292 0.210715
H5    H     H_    0.342703 0.987302 0.325731 0.245775
H6    H     H_    0.603418 0.818232 0.607204 0.207479
N1    N     N_R   0.523380 0.207800 0.519350 -0.161552
N2    N     N_R   0.476620 0.792180 0.480650 -0.168934
O1    O     O_R   0.506240 0.421700 0.658830 -0.612784
O2    O     O_R   0.491240 0.609310 0.646410 -0.629071
O3    O     O_R   0.692710 0.406190 0.506230 -0.615094
O4    O     O_R   0.677700 0.593810 0.493810 -0.570619
O5    O     O_R   0.508760 0.390690 0.353590 -0.545682
O6    O     O_R   0.493760 0.578300 0.341170 -0.686168
O7    O     O_R   0.322300 0.406190 0.506190 -0.519753
O8    O     O_R   0.307290 0.593810 0.493770 -0.653068
Zn1   Zn    Zn3+2 0.510020 0.374730 0.508290 1.098394
Zn2   Zn    Zn3+2 0.489980 0.625270 0.491710 1.003604
C31   C     C_2   0.901735 0.293791 0.581137 0.546000
H7    H     H_    0.843050 0.261108 0.517993 0.121650
O9    O     O_2   0.938519 0.229170 0.647113 -0.418478
C32   C     C_2   0.843896 0.526682 0.304416 0.682798
H8    H     H_    0.762134 0.580316 0.321744 0.077961
O10   O     O_2   0.868540 0.511350 0.212972 -0.464585
Cl1   Cl    Cl    0.087651 0.606347 0.317781 -0.478269
C33   C     C_2   0.548081 0.758277 0.035895 0.459701
H9    H     H_    0.623666 0.806459 0.019726 0.153762
O11   O     O_2   0.475715 0.796131 0.100727 -0.498555
Cl2   Cl    Cl    0.423531 0.231978 0.962619 -0.486232
C34   C     C_2   0.536837 0.744662 0.813358 0.501492
H10   H     H_    0.463202 0.776999 0.760575 0.109588
O12   O     O_2   0.631400 0.792774 0.827309 -0.492629
Cl3   Cl    Cl    0.377406 0.197525 0.342670 -0.471116
C35   C     C_2   0.908143 0.454368 0.698409 0.657293
H11   H     H_    0.811663 0.456554 0.715715 0.108450
O13   O     O_2   0.978938 0.489738 0.767424 -0.422427
C36   C     C_2   0.623801 0.226615 0.698709 0.608744
H12   H     H_    0.590137 0.208511 0.772670 0.110499
O14   O     O_2   0.697981 0.295830 0.697645 -0.597708
Cl4   Cl    Cl    0.704177 0.988390 0.710551 -0.480335
C37   C     C_2   0.324066 0.771838 0.329318 0.554613
H13   H     H_    0.310168 0.688099 0.343116 0.151152
O15   O     O_2   0.270908 0.810541 0.252338 -0.457235
Cl5   Cl    Cl    0.186774 0.390755 0.689683 -0.390130
Cl6   Cl    Cl    0.139981 0.265085 0.507888 -0.493806
C38   C     C_2   0.896231 0.342372 0.356778 0.440664
H14   H     H_    0.967631 0.275383 0.361421 0.183124
O16   O     O_2   0.792964 0.316810 0.325825 -0.548487
Cl7   Cl    Cl    0.147953 0.382212 0.303246 -0.430785
Cl8   Cl    Cl    0.874210 0.725966 0.452050 -0.565311
C39   C     C_2   0.869085 0.680884 0.641484 0.608570
H15   H     H_    0.910817 0.753696 0.677304 0.178296
O17   O     O_2   0.774559 0.655821 0.677259 -0.599008
Cl9   Cl    Cl    0.137815 0.647367 0.681223 -0.515032

loop_
_geom_bond_atom_site_label_1
_geom_bond_atom_site_label_2
_ccdc_geom_bond_type
C11   C13   A    
C13   H2    S    
C19   C20   A    
C3    Cl7   S    
C6    C9    A    
C39   H15   S    
C24   Cl4   S    
C7    C8    A    
C7    C11   A    
C26   C27   S    
C12   O3    A    
C3    C28   S    
C38   O16   D    
C10   C15   A    
C16   H5    S    
C23   O5    A    
C33   H9    S    
C34   O12   D    
C18   C19   A    
C26   C35   S    
C12   O4    A    
C1    O2    A    
C3    Cl1   S    
C16   C17   A    
C31   O9    D    
C4    Cl9   S    
C2    C27   S    
N1    Zn1   S    
C27   Cl5   S    
C9    C10   A    
C5    C13   A    
N2    Zn2   S    
C7    C33   S    
C14   H3    S    
C27   Cl6   S    
C39   O17   D    
C32   O10   D    
O7    Zn1   S    
O8    Zn2   S    
C36   H12   S    
C38   H14   S    
C26   C31   S    
C37   O15   D    
C6    C8    A    
C22   N1    A    
C23   O6    A    
C1    C6    S    
C34   H10   S    
C36   O14   D    
C35   O13   D    
C2    C4    S    
C29   C39   S    
C29   C30   S    
C5    C23   S    
C16   C20   A    
O3    Zn1   S    
O4    Zn2   S    
C5    C14   A    
C17   C37   S    
C9    H4    S    
C22   C24   A    
C28   C38   S    
C25   O7    A    
C32   H8    S    
O1    Zn1   S    
O2    Zn2   S    
C12   C30   S    
C15   Cl2   S    
C4    C29   S    
C26   C30   S    
C35   H11   S    
C28   C30   S    
C19   C24   A    
C18   N2    A    
C37   H13   S    
C8    C34   S    
C28   C32   S    
C29   Cl8   S    
C18   H6    S    
C33   O11   D    
C2    C3    S    
C2    C25   S    
C17   N2    A    
C22   C36   S    
C21   Cl3   S    
C4    H1    S    
C10   C11   A    
C1    O1    A    
C21   N1    A    
C20   C21   A    
C31   H7    S    
C14   C15   A    
O5    Zn1   S    
C25   O8    A    
O6    Zn2   S    
