data_mof_unit_38833.cif
_audit_creation_date              2012-12-10T20:43:58-0500
_audit_creation_method            fapswitch 2.2
_symmetry_space_group_name_H-M    P1
_symmetry_Int_Tables_number       1
_space_group_crystal_system       triclinic
_cell_length_a                    17.404715
_cell_length_b                    10.932059
_cell_length_c                    9.971209
_cell_angle_alpha                 89.205364
_cell_angle_beta                  86.354683
_cell_angle_gamma                 92.367413
_cell_volume                      1891.50224617

loop_
_atom_site_label
_atom_site_type_symbol
_atom_type_description
_atom_site_fract_x
_atom_site_fract_y
_atom_site_fract_z
_atom_type_partial_charge
C1    C     C_R   0.502859 0.259977 0.498701 0.934289
C2    C     C_R   0.888860 0.610361 0.453890 -0.192917
C3    C     C_1   0.970981 0.621514 0.442719 0.152973
C4    C     C_1   0.039513 0.618348 0.443102 0.097392
C5    C     C_R   0.137389 0.509398 0.548936 0.071719
C6    C     C_R   0.213200 0.502561 0.584960 0.438810
C7    C     C_R   0.273544 0.556993 0.501310 -0.275403
C8    C     C_R   0.254846 0.649245 0.407407 0.111921
C9    C     C_R   0.177118 0.676223 0.393549 0.143070
C10   C     C_R   0.119040 0.600480 0.458547 -0.095497
C11   C     C_R   0.466735 0.056352 0.592216 0.013427
C12   C     C_R   0.353871 0.514279 0.502498 0.988159
C13   C     C_R   0.506085 0.126833 0.491544 -0.173299
C14   C     C_R   0.546836 0.066209 0.384810 0.177882
C15   C     C_R   0.553070 0.937952 0.391568 0.130900
C16   C     C_R   0.513029 0.870804 0.497266 -0.177357
C17   C     C_R   0.472991 0.931306 0.598585 0.056633
C18   C     C_3   0.488123 0.935648 0.745146 0.283325
C19   C     C_3   0.473621 0.068593 0.737441 -0.465778
C20   C     C_R   0.484208 0.396304 0.075172 0.163048
C21   C     C_R   0.518715 0.603038 0.067600 -0.058050
C22   C     C_R   0.518536 0.602774 0.924611 -0.097522
C23   C     C_R   0.506123 0.739109 0.498772 0.915306
C24   C     C_R   0.491641 0.392892 0.934289 0.086158
C25   C     C_3   0.431263 0.289827 0.942797 -0.202899
C26   C     C_3   0.413923 0.313871 0.091251 0.494712
C27   C     C_R   0.647738 0.504146 0.495511 0.932825
C28   C     C_R   0.851241 0.600783 0.581945 0.090951
C29   C     C_R   0.773072 0.563098 0.597446 0.379310
C30   C     C_R   0.732578 0.531176 0.483019 -0.359548
C31   C     C_R   0.773101 0.536290 0.354335 0.357961
C32   C     C_R   0.849335 0.583694 0.339403 0.360787
H1    H     H_    0.417052 0.085180 0.786123 0.232430
H2    H     H_    0.522896 0.130678 0.761281 0.229929
H3    H     H_    0.532269 0.687364 0.117136 0.204262
H4    H     H_    0.533541 0.685405 0.868542 0.191888
H5    H     H_    0.461029 0.203041 0.937273 0.164614
N1    N     N_R   0.499490 0.499140 0.142800 -0.115826
N2    N     N_R   0.499490 0.499180 0.857150 -0.091104
O1    O     O_R   0.500010 0.316790 0.614690 -0.604916
O2    O     O_R   0.500000 0.316760 0.385350 -0.554895
O3    O     O_R   0.389120 0.500020 0.614710 -0.559997
O4    O     O_R   0.389110 0.499990 0.385370 -0.579597
O5    O     O_R   0.500000 0.683240 0.614650 -0.631474
O6    O     O_R   0.499990 0.683210 0.385310 -0.595026
O7    O     O_R   0.610890 0.500010 0.614630 -0.592434
O8    O     O_R   0.610880 0.499980 0.385290 -0.564256
Zn1   Zn    Zn3+2 0.500010 0.500020 0.653130 1.007220
Zn2   Zn    Zn3+2 0.499990 0.499980 0.346870 1.048951
I1    I     I_    0.913740 0.637498 0.754853 -0.368607
I2    I     I_    0.636739 0.848648 0.263818 -0.339774
I3    I     I_    0.402201 0.842811 0.877625 -0.382144
I4    I     I_    0.605672 0.918423 0.794143 -0.425380
I5    I     I_    0.337352 0.286870 0.817701 -0.267837
I6    I     I_    0.309831 0.412119 0.141477 -0.322875
O9    O     O_3   0.739730 0.542985 0.725934 -0.565819
C33   C     C_3   0.715795 0.655035 0.779831 0.125054
H6    H     H_    0.657703 0.672625 0.747086 0.180972
H7    H     H_    0.754775 0.735251 0.748240 0.165605
C34   C     C_3   0.711931 0.645928 0.932498 -0.712485
H8    H     H_    0.689452 0.731053 0.976272 0.241375
H9    H     H_    0.770141 0.632902 0.967935 0.276598
H10   H     H_    0.673430 0.567306 0.967939 0.260532
O10   O     O_3   0.425339 0.212724 0.176511 -0.592709
C35   C     C_3   0.365553 0.121517 0.170689 0.120984
H11   H     H_    0.391742 0.034556 0.139763 0.212241
H12   H     H_    0.321798 0.141181 0.097259 0.172236
C36   C     C_3   0.324920 0.102384 0.309588 -0.694843
H13   H     H_    0.364700 0.063005 0.379432 0.249256
H14   H     H_    0.274365 0.038122 0.303633 0.252338
H15   H     H_    0.304917 0.190614 0.349662 0.265321
O11   O     O_3   0.738971 0.494632 0.241039 -0.568696
C37   C     C_3   0.766817 0.377905 0.209230 0.142498
H16   H     H_    0.735952 0.307750 0.276044 0.158964
H17   H     H_    0.829520 0.369731 0.222342 0.171486
C38   C     C_3   0.754200 0.350361 0.062841 -0.676982
H18   H     H_    0.791300 0.413429 0.996023 0.276625
H19   H     H_    0.769657 0.254866 0.040709 0.226938
H20   H     H_    0.692987 0.361454 0.041937 0.259256
O12   O     O_3   0.888246 0.580119 0.213956 -0.600843
C39   C     C_3   0.911076 0.699242 0.166198 0.127921
H21   H     H_    0.916302 0.768839 0.246279 0.141230
H22   H     H_    0.868296 0.731047 0.096933 0.180329
C40   C     C_3   0.988972 0.693103 0.089002 -0.721169
H23   H     H_    0.986312 0.623897 0.009321 0.279768
H24   H     H_    0.032572 0.663876 0.157499 0.257920
H25   H     H_    0.006871 0.783937 0.043516 0.238706
I7    I     I_    0.052692 0.378244 0.634362 -0.251962
O13   O     O_3   0.227658 0.442314 0.701616 -0.565615
C41   C     C_3   0.200922 0.510602 0.814431 0.140930
H26   H     H_    0.192988 0.447203 0.902556 0.215787
H27   H     H_    0.143824 0.550725 0.803515 0.145825
C42   C     C_3   0.259291 0.611989 0.846229 -0.741469
H28   H     H_    0.264282 0.681857 0.763944 0.247342
H29   H     H_    0.240063 0.656796 0.941134 0.254634
H30   H     H_    0.316554 0.573667 0.858247 0.300717
I8    I     I_    0.341277 0.755805 0.290837 -0.299768
I9    I     I_    0.145801 0.830939 0.278139 -0.356537
I10   I     I_    0.602365 0.160592 0.214671 -0.306933

loop_
_geom_bond_atom_site_label_1
_geom_bond_atom_site_label_2
_ccdc_geom_bond_type
C24   C25   S    
C42   H28   S    
C23   O6    A    
C37   H16   S    
C40   H25   S    
C26   I6    S    
C39   H21   S    
C33   H6    S    
C18   I3    S    
C7    C8    A    
O8    Zn2   S    
N1    Zn2   S    
C11   C19   S    
C9    I9    S    
C34   H10   S    
C5    C6    A    
C2    C32   A    
C28   C29   A    
C40   H24   S    
C12   O4    A    
C30   C31   A    
O12   C39   S    
C33   H7    S    
C15   C16   A    
C24   N2    A    
O9    C33   S    
C34   H9    S    
C18   C19   S    
C26   O10   S    
C12   O3    A    
C1    O1    A    
C25   H5    S    
C36   H13   S    
C5    I7    S    
C28   I1    S    
C40   H23   S    
C21   N1    A    
C20   C24   A    
C8    C9    A    
C35   H12   S    
C38   H20   S    
C15   I2    S    
C9    C10   A    
C18   I4    S    
C42   H29   S    
C21   C22   A    
C27   C30   S    
C37   H17   S    
O2    Zn2   S    
C39   H22   S    
C7    C12   S    
O7    Zn1   S    
C14   I10   S    
C25   I5    S    
C19   H1    S    
O4    Zn2   S    
C33   C34   S    
C25   C26   S    
C23   O5    A    
C34   H8    S    
C8    I8    S    
C29   C30   A    
C32   O12   S    
C20   N1    A    
C41   H27   S    
C31   C32   A    
O6    Zn2   S    
C35   C36   S    
C17   C18   S    
O3    Zn1   S    
C38   H18   S    
C27   O7    A    
C1    O2    A    
C31   O11   S    
C16   C23   S    
C37   C38   S    
C1    C13   S    
C4    C10   S    
C3    C4    T    
C39   C40   S    
C41   C42   S    
C27   O8    A    
O1    Zn1   S    
C11   C17   A    
C38   H19   S    
O11   C37   S    
C19   H2    S    
C6    C7    A    
C21   H3    S    
C29   O9    S    
C42   H30   S    
C6    O13   S    
C22   H4    S    
O10   C35   S    
C2    C3    S    
C5    C10   A    
C11   C13   A    
C41   H26   S    
C16   C17   A    
C20   C26   S    
C36   H15   S    
C22   N2    A    
C36   H14   S    
C35   H11   S    
C14   C15   A    
C2    C28   A    
O13   C41   S    
C13   C14   A    
O5    Zn1   S    
N2    Zn1   S    
