data_mof_unit_9054.cif
_audit_creation_date              2012-12-10T19:11:32-0500
_audit_creation_method            fapswitch 2.2
_symmetry_space_group_name_H-M    P1
_symmetry_Int_Tables_number       1
_space_group_crystal_system       triclinic
_cell_length_a                    10.591856
_cell_length_b                    9.835809
_cell_length_c                    10.502417
_cell_angle_alpha                 90.755258
_cell_angle_beta                  91.296169
_cell_angle_gamma                 89.487353
_cell_volume                      1093.72032954

loop_
_atom_site_label
_atom_site_type_symbol
_atom_type_description
_atom_site_fract_x
_atom_site_fract_y
_atom_site_fract_z
_atom_type_partial_charge
C1    C     C_R   0.258454 0.500055 0.507495 0.788677
C2    C     C_3   0.503599 0.502128 0.121760 0.027285
C3    C     C_3   0.073036 0.623913 0.588888 -0.395985
C4    C     C_3   0.075131 0.368949 0.579921 -0.392993
C5    C     C_3   0.928635 0.625494 0.586511 -0.403597
C6    C     C_3   0.930449 0.368816 0.578978 -0.404087
C7    C     C_3   0.068460 0.497962 0.374359 -0.448289
C8    C     C_3   0.121781 0.498528 0.512672 0.211879
C9    C     C_3   0.878498 0.498702 0.512152 0.183414
C10   C     C_3   0.924363 0.501907 0.373860 -0.373545
C11   C     C_3   0.391333 0.081818 0.420086 0.465141
C12   C     C_3   0.391423 0.919211 0.418476 0.463012
C13   C     C_3   0.621104 0.079021 0.450675 0.224741
C14   C     C_3   0.621718 0.917892 0.452162 0.224843
C15   C     C_3   0.485602 0.082573 0.627818 -0.499246
C16   C     C_3   0.484108 0.921032 0.627565 -0.499652
C17   C     C_R   0.501712 0.499936 0.257325 0.864207
C18   C     C_R   0.741918 0.499580 0.507707 0.839476
C19   C     C_R   0.501754 0.500716 0.742181 0.846324
C20   C     C_3   0.523020 0.629808 0.042479 -0.102556
C21   C     C_3   0.391573 0.458403 0.037614 -0.227106
C22   C     C_3   0.411162 0.584999 0.956000 -0.215224
C23   C     C_3   0.503820 0.502141 0.876969 0.031316
C24   C     C_3   0.616028 0.547326 0.960195 -0.210292
C25   C     C_3   0.484645 0.375127 0.955940 -0.109708
C26   C     C_3   0.596951 0.420145 0.042092 -0.122520
H1    H     H_    0.335595 0.652141 0.916290 0.129723
H2    H     H_    0.889837 0.595880 0.325860 0.203564
H3    H     H_    0.886741 0.413350 0.318224 0.188105
H4    H     H_    0.303723 0.114374 0.469538 -0.041529
H5    H     H_    0.302941 0.886857 0.464298 -0.008862
H6    H     H_    0.563862 0.119085 0.691573 0.202139
H7    H     H_    0.560404 0.882831 0.692665 0.207993
H8    H     H_    0.397426 0.122783 0.670620 0.193485
H9    H     H_    0.394306 0.885402 0.668252 0.190083
H10   H     H_    0.698239 0.112722 0.517325 0.072119
H11   H     H_    0.697785 0.886856 0.521034 0.073717
H12   H     H_    0.536879 0.735041 0.078586 0.213880
H13   H     H_    0.297396 0.430187 0.071232 0.127347
H14   H     H_    0.707144 0.583759 0.923736 0.133145
H15   H     H_    0.470984 0.271487 0.915124 0.137791
H16   H     H_    0.673784 0.353867 0.080055 0.176890
H17   H     H_    0.107270 0.720458 0.549378 0.168220
H18   H     H_    0.108745 0.275158 0.530259 0.173137
H19   H     H_    0.108911 0.619602 0.689260 0.154123
H20   H     H_    0.112558 0.365906 0.679786 0.159576
H21   H     H_    0.893605 0.626263 0.685691 0.151475
H22   H     H_    0.896523 0.364995 0.678425 0.156015
H23   H     H_    0.894987 0.720902 0.540429 0.196023
H24   H     H_    0.896836 0.275502 0.528014 0.195624
H25   H     H_    0.103766 0.585444 0.321775 0.169075
H26   H     H_    0.099943 0.404940 0.322773 0.156506
N1    N     N_3   0.499750 0.138610 0.497240 -0.114373
N2    N     N_3   0.499750 0.861390 0.497240 -0.118136
O1    O     O_R   0.314910 0.616040 0.499970 -0.647241
O2    O     O_R   0.314910 0.383960 0.499970 -0.643520
O3    O     O_R   0.500080 0.616020 0.313900 -0.567189
O4    O     O_R   0.500080 0.383980 0.313900 -0.545707
O5    O     O_R   0.685320 0.616040 0.499930 -0.605678
O6    O     O_R   0.685320 0.383960 0.499930 -0.609573
O7    O     O_R   0.500150 0.616060 0.686000 -0.630190
O8    O     O_R   0.500150 0.383940 0.686000 -0.639806
Zn1   Zn    Zn3+2 0.500150 0.654960 0.499940 0.952673
Zn2   Zn    Zn3+2 0.500150 0.345040 0.499940 0.958587
O9    O     O_3   0.394127 0.131818 0.293370 -0.547004
C27   C     C_3   0.279319 0.194664 0.251837 0.176906
H27   H     H_    0.291083 0.306010 0.253955 0.142898
H28   H     H_    0.196716 0.175895 0.312156 0.069720
C28   C     C_3   0.248540 0.149752 0.114415 -0.352235
H29   H     H_    0.318674 0.191572 0.049877 0.222500
H30   H     H_    0.256661 0.038035 0.104137 0.252660
C29   C     C_3   0.116065 0.195114 0.071814 -1.006208
H31   H     H_    0.043980 0.145965 0.130613 0.293210
H32   H     H_    0.099099 0.165059 0.970638 0.267613
H33   H     H_    0.105416 0.307163 0.080973 0.255945
O10   O     O_3   0.394671 0.872271 0.289592 -0.565807
C30   C     C_3   0.287777 0.795599 0.245534 0.127282
H34   H     H_    0.290982 0.691811 0.283083 0.153725
H35   H     H_    0.298391 0.782614 0.141183 0.158026
C31   C     C_3   0.155416 0.856758 0.270462 -0.496357
H36   H     H_    0.118353 0.815925 0.359529 0.208364
H37   H     H_    0.158478 0.966650 0.284547 0.237068
C32   C     C_3   0.060838 0.824584 0.162201 -0.902868
H38   H     H_    0.089074 0.874366 0.073108 0.262113
H39   H     H_    0.965797 0.863208 0.187813 0.304135
H40   H     H_    0.055233 0.713361 0.144239 0.248644
Br1   Br    Br    0.676087 0.156754 0.290577 -0.460659
Br2   Br    Br    0.681933 0.832882 0.295096 -0.484397

loop_
_geom_bond_atom_site_label_1
_geom_bond_atom_site_label_2
_ccdc_geom_bond_type
C7    C10   S    
C27   H28   S    
C29   H32   S    
C1    C8    S    
C4    C8    S    
C6    C9    S    
C15   H6    S    
C4    H20   S    
C30   H34   S    
C5    H21   S    
C3    H17   S    
C6    H22   S    
C15   N1    S    
C1    O2    A    
C24   C26   S    
C7    H26   S    
C29   H33   S    
C16   H9    S    
N1    Zn2   S    
C27   C28   S    
N2    Zn1   S    
C19   O8    A    
C15   C16   S    
O7    Zn1   S    
C28   H30   S    
O8    Zn2   S    
C20   C24   S    
C11   H4    S    
O1    Zn1   S    
C23   C24   S    
O2    Zn2   S    
C9    C10   S    
C15   H8    S    
C11   N1    S    
C17   O4    A    
C27   H27   S    
C13   C14   S    
C2    C17   S    
C5    H23   S    
C31   C32   S    
O3    Zn1   S    
C13   N1    S    
C30   H35   S    
O4    Zn2   S    
C2    C20   S    
C7    C8    S    
O10   C30   S    
C13   H10   S    
C4    C6    S    
C3    C8    S    
C25   H15   S    
C29   H31   S    
C4    H18   S    
C25   C26   S    
C3    H19   S    
C28   C29   S    
C19   C23   S    
C5    C9    S    
C16   H7    S    
C20   H12   S    
C9    C18   S    
C32   H38   S    
C21   H13   S    
C13   Br1   S    
C2    C21   S    
C2    C26   S    
C6    H24   S    
C18   O6    A    
C14   N2    S    
C20   C22   S    
C22   H1    S    
C12   O10   S    
C12   H5    S    
C26   H16   S    
C30   C31   S    
C10   H2    S    
C21   C25   S    
C32   H39   S    
C31   H36   S    
C3    C5    S    
C11   C12   S    
O5    Zn1   S    
O6    Zn2   S    
C1    O1    A    
C7    H25   S    
C14   H11   S    
C10   H3    S    
C19   O7    A    
C24   H14   S    
C31   H37   S    
C23   C25   S    
C28   H29   S    
C16   N2    S    
C14   Br2   S    
C18   O5    A    
C32   H40   S    
O9    C27   S    
C22   C23   S    
C21   C22   S    
C12   N2    S    
C11   O9    S    
C17   O3    A    
