data_mof_unit_62570.cif
_audit_creation_date              2012-12-10T18:17:50-0500
_audit_creation_method            fapswitch 2.2
_symmetry_space_group_name_H-M    P1
_symmetry_Int_Tables_number       1
_space_group_crystal_system       triclinic
_cell_length_a                    26.268009
_cell_length_b                    33.003874
_cell_length_c                    33.001851
_cell_angle_alpha                 89.999858
_cell_angle_beta                  89.83725
_cell_angle_gamma                 89.999671
_cell_volume                      28610.7092482

loop_
_atom_site_label
_atom_site_type_symbol
_atom_type_description
_atom_site_fract_x
_atom_site_fract_y
_atom_site_fract_z
_atom_type_partial_charge
C1    C     C_R   0.392048 0.501723 0.748404 0.872498
C2    C     C_R   0.107952 0.001727 0.251601 0.872401
C3    C     C_1   0.749704 0.999949 0.399499 -0.162652
C4    C     C_1   0.249834 0.999801 0.100507 -0.155376
C5    C     C_1   0.750166 0.999800 0.899493 -0.155344
C6    C     C_1   0.750297 0.999949 0.100501 -0.162651
C7    C     C_1   0.249703 0.999949 0.899499 -0.162643
C8    C     C_1   0.249676 0.499742 0.563041 -0.006434
C9    C     C_1   0.750325 0.499741 0.436959 -0.006407
C10   C     C_1   0.750430 0.499867 0.563032 -0.004226
C11   C     C_1   0.249570 0.499868 0.436968 -0.004209
C12   C     C_1   0.749676 0.499741 0.063041 -0.006373
C13   C     C_R   0.107769 0.000602 0.749792 0.835541
C14   C     C_1   0.250324 0.499741 0.936959 -0.006382
C15   C     C_1   0.250429 0.499868 0.063032 -0.004189
C16   C     C_1   0.749570 0.499867 0.936968 -0.004195
C17   C     C_1   0.749677 0.999741 0.563041 -0.006352
C18   C     C_1   0.250325 0.999740 0.436959 -0.006282
C19   C     C_1   0.250429 0.999867 0.563032 -0.004182
C20   C     C_1   0.749572 0.999868 0.436968 -0.004134
C21   C     C_1   0.249676 0.999742 0.063041 -0.006440
C22   C     C_1   0.750325 0.999741 0.936959 -0.006395
C23   C     C_1   0.750431 0.999867 0.063032 -0.004233
C24   C     C_R   0.892231 0.000596 0.250204 0.835487
C25   C     C_1   0.249570 0.999868 0.936968 -0.004202
C26   C     C_1   0.249542 0.499741 0.518740 0.008194
C27   C     C_1   0.750458 0.499740 0.481260 0.008201
C28   C     C_1   0.750492 0.499783 0.518730 0.010560
C29   C     C_1   0.249508 0.499783 0.481270 0.010571
C30   C     C_1   0.749542 0.499740 0.018740 0.008216
C31   C     C_1   0.250457 0.499741 0.981260 0.008214
C32   C     C_1   0.250491 0.499783 0.018730 0.010579
C33   C     C_1   0.749509 0.499783 0.981270 0.010575
C34   C     C_1   0.749544 0.999741 0.518740 0.008226
C35   C     C_R   0.392049 0.001715 0.248416 0.872700
C36   C     C_1   0.250457 0.999739 0.481260 0.008242
C37   C     C_1   0.250490 0.999782 0.518730 0.010571
C38   C     C_1   0.749511 0.999783 0.481270 0.010596
C39   C     C_1   0.249542 0.999741 0.018740 0.008197
C40   C     C_1   0.750459 0.999740 0.981260 0.008206
C41   C     C_1   0.750492 0.999783 0.018730 0.010561
C42   C     C_1   0.249508 0.999783 0.981270 0.010576
C43   C     C_R   0.250035 0.499956 0.854435 0.823840
C44   C     C_R   0.749964 0.499956 0.145565 0.823863
C45   C     C_R   0.749916 0.500021 0.854437 0.817144
C46   C     C_R   0.607951 0.001720 0.751592 0.872558
C47   C     C_R   0.250084 0.500021 0.145563 0.817149
C48   C     C_R   0.750035 0.499956 0.354435 0.823869
C49   C     C_R   0.249965 0.499956 0.645565 0.823860
C50   C     C_R   0.249916 0.500021 0.354437 0.817189
C51   C     C_R   0.750084 0.500021 0.645563 0.817210
C52   C     C_R   0.750036 0.999956 0.854435 0.823883
C53   C     C_R   0.249965 0.999956 0.145565 0.823914
C54   C     C_R   0.249916 0.000021 0.854437 0.817196
C55   C     C_R   0.750084 0.000021 0.145563 0.817281
C56   C     C_R   0.250036 0.999955 0.354435 0.823863
C57   C     C_R   0.607769 0.000617 0.249779 0.835660
C58   C     C_R   0.749964 0.999956 0.645565 0.823872
C59   C     C_R   0.749916 0.000021 0.354437 0.817031
C60   C     C_R   0.250084 0.000021 0.645563 0.817132
C61   C     C_R   0.250001 0.604418 0.749999 0.827563
C62   C     C_R   0.749999 0.604418 0.250000 0.827594
C63   C     C_R   0.750000 0.604448 0.750000 0.801264
C64   C     C_R   0.250000 0.604448 0.250000 0.801278
C65   C     C_R   0.749999 0.104418 0.750000 0.827615
C66   C     C_R   0.250003 0.104418 0.249998 0.827638
C67   C     C_R   0.250000 0.104448 0.750000 0.801288
C68   C     C_R   0.392231 0.000607 0.750214 0.835580
C69   C     C_R   0.750001 0.104448 0.250001 0.801301
C70   C     C_R   0.250000 0.395589 0.750000 0.788306
C71   C     C_R   0.750000 0.395589 0.250000 0.788300
C72   C     C_R   0.750000 0.395618 0.750000 0.803134
C73   C     C_R   0.250001 0.395618 0.250000 0.803153
C74   C     C_R   0.750000 0.895589 0.750000 0.788294
C75   C     C_R   0.250001 0.895589 0.250000 0.788288
C76   C     C_R   0.250000 0.895618 0.750000 0.803165
C77   C     C_R   0.750000 0.895618 0.250000 0.803179
C78   C     C_1   0.250000 0.350515 0.750000 -0.174140
C79   C     C_1   0.249999 0.149505 0.749999 -0.177457
C80   C     C_1   0.750002 0.350515 0.250001 -0.174162
C81   C     C_1   0.749999 0.350533 0.750001 -0.166113
C82   C     C_1   0.250004 0.350533 0.249998 -0.166112
C83   C     C_1   0.750000 0.850515 0.750000 -0.174187
C84   C     C_1   0.250001 0.850515 0.250001 -0.174203
C85   C     C_1   0.250001 0.850533 0.749999 -0.166115
C86   C     C_1   0.749999 0.850533 0.250001 -0.166114
C87   C     C_1   0.250000 0.313041 0.750000 -0.012926
C88   C     C_1   0.750003 0.313041 0.250003 -0.012931
C89   C     C_1   0.749998 0.313053 0.750001 -0.010475
C90   C     C_1   0.750004 0.149505 0.250003 -0.177499
C91   C     C_1   0.250008 0.313053 0.249997 -0.010479
C92   C     C_1   0.750001 0.813041 0.750000 -0.012945
C93   C     C_1   0.250001 0.813041 0.250001 -0.012948
C94   C     C_1   0.250003 0.813053 0.749999 -0.010488
C95   C     C_1   0.749998 0.813053 0.250001 -0.010490
C96   C     C_1   0.249999 0.268732 0.749999 -0.001814
C97   C     C_1   0.750004 0.268732 0.250004 -0.001816
C98   C     C_1   0.749996 0.268736 0.750001 -0.000217
C99   C     C_1   0.250013 0.268736 0.249995 -0.000224
C100  C     C_1   0.750001 0.768732 0.750001 -0.001830
C101  C     C_1   0.749997 0.149483 0.750001 -0.193524
C102  C     C_1   0.250001 0.768732 0.250000 -0.001831
C103  C     C_1   0.250004 0.768736 0.749999 -0.000224
C104  C     C_1   0.749997 0.768736 0.250001 -0.000231
C105  C     C_1   0.249999 0.231262 0.749999 -0.009781
C106  C     C_1   0.750005 0.231262 0.250005 -0.009765
C107  C     C_1   0.749996 0.231260 0.750001 -0.003790
C108  C     C_1   0.250016 0.231260 0.249995 -0.003814
C109  C     C_1   0.750001 0.731262 0.750001 -0.009830
C110  C     C_1   0.250001 0.731262 0.250000 -0.009809
C111  C     C_1   0.250005 0.731260 0.749998 -0.003765
C112  C     C_R   0.607952 0.501723 0.251595 0.872520
C113  C     C_1   0.250012 0.149483 0.249995 -0.193458
C114  C     C_1   0.749997 0.731260 0.250001 -0.003792
C115  C     C_1   0.249999 0.186966 0.749999 -0.025783
C116  C     C_1   0.750004 0.186966 0.250004 -0.025785
C117  C     C_1   0.749996 0.186954 0.750001 -0.035501
C118  C     C_1   0.250017 0.186954 0.249994 -0.035483
C119  C     C_1   0.750001 0.686966 0.750001 -0.025776
C120  C     C_1   0.250000 0.686966 0.250000 -0.025781
C121  C     C_1   0.250005 0.686954 0.749998 -0.035546
C122  C     C_1   0.749997 0.686954 0.250001 -0.035525
C123  C     C_R   0.056984 0.464350 0.682219 0.168920
C124  C     C_1   0.750001 0.649505 0.750001 -0.177353
C125  C     C_R   0.097887 0.437068 0.676858 -0.171053
C126  C     C_R   0.124149 0.434920 0.640042 -0.142205
C127  C     C_R   0.109923 0.459676 0.607774 -0.104682
C128  C     C_R   0.069329 0.486548 0.612264 -0.140775
C129  C     C_R   0.043093 0.488981 0.649094 -0.107552
C130  C     C_R   0.943017 0.464246 0.317729 0.168820
C131  C     C_R   0.902107 0.436964 0.323045 -0.171110
C132  C     C_R   0.875840 0.434763 0.359857 -0.142258
C133  C     C_R   0.890070 0.459466 0.392164 -0.104733
C134  C     C_R   0.930672 0.486338 0.387718 -0.140782
C135  C     C_1   0.250000 0.649505 0.250000 -0.177413
C136  C     C_R   0.956913 0.488824 0.350892 -0.107576
C137  C     C_R   0.946509 0.450875 0.685375 0.136061
C138  C     C_R   0.955250 0.410373 0.673391 -0.133623
C139  C     C_R   0.934544 0.394931 0.637645 -0.128971
C140  C     C_R   0.904599 0.419538 0.613040 -0.114224
C141  C     C_R   0.895555 0.459662 0.624068 -0.153203
C142  C     C_R   0.916304 0.475357 0.659743 -0.158677
C143  C     C_R   0.053498 0.450782 0.314553 0.136101
C144  C     C_R   0.044748 0.410266 0.326486 -0.133550
C145  C     C_R   0.065458 0.394776 0.362210 -0.128979
C146  C     C_1   0.250003 0.649483 0.749998 -0.193637
C147  C     C_R   0.095416 0.419345 0.386841 -0.114184
C148  C     C_R   0.104472 0.459481 0.375861 -0.153216
C149  C     C_R   0.083719 0.475225 0.340209 -0.158846
C150  C     C_R   0.556981 0.464167 0.182313 0.168737
C151  C     C_R   0.597895 0.436882 0.177030 -0.171146
C152  C     C_R   0.624161 0.434638 0.140221 -0.142272
C153  C     C_R   0.609926 0.459300 0.107884 -0.104765
C154  C     C_R   0.569320 0.486173 0.112297 -0.140795
C155  C     C_R   0.543081 0.488702 0.149120 -0.107592
C156  C     C_R   0.443021 0.464206 0.817708 0.168779
C157  C     C_1   0.749998 0.649483 0.250001 -0.193561
C158  C     C_R   0.402108 0.436923 0.823009 -0.171129
C159  C     C_R   0.375844 0.434701 0.859820 -0.142254
C160  C     C_R   0.390079 0.459383 0.892142 -0.104741
C161  C     C_R   0.430683 0.486255 0.887711 -0.140797
C162  C     C_R   0.456920 0.488762 0.850886 -0.107588
C163  C     C_R   0.446497 0.450711 0.185506 0.136132
C164  C     C_R   0.455254 0.410184 0.173613 -0.133510
C165  C     C_R   0.434541 0.394655 0.137908 -0.128950
C166  C     C_R   0.404571 0.419195 0.113257 -0.114136
C167  C     C_R   0.395507 0.459340 0.124197 -0.153243
C168  C     C_3   0.031006 0.466827 0.724130 -0.246796
C169  C     C_R   0.416264 0.475123 0.159831 -0.158956
C170  C     C_R   0.553502 0.450746 0.814521 0.136118
C171  C     C_R   0.544752 0.410224 0.826434 -0.133536
C172  C     C_R   0.565466 0.394714 0.862147 -0.128954
C173  C     C_R   0.595431 0.419269 0.886787 -0.114155
C174  C     C_R   0.604488 0.459410 0.875829 -0.153234
C175  C     C_R   0.583730 0.475174 0.840187 -0.158894
C176  C     C_R   0.556977 0.964096 0.682349 0.168670
C177  C     C_R   0.597896 0.936811 0.677094 -0.171192
C178  C     C_R   0.624164 0.934534 0.640288 -0.142314
C179  C     C_3   0.968997 0.466786 0.275822 -0.246819
C180  C     C_R   0.609926 0.959162 0.607926 -0.104796
C181  C     C_R   0.569315 0.986035 0.612312 -0.140810
C182  C     C_R   0.543074 0.988597 0.649131 -0.107610
C183  C     C_R   0.443024 0.963849 0.317523 0.168423
C184  C     C_R   0.402086 0.936561 0.322670 -0.171317
C185  C     C_R   0.375806 0.934159 0.359463 -0.142427
C186  C     C_R   0.390053 0.958660 0.391919 -0.104917
C187  C     C_R   0.430686 0.985530 0.387640 -0.140834
C188  C     C_R   0.456937 0.988218 0.350834 -0.107669
C189  C     C_R   0.446491 0.950649 0.685558 0.136163
C190  C     C_3   0.971015 0.464856 0.725443 -0.242833
C191  C     C_R   0.455252 0.910114 0.673697 -0.133460
C192  C     C_R   0.434533 0.894553 0.638008 -0.128968
C193  C     C_R   0.404551 0.919068 0.613341 -0.114129
C194  C     C_R   0.395482 0.959222 0.624250 -0.153256
C195  C     C_R   0.416245 0.975037 0.659867 -0.159063
C196  C     C_R   0.553523 0.950425 0.314266 0.136259
C197  C     C_R   0.544737 0.909857 0.326005 -0.133288
C198  C     C_R   0.565462 0.894176 0.361639 -0.128977
C199  C     C_R   0.595478 0.918601 0.386369 -0.114020
C200  C     C_R   0.604577 0.958782 0.375578 -0.153288
C201  C     C_3   0.028989 0.464818 0.274505 -0.242811
C202  C     C_R   0.583809 0.974716 0.340016 -0.159466
C203  C     C_R   0.056984 0.964358 0.182214 0.168927
C204  C     C_R   0.097886 0.937077 0.176850 -0.171047
C205  C     C_R   0.124147 0.934933 0.140032 -0.142209
C206  C     C_R   0.109920 0.959692 0.107768 -0.104680
C207  C     C_R   0.069327 0.986565 0.112262 -0.140765
C208  C     C_R   0.043092 0.988994 0.149093 -0.107550
C209  C     C_R   0.943019 0.964220 0.817716 0.168791
C210  C     C_R   0.902107 0.936937 0.823022 -0.171123
C211  C     C_R   0.875842 0.934723 0.859833 -0.142270
C212  C     C_3   0.531001 0.466755 0.224217 -0.246838
C213  C     C_R   0.890075 0.959412 0.892150 -0.104750
C214  C     C_R   0.930679 0.986284 0.887714 -0.140780
C215  C     C_R   0.956917 0.988783 0.850889 -0.107583
C216  C     C_R   0.946509 0.950883 0.185369 0.136058
C217  C     C_R   0.955248 0.910382 0.173381 -0.133632
C218  C     C_R   0.934542 0.894945 0.137634 -0.128971
C219  C     C_R   0.904598 0.919554 0.113031 -0.114238
C220  C     C_R   0.895556 0.959678 0.124063 -0.153207
C221  C     C_R   0.916305 0.975369 0.159739 -0.158660
C222  C     C_R   0.053501 0.950758 0.814532 0.136112
C223  C     C_R   0.607769 0.500602 0.749791 0.835548
C224  C     C_3   0.468998 0.466769 0.775802 -0.246832
C225  C     C_R   0.044750 0.910239 0.826453 -0.133534
C226  C     C_R   0.065462 0.894736 0.862170 -0.128980
C227  C     C_R   0.095425 0.919295 0.886807 -0.114174
C228  C     C_R   0.104482 0.959435 0.875840 -0.153226
C229  C     C_R   0.083726 0.975191 0.840194 -0.158882
C230  C     C_R   0.052093 0.582545 0.755364 0.124890
C231  C     C_R   0.031768 0.598437 0.791510 -0.058315
C232  C     C_R   0.050463 0.634403 0.808140 -0.123648
C233  C     C_R   0.089329 0.655586 0.788578 -0.125148
C234  C     C_R   0.109135 0.641019 0.752151 -0.137652
C235  C     C_3   0.471008 0.464791 0.225537 -0.242783
C236  C     C_R   0.090567 0.605016 0.735525 -0.136285
C237  C     C_R   0.947904 0.582553 0.244767 0.124954
C238  C     C_R   0.968217 0.598494 0.208638 -0.058409
C239  C     C_R   0.949522 0.634486 0.192064 -0.123669
C240  C     C_R   0.910667 0.655646 0.211666 -0.125182
C241  C     C_R   0.890874 0.641030 0.248077 -0.137577
C242  C     C_R   0.909444 0.605002 0.264648 -0.136067
C243  C     C_R   0.944770 0.584327 0.734631 0.133829
C244  C     C_R   0.907206 0.593939 0.763684 -0.073825
C245  C     C_R   0.885984 0.632735 0.765627 -0.135060
C246  C     C_3   0.528991 0.464804 0.774482 -0.242791
C247  C     C_R   0.901252 0.662603 0.738331 -0.107671
C248  C     C_R   0.937631 0.653655 0.708846 -0.122258
C249  C     C_R   0.958969 0.614930 0.706849 -0.157044
C250  C     C_R   0.055219 0.584306 0.265500 0.133895
C251  C     C_R   0.092760 0.593974 0.236448 -0.073772
C252  C     C_R   0.113971 0.632776 0.234562 -0.134996
C253  C     C_R   0.098714 0.662595 0.261916 -0.107677
C254  C     C_R   0.062357 0.653590 0.291401 -0.122257
C255  C     C_R   0.041030 0.614860 0.293340 -0.157090
C256  C     C_R   0.552100 0.582559 0.255134 0.124990
C257  C     C_3   0.530998 0.966724 0.724251 -0.246856
C258  C     C_R   0.531798 0.598537 0.291251 -0.058463
C259  C     C_R   0.550496 0.634548 0.307782 -0.123681
C260  C     C_R   0.589343 0.655689 0.288149 -0.125219
C261  C     C_R   0.609123 0.641036 0.251748 -0.137521
C262  C     C_R   0.590549 0.604990 0.235219 -0.135911
C263  C     C_R   0.447901 0.582554 0.744817 0.124971
C264  C     C_R   0.468208 0.598514 0.708695 -0.058439
C265  C     C_R   0.449510 0.634515 0.692142 -0.123671
C266  C     C_R   0.410658 0.655665 0.711760 -0.125193
C267  C     C_R   0.390872 0.641030 0.748166 -0.137542
C268  C     C_3   0.469008 0.966627 0.275633 -0.246905
C269  C     C_R   0.409446 0.604993 0.764716 -0.135986
C270  C     C_R   0.444789 0.584293 0.234409 0.133933
C271  C     C_R   0.407259 0.593999 0.263458 -0.073707
C272  C     C_R   0.386064 0.632809 0.265308 -0.134951
C273  C     C_R   0.401324 0.662596 0.237922 -0.107707
C274  C     C_R   0.437667 0.653553 0.208438 -0.122280
C275  C     C_R   0.458979 0.614815 0.206534 -0.157114
C276  C     C_R   0.555214 0.584298 0.765545 0.133912
C277  C     C_R   0.592750 0.593985 0.736495 -0.073734
C278  C     C_R   0.613954 0.632791 0.734628 -0.134967
C279  C     C_3   0.471004 0.964763 0.725575 -0.242768
C280  C     C_R   0.598695 0.662593 0.761998 -0.107698
C281  C     C_R   0.562344 0.653570 0.791482 -0.122280
C282  C     C_R   0.541025 0.614835 0.793403 -0.157104
C283  C     C_R   0.552099 0.082559 0.755048 0.125030
C284  C     C_R   0.531801 0.098571 0.791150 -0.058530
C285  C     C_R   0.550501 0.134597 0.807647 -0.123672
C286  C     C_R   0.589346 0.155719 0.787992 -0.125229
C287  C     C_R   0.609122 0.141033 0.751603 -0.137469
C288  C     C_R   0.590544 0.104973 0.735108 -0.135762
C289  C     C_R   0.447894 0.082578 0.245267 0.125184
C290  C     C_3   0.529004 0.964676 0.274300 -0.242711
C291  C     C_R   0.468164 0.098708 0.209207 -0.058745
C292  C     C_R   0.449463 0.134796 0.192846 -0.123731
C293  C     C_R   0.410646 0.155862 0.212597 -0.125304
C294  C     C_R   0.390901 0.141059 0.248949 -0.137274
C295  C     C_R   0.409483 0.104939 0.265310 -0.135249
C296  C     C_R   0.444796 0.084274 0.734316 0.133974
C297  C     C_R   0.407283 0.094020 0.763364 -0.073678
C298  C     C_R   0.386091 0.132833 0.765171 -0.134889
C299  C     C_R   0.401340 0.162583 0.737739 -0.107698
C300  C     C_R   0.437668 0.153499 0.708256 -0.122277
C301  C     C_3   0.031006 0.966831 0.224126 -0.246796
C302  C     C_R   0.458976 0.114758 0.706398 -0.157157
C303  C     C_R   0.555179 0.084226 0.265997 0.134135
C304  C     C_R   0.592638 0.094105 0.236952 -0.073539
C305  C     C_R   0.613797 0.132935 0.235278 -0.134752
C306  C     C_R   0.598570 0.162568 0.262844 -0.107738
C307  C     C_R   0.562297 0.153350 0.292328 -0.122277
C308  C     C_R   0.541018 0.114592 0.294051 -0.157266
C309  C     C_R   0.052094 0.082545 0.255374 0.124878
C310  C     C_R   0.031769 0.098433 0.291522 -0.058306
C311  C     C_R   0.050465 0.134397 0.308156 -0.123642
C312  C     C_3   0.968998 0.966774 0.775809 -0.246827
C313  C     C_R   0.089333 0.155581 0.288597 -0.125165
C314  C     C_R   0.109139 0.141017 0.252168 -0.137676
C315  C     C_R   0.090569 0.105017 0.235538 -0.136294
C316  C     C_R   0.947903 0.082553 0.744800 0.124967
C317  C     C_R   0.968213 0.098507 0.708676 -0.058432
C318  C     C_R   0.949515 0.134504 0.692115 -0.123672
C319  C     C_R   0.910661 0.155657 0.711726 -0.125196
C320  C     C_R   0.890872 0.141029 0.748134 -0.137557
C321  C     C_R   0.909445 0.104996 0.764692 -0.136006
C322  C     C_R   0.944769 0.084330 0.234645 0.133820
C323  C     C_3   0.971015 0.964859 0.225439 -0.242834
C324  C     C_R   0.907203 0.093936 0.263698 -0.073840
C325  C     C_R   0.885980 0.132731 0.265648 -0.135068
C326  C     C_R   0.901250 0.162604 0.238359 -0.107655
C327  C     C_R   0.937630 0.153663 0.208873 -0.122244
C328  C     C_R   0.958968 0.114939 0.206869 -0.157034
C329  C     C_R   0.055216 0.084300 0.765533 0.133909
C330  C     C_R   0.092751 0.093983 0.736482 -0.073760
C331  C     C_R   0.113958 0.132787 0.734611 -0.134979
C332  C     C_R   0.098702 0.162593 0.761980 -0.107675
C333  C     C_R   0.062352 0.153573 0.791464 -0.122250
C334  C     C_R   0.392231 0.500604 0.250210 0.835553
C335  C     C_3   0.028991 0.964808 0.774491 -0.242802
C336  C     C_R   0.041028 0.114840 0.793388 -0.157102
C337  C     C_3   0.029508 0.494338 0.795358 -0.034969
C338  C     C_3   0.970491 0.494403 0.204636 -0.035010
C339  C     C_3   0.970116 0.496415 0.795167 -0.061553
C340  C     C_3   0.029883 0.496481 0.204828 -0.061622
C341  C     C_3   0.529511 0.494454 0.295370 -0.035040
C342  C     C_3   0.470490 0.494427 0.704632 -0.035023
C343  C     C_3   0.470119 0.496534 0.295177 -0.061683
C344  C     C_3   0.529882 0.496507 0.704824 -0.061658
C345  C     C_3   0.529512 0.994495 0.795376 -0.035061
C346  C     C_R   0.892048 0.501724 0.248402 0.872471
C347  C     C_3   0.470484 0.994654 0.204610 -0.035162
C348  C     C_3   0.470120 0.996576 0.795182 -0.061743
C349  C     C_3   0.529875 0.996739 0.204809 -0.061912
C350  C     C_3   0.029508 0.994332 0.295357 -0.034966
C351  C     C_3   0.970490 0.994419 0.704634 -0.035016
C352  C     C_3   0.970116 0.996410 0.295167 -0.061543
C353  C     C_3   0.029882 0.996498 0.704826 -0.061645
C354  C     C_3   0.030453 0.544220 0.735013 -0.176810
C355  C     C_3   0.969544 0.544194 0.265057 -0.176763
C356  C     C_3   0.971120 0.542702 0.730542 -0.172127
C357  C     C_R   0.107952 0.501727 0.751601 0.872415
C358  C     C_3   0.028877 0.542672 0.269524 -0.172145
C359  C     C_3   0.530456 0.544176 0.234891 -0.176729
C360  C     C_3   0.469544 0.544184 0.765083 -0.176745
C361  C     C_3   0.471124 0.542651 0.230428 -0.172153
C362  C     C_3   0.528876 0.542661 0.769547 -0.172155
C363  C     C_3   0.530457 0.044155 0.734844 -0.176705
C364  C     C_3   0.469537 0.044096 0.265325 -0.176586
C365  C     C_3   0.471126 0.042627 0.730384 -0.172178
C366  C     C_3   0.528867 0.042556 0.269776 -0.172219
C367  C     C_3   0.030453 0.044222 0.235019 -0.176814
C368  C     C_R   0.107769 0.500600 0.249793 0.835533
C369  C     C_3   0.969544 0.044187 0.765075 -0.176753
C370  C     C_3   0.971119 0.042706 0.230548 -0.172123
C371  C     C_3   0.028876 0.042664 0.769540 -0.172152
C372  C     C_3   0.050972 0.502557 0.751733 -0.033561
C373  C     C_3   0.949028 0.502556 0.248273 -0.033560
C374  C     C_3   0.949167 0.502392 0.750471 -0.040799
C375  C     C_3   0.050832 0.502393 0.249533 -0.040801
C376  C     C_3   0.550971 0.502556 0.251724 -0.033557
C377  C     C_3   0.449028 0.502555 0.748274 -0.033559
C378  C     C_3   0.449168 0.502396 0.250467 -0.040795
C379  C     C_R   0.892231 0.500596 0.750204 0.835501
C380  C     C_3   0.550832 0.502394 0.749532 -0.040798
C381  C     C_3   0.550971 0.002553 0.751721 -0.033553
C382  C     C_3   0.449028 0.002554 0.248293 -0.033552
C383  C     C_3   0.449167 0.002394 0.750466 -0.040793
C384  C     C_3   0.550831 0.002398 0.249543 -0.040799
C385  C     C_3   0.050971 0.002557 0.251733 -0.033555
C386  C     C_3   0.949028 0.002555 0.748274 -0.033557
C387  C     C_3   0.949167 0.002393 0.250471 -0.040794
C388  C     C_3   0.050832 0.002393 0.749533 -0.040798
C389  C     C_1   0.249834 0.499801 0.600507 -0.155344
C390  C     C_R   0.892048 0.001723 0.748404 0.872483
C391  C     C_1   0.750166 0.499800 0.399493 -0.155343
C392  C     C_1   0.750297 0.499949 0.600501 -0.162624
C393  C     C_1   0.249703 0.499949 0.399499 -0.162637
C394  C     C_1   0.749834 0.499800 0.100507 -0.155330
C395  C     C_1   0.250166 0.499800 0.899493 -0.155320
C396  C     C_1   0.250296 0.499949 0.100501 -0.162631
C397  C     C_1   0.749703 0.499949 0.899499 -0.162625
C398  C     C_1   0.749834 0.999801 0.600507 -0.155331
C399  C     C_1   0.250167 0.999799 0.399493 -0.155311
C400  C     C_1   0.250296 0.999949 0.600501 -0.162646
H1    H     H_    0.043266 0.438464 0.739687 0.119412
H2    H     H_    0.456757 0.938374 0.259875 0.119616
H3    H     H_    0.441760 0.863403 0.629503 0.130231
H4    H     H_    0.388463 0.906997 0.585703 0.129441
H5    H     H_    0.372396 0.978291 0.604939 0.136176
H6    H     H_    0.408421 0.006320 0.665936 0.149448
H7    H     H_    0.521454 0.890218 0.307390 0.119217
H8    H     H_    0.558214 0.863004 0.370052 0.130221
H9    H     H_    0.611570 0.906436 0.413965 0.129439
H10   H     H_    0.627694 0.977779 0.394938 0.136101
H11   H     H_    0.591661 0.006011 0.334032 0.149439
H12   H     H_    0.110241 0.917793 0.201484 0.113965
H13   H     H_    0.461761 0.938400 0.745447 0.128198
H14   H     H_    0.155743 0.914149 0.136605 0.125360
H15   H     H_    0.130347 0.958054 0.079283 0.128078
H16   H     H_    0.058177 0.005673 0.087152 0.127608
H17   H     H_    0.011943 0.010018 0.151051 0.107917
H18   H     H_    0.889747 0.917708 0.798347 0.114088
H19   H     H_    0.844238 0.913940 0.863216 0.125403
H20   H     H_    0.869645 0.957720 0.920630 0.128072
H21   H     H_    0.941834 0.005337 0.912863 0.127612
H22   H     H_    0.988073 0.009805 0.848975 0.107966
H23   H     H_    0.978478 0.890602 0.191889 0.119219
H24   H     H_    0.538252 0.938382 0.254337 0.128306
H25   H     H_    0.941751 0.863818 0.129032 0.130229
H26   H     H_    0.888521 0.907579 0.085347 0.129442
H27   H     H_    0.872502 0.978821 0.104800 0.136250
H28   H     H_    0.908507 0.006637 0.165901 0.149454
H29   H     H_    0.021505 0.890497 0.807917 0.119217
H30   H     H_    0.058243 0.863597 0.870721 0.130221
H31   H     H_    0.111507 0.907269 0.914467 0.129441
H32   H     H_    0.127553 0.978539 0.895129 0.136210
H33   H     H_    0.091539 0.006467 0.834081 0.149452
H34   H     H_    0.000858 0.583423 0.806643 0.182309
H35   H     H_    0.043266 0.938466 0.239680 0.119407
H36   H     H_    0.034439 0.646010 0.836071 0.147304
H37   H     H_    0.103675 0.683520 0.801381 0.135799
H38   H     H_    0.138594 0.657830 0.736525 0.145229
H39   H     H_    0.106085 0.594976 0.706809 0.150170
H40   H     H_    0.999120 0.583498 0.193476 0.182321
H41   H     H_    0.965536 0.646131 0.164146 0.147306
H42   H     H_    0.896320 0.683599 0.198905 0.135819
H43   H     H_    0.861422 0.657822 0.263734 0.145213
H44   H     H_    0.893936 0.594923 0.293354 0.150087
H45   H     H_    0.892698 0.571839 0.784349 0.137446
H46   H     H_    0.956740 0.938440 0.760200 0.119465
H47   H     H_    0.857226 0.639515 0.788183 0.129214
H48   H     H_    0.884596 0.692565 0.739838 0.133892
H49   H     H_    0.949342 0.676727 0.687460 0.132260
H50   H     H_    0.987171 0.608785 0.683640 0.114686
H51   H     H_    0.107260 0.571911 0.215740 0.137473
H52   H     H_    0.142711 0.639600 0.212005 0.129242
H53   H     H_    0.115361 0.692562 0.260454 0.133891
H54   H     H_    0.050654 0.676624 0.312832 0.132265
H55   H     H_    0.012842 0.608671 0.316549 0.114663
H56   H     H_    0.500901 0.583556 0.306435 0.182339
H57   H     H_    0.961775 0.938424 0.245215 0.128081
H58   H     H_    0.534491 0.646222 0.335691 0.147314
H59   H     H_    0.603692 0.683656 0.300877 0.135824
H60   H     H_    0.638569 0.657811 0.236067 0.145197
H61   H     H_    0.606047 0.594882 0.206520 0.150019
H62   H     H_    0.499108 0.583526 0.693522 0.182332
H63   H     H_    0.465520 0.646175 0.664229 0.147318
H64   H     H_    0.396310 0.683625 0.699016 0.135828
H65   H     H_    0.361423 0.657813 0.763835 0.145208
H66   H     H_    0.393944 0.594899 0.793419 0.150054
H67   H     H_    0.392757 0.571960 0.284190 0.137494
H68   H     H_    0.038232 0.938411 0.754664 0.128145
H69   H     H_    0.357334 0.639662 0.287865 0.129272
H70   H     H_    0.384690 0.692569 0.239359 0.133875
H71   H     H_    0.449372 0.676562 0.186983 0.132242
H72   H     H_    0.487158 0.608596 0.183326 0.114646
H73   H     H_    0.607251 0.571934 0.715775 0.137481
H74   H     H_    0.642689 0.639629 0.712071 0.129255
H75   H     H_    0.615336 0.692564 0.760550 0.133881
H76   H     H_    0.550640 0.676591 0.812925 0.132248
H77   H     H_    0.512842 0.608631 0.816612 0.114652
H78   H     H_    0.500907 0.083602 0.806350 0.182344
H79   H     H_    0.039280 0.462347 0.802797 0.138630
H80   H     H_    0.534499 0.146296 0.835546 0.147339
H81   H     H_    0.603698 0.183698 0.800693 0.135856
H82   H     H_    0.638568 0.157793 0.735905 0.145192
H83   H     H_    0.606038 0.094839 0.706416 0.149984
H84   H     H_    0.499039 0.083783 0.193937 0.182377
H85   H     H_    0.465443 0.146587 0.164976 0.147342
H86   H     H_    0.396292 0.183887 0.199998 0.135894
H87   H     H_    0.361473 0.157772 0.264720 0.145152
H88   H     H_    0.394015 0.094713 0.293978 0.149776
H89   H     H_    0.392789 0.072009 0.784130 0.137506
H90   H     H_    0.960720 0.462423 0.197150 0.138653
H91   H     H_    0.357375 0.139718 0.787728 0.129294
H92   H     H_    0.384709 0.192559 0.739140 0.133884
H93   H     H_    0.449364 0.176479 0.686766 0.132259
H94   H     H_    0.487144 0.108507 0.683190 0.114633
H95   H     H_    0.607115 0.072181 0.216088 0.137577
H96   H     H_    0.642469 0.139925 0.212718 0.129367
H97   H     H_    0.615176 0.192557 0.261545 0.133871
H98   H     H_    0.550617 0.176238 0.313921 0.132256
H99   H     H_    0.512886 0.108236 0.317258 0.114578
H100  H     H_    0.000858 0.083418 0.306653 0.182310
H101  H     H_    0.957278 0.465769 0.804946 0.150815
H102  H     H_    0.034442 0.146002 0.336088 0.147303
H103  H     H_    0.103679 0.183513 0.301403 0.135794
H104  H     H_    0.138599 0.157829 0.236544 0.145224
H105  H     H_    0.106087 0.094979 0.206821 0.150181
H106  H     H_    0.999114 0.083516 0.693507 0.182326
H107  H     H_    0.965527 0.146159 0.664200 0.147309
H108  H     H_    0.896313 0.183615 0.698976 0.135824
H109  H     H_    0.861421 0.157815 0.763798 0.145211
H110  H     H_    0.893941 0.094908 0.793396 0.150071
H111  H     H_    0.892694 0.071832 0.284358 0.137446
H112  H     H_    0.956739 0.438445 0.260224 0.119454
H113  H     H_    0.042721 0.465849 0.195006 0.150837
H114  H     H_    0.857220 0.139506 0.288204 0.129219
H115  H     H_    0.884593 0.192566 0.239871 0.133898
H116  H     H_    0.949342 0.176739 0.187492 0.132270
H117  H     H_    0.987172 0.108798 0.183659 0.114695
H118  H     H_    0.107250 0.071929 0.715763 0.137478
H119  H     H_    0.142693 0.139623 0.712053 0.129252
H120  H     H_    0.115346 0.192562 0.760529 0.133892
H121  H     H_    0.050650 0.176597 0.812906 0.132272
H122  H     H_    0.012845 0.108640 0.816597 0.114661
H123  H     H_    0.539279 0.462482 0.302892 0.138662
H124  H     H_    0.460721 0.462452 0.697128 0.138654
H125  H     H_    0.457279 0.465913 0.305034 0.150846
H126  H     H_    0.542721 0.465881 0.694984 0.150841
H127  H     H_    0.539279 0.962531 0.802930 0.138672
H128  H     H_    0.460721 0.962716 0.196944 0.138724
H129  H     H_    0.457280 0.965965 0.805070 0.150859
H130  H     H_    0.542718 0.966162 0.194816 0.150907
H131  H     H_    0.039280 0.962341 0.302793 0.138626
H132  H     H_    0.961775 0.438422 0.745223 0.128087
H133  H     H_    0.960721 0.962442 0.697136 0.138655
H134  H     H_    0.957278 0.965762 0.304942 0.150810
H135  H     H_    0.042721 0.965870 0.694992 0.150841
H136  H     H_    0.045157 0.546195 0.703539 0.127074
H137  H     H_    0.954841 0.546119 0.296535 0.127055
H138  H     H_    0.965205 0.537524 0.698022 0.121491
H139  H     H_    0.034794 0.537442 0.302037 0.121486
H140  H     H_    0.545158 0.546062 0.203410 0.127036
H141  H     H_    0.454842 0.546089 0.796563 0.127045
H142  H     H_    0.465202 0.537385 0.197921 0.121479
H143  H     H_    0.038231 0.438414 0.254688 0.128133
H144  H     H_    0.534797 0.537412 0.802057 0.121482
H145  H     H_    0.545158 0.046008 0.703362 0.127024
H146  H     H_    0.454838 0.045829 0.296815 0.126978
H147  H     H_    0.465204 0.037324 0.697883 0.121479
H148  H     H_    0.534797 0.037130 0.302257 0.121468
H149  H     H_    0.045156 0.046201 0.203545 0.127075
H150  H     H_    0.954841 0.046099 0.796553 0.127051
H151  H     H_    0.965204 0.037532 0.198027 0.121490
H152  H     H_    0.034795 0.037420 0.802051 0.121486
H153  H     H_    0.110242 0.417787 0.701495 0.113972
H154  H     H_    0.543257 0.438432 0.239848 0.119488
H155  H     H_    0.155747 0.414137 0.636617 0.125369
H156  H     H_    0.130351 0.458035 0.579290 0.128079
H157  H     H_    0.058180 0.505653 0.587152 0.127603
H158  H     H_    0.011943 0.510004 0.651049 0.107918
H159  H     H_    0.889749 0.417723 0.298378 0.114064
H160  H     H_    0.844237 0.413980 0.363247 0.125396
H161  H     H_    0.869639 0.457786 0.420644 0.128074
H162  H     H_    0.941825 0.505402 0.412860 0.127606
H163  H     H_    0.988068 0.509845 0.348971 0.107956
H164  H     H_    0.978481 0.390596 0.691900 0.119221
H165  H     H_    0.456741 0.438437 0.760188 0.119471
H166  H     H_    0.941755 0.363805 0.629046 0.130233
H167  H     H_    0.888523 0.407560 0.585358 0.129447
H168  H     H_    0.872499 0.478803 0.604804 0.136245
H169  H     H_    0.908503 0.506626 0.665902 0.149455
H170  H     H_    0.021507 0.390517 0.307955 0.119218
H171  H     H_    0.058239 0.363640 0.370771 0.130222
H172  H     H_    0.111495 0.407329 0.414506 0.129444
H173  H     H_    0.127539 0.478592 0.395146 0.136214
H174  H     H_    0.091530 0.506499 0.334085 0.149452
H175  H     H_    0.610256 0.417673 0.201721 0.114146
H176  H     H_    0.461765 0.438409 0.245384 0.128164
H177  H     H_    0.655767 0.413854 0.136857 0.125444
H178  H     H_    0.630357 0.457585 0.079406 0.128085
H179  H     H_    0.558164 0.505205 0.087131 0.127605
H180  H     H_    0.511923 0.509724 0.151017 0.107984
H181  H     H_    0.389747 0.417699 0.798330 0.114104
H182  H     H_    0.344240 0.413918 0.863199 0.125429
H183  H     H_    0.369650 0.457685 0.920623 0.128087
H184  H     H_    0.441839 0.505303 0.912865 0.127605
H185  H     H_    0.488076 0.509784 0.848977 0.107968
H186  H     H_    0.478504 0.390458 0.192162 0.119227
H187  H     H_    0.538233 0.438411 0.754650 0.128149
H188  H     H_    0.441765 0.363511 0.129379 0.130260
H189  H     H_    0.388489 0.407148 0.085606 0.129464
H190  H     H_    0.372430 0.478428 0.104897 0.136193
H191  H     H_    0.408446 0.506402 0.165925 0.149445
H192  H     H_    0.521506 0.390487 0.807894 0.119226
H193  H     H_    0.558248 0.363573 0.870691 0.130252
H194  H     H_    0.611515 0.407237 0.914444 0.129462
H195  H     H_    0.627560 0.478510 0.895120 0.136205
H196  H     H_    0.591542 0.506451 0.834079 0.149447
H197  H     H_    0.610260 0.917628 0.701805 0.114203
H198  H     H_    0.543254 0.938416 0.739909 0.119515
H199  H     H_    0.655773 0.913749 0.636944 0.125455
H200  H     H_    0.630358 0.957422 0.579449 0.128092
H201  H     H_    0.558156 0.005041 0.587127 0.127609
H202  H     H_    0.511913 0.009618 0.651006 0.108005
H203  H     H_    0.389714 0.917476 0.297887 0.114431
H204  H     H_    0.344181 0.913378 0.362724 0.125527
H205  H     H_    0.369611 0.956823 0.420385 0.128083
H206  H     H_    0.441851 0.004436 0.412898 0.127617
H207  H     H_    0.488112 0.009233 0.349041 0.108103
H208  H     H_    0.478510 0.890405 0.692258 0.119220
I1    I     I_    0.070183 0.521520 0.845972 -0.325380
I2    I     I_    0.429769 0.022174 0.154202 -0.325792
I3    I     I_    0.433920 0.027507 0.845643 -0.376723
I4    I     I_    0.566070 0.027834 0.154451 -0.377011
I5    I     I_    0.070183 0.021509 0.345975 -0.325404
I6    I     I_    0.929804 0.021689 0.654073 -0.325504
I7    I     I_    0.933909 0.027168 0.345732 -0.376450
I8    I     I_    0.066086 0.027348 0.654317 -0.376612
I9    I     I_    0.929807 0.521656 0.154064 -0.325471
I10   I     I_    0.933908 0.527179 0.845729 -0.376459
I11   I     I_    0.066088 0.527313 0.154309 -0.376573
I12   I     I_    0.570201 0.521758 0.345910 -0.325542
I13   I     I_    0.429802 0.521706 0.654076 -0.325494
I14   I     I_    0.433917 0.527421 0.345664 -0.376669
I15   I     I_    0.566084 0.527367 0.654320 -0.376621
I16   I     I_    0.570208 0.021847 0.845887 -0.325582
O1    O     O_3   0.250000 0.500030 0.750000 -0.439740
O2    O     O_R   0.633160 0.478000 0.271990 -0.634357
O3    O     O_R   0.866840 0.022050 0.227940 -0.657428
O4    O     O_R   0.366840 0.022050 0.272060 -0.651344
O5    O     O_R   0.633160 0.022050 0.727940 -0.651364
O6    O     O_R   0.633160 0.022050 0.272060 -0.657448
O7    O     O_R   0.366840 0.022050 0.727940 -0.657433
O8    O     O_R   0.633160 0.478000 0.728010 -0.625495
O9    O     O_R   0.366840 0.478000 0.271990 -0.625499
O10   O     O_R   0.866840 0.478000 0.228010 -0.634325
O11   O     O_R   0.133160 0.478000 0.771990 -0.634281
O12   O     O_R   0.133160 0.478000 0.228010 -0.625490
O13   O     O_R   0.866840 0.478000 0.771990 -0.625484
O14   O     O_R   0.866840 0.978000 0.728010 -0.634336
O15   O     O_R   0.133160 0.978000 0.271990 -0.634281
O16   O     O_R   0.133160 0.978000 0.728010 -0.625495
O17   O     O_3   0.750000 0.500030 0.250000 -0.439729
O18   O     O_R   0.866840 0.978000 0.271990 -0.625488
O19   O     O_R   0.366840 0.978000 0.228010 -0.634490
O20   O     O_R   0.633160 0.978000 0.771990 -0.634387
O21   O     O_R   0.633160 0.978000 0.228010 -0.625519
O22   O     O_R   0.366840 0.978000 0.771990 -0.625508
O23   O     O_R   0.280630 0.522060 0.834040 -0.627887
O24   O     O_R   0.719370 0.522060 0.165960 -0.627896
O25   O     O_R   0.719370 0.522060 0.834040 -0.636027
O26   O     O_R   0.280630 0.522060 0.165960 -0.636014
O27   O     O_R   0.780630 0.522060 0.334040 -0.627846
O28   O     O_3   0.750000 0.500030 0.750000 -0.440693
O29   O     O_R   0.219370 0.522060 0.665960 -0.627805
O30   O     O_R   0.219370 0.522060 0.334040 -0.636008
O31   O     O_R   0.780630 0.522060 0.665960 -0.636023
O32   O     O_R   0.780630 0.022060 0.834040 -0.627849
O33   O     O_R   0.219370 0.022060 0.165960 -0.627766
O34   O     O_R   0.219370 0.022060 0.834040 -0.635994
O35   O     O_R   0.780630 0.022060 0.165960 -0.635985
O36   O     O_R   0.280630 0.022060 0.334040 -0.628043
O37   O     O_R   0.719370 0.022060 0.665960 -0.627922
O38   O     O_R   0.719370 0.022060 0.334040 -0.635990
O39   O     O_3   0.250000 0.500030 0.250000 -0.440691
O40   O     O_R   0.280630 0.022060 0.665960 -0.636001
O41   O     O_R   0.280630 0.584040 0.772060 -0.632866
O42   O     O_R   0.719370 0.584040 0.227940 -0.632864
O43   O     O_R   0.719370 0.584040 0.772060 -0.620310
O44   O     O_R   0.280630 0.584040 0.227940 -0.620299
O45   O     O_R   0.780630 0.584040 0.272060 -0.632882
O46   O     O_R   0.219370 0.584040 0.727940 -0.632904
O47   O     O_R   0.219370 0.584040 0.272060 -0.620269
O48   O     O_R   0.780630 0.584040 0.727940 -0.620262
O49   O     O_R   0.780630 0.084040 0.772060 -0.632876
O50   O     O_3   0.750000 0.000030 0.750000 -0.439720
O51   O     O_R   0.219370 0.084040 0.227940 -0.632923
O52   O     O_R   0.219370 0.084040 0.772060 -0.620258
O53   O     O_R   0.780630 0.084040 0.227940 -0.620200
O54   O     O_R   0.280630 0.084040 0.272060 -0.632787
O55   O     O_R   0.719370 0.084040 0.727940 -0.632854
O56   O     O_R   0.719370 0.084040 0.272060 -0.620361
O57   O     O_R   0.280630 0.084040 0.727940 -0.620303
O58   O     O_R   0.280630 0.416020 0.728000 -0.628783
O59   O     O_R   0.719370 0.416020 0.272000 -0.628786
O60   O     O_R   0.719370 0.416020 0.728000 -0.625393
O61   O     O_3   0.250000 0.000030 0.250000 -0.439712
O62   O     O_R   0.280630 0.416020 0.272000 -0.625401
O63   O     O_R   0.780630 0.416020 0.228000 -0.628759
O64   O     O_R   0.219370 0.416020 0.772000 -0.628744
O65   O     O_R   0.219370 0.416020 0.228000 -0.625383
O66   O     O_R   0.780630 0.416020 0.772000 -0.625384
O67   O     O_R   0.780630 0.916020 0.728000 -0.628764
O68   O     O_R   0.219370 0.916020 0.272000 -0.628729
O69   O     O_R   0.219370 0.916020 0.728000 -0.625389
O70   O     O_R   0.780630 0.916020 0.272000 -0.625390
O71   O     O_R   0.280630 0.916020 0.228000 -0.628846
O72   O     O_3   0.250000 0.000030 0.750000 -0.440689
O73   O     O_R   0.719370 0.916020 0.772000 -0.628797
O74   O     O_R   0.719370 0.916020 0.228000 -0.625406
O75   O     O_R   0.280630 0.916020 0.772000 -0.625402
O76   O     O_R   0.219370 0.478010 0.834030 -0.610997
O77   O     O_R   0.780630 0.478010 0.165970 -0.611015
O78   O     O_R   0.780630 0.478010 0.834030 -0.607661
O79   O     O_R   0.219370 0.478010 0.165970 -0.607686
O80   O     O_R   0.719370 0.478010 0.334030 -0.611045
O81   O     O_R   0.280630 0.478010 0.665970 -0.611040
O82   O     O_R   0.280630 0.478010 0.334030 -0.607720
O83   O     O_3   0.750000 0.000030 0.250000 -0.440688
O84   O     O_R   0.719370 0.478010 0.665970 -0.607710
O85   O     O_R   0.719370 0.978010 0.834030 -0.611061
O86   O     O_R   0.280630 0.978010 0.165970 -0.611120
O87   O     O_R   0.280630 0.978010 0.834030 -0.607742
O88   O     O_R   0.719370 0.978010 0.165970 -0.607808
O89   O     O_R   0.219370 0.978010 0.334030 -0.610979
O90   O     O_R   0.780630 0.978010 0.665970 -0.611020
O91   O     O_R   0.780630 0.978010 0.334030 -0.607658
O92   O     O_R   0.219370 0.978010 0.665970 -0.607697
O93   O     O_R   0.366840 0.522050 0.772060 -0.651365
O94   O     O_R   0.366840 0.478000 0.728010 -0.634340
O95   O     O_R   0.633160 0.522050 0.227940 -0.651364
O96   O     O_R   0.633160 0.522050 0.772060 -0.657425
O97   O     O_R   0.366840 0.522050 0.227940 -0.657433
O98   O     O_R   0.866840 0.522050 0.272060 -0.651371
O99   O     O_R   0.133160 0.522050 0.727940 -0.651376
O100  O     O_R   0.133160 0.522050 0.272060 -0.657427
O101  O     O_R   0.866840 0.522050 0.727940 -0.657419
O102  O     O_R   0.866840 0.022050 0.772060 -0.651371
O103  O     O_R   0.133160 0.022050 0.227940 -0.651384
O104  O     O_R   0.133160 0.022050 0.772060 -0.657430
Zn1   Zn    Zn3+2 0.206230 0.468570 0.781490 1.000758
Zn2   Zn    Zn3+2 0.293770 0.968570 0.218510 1.000615
Zn3   Zn    Zn3+2 0.293770 0.968570 0.781490 1.005110
Zn4   Zn    Zn3+2 0.706230 0.968570 0.218510 1.005110
Zn5   Zn    Zn3+2 0.206230 0.968570 0.281490 1.000765
Zn6   Zn    Zn3+2 0.793770 0.968570 0.718510 1.000725
Zn7   Zn    Zn3+2 0.793770 0.968570 0.281490 1.005121
Zn8   Zn    Zn3+2 0.206230 0.968570 0.718510 1.005123
Zn9   Zn    Zn3+2 0.293770 0.531500 0.781500 0.986895
Zn10  Zn    Zn3+2 0.706230 0.531500 0.218500 0.986911
Zn11  Zn    Zn3+2 0.706230 0.531500 0.781500 0.980497
Zn12  Zn    Zn3+2 0.793770 0.468570 0.218510 1.000736
Zn13  Zn    Zn3+2 0.293770 0.531500 0.218500 0.980522
Zn14  Zn    Zn3+2 0.793770 0.531500 0.281500 0.986923
Zn15  Zn    Zn3+2 0.206230 0.531500 0.718500 0.986915
Zn16  Zn    Zn3+2 0.206230 0.531500 0.281500 0.980534
Zn17  Zn    Zn3+2 0.793770 0.531500 0.718500 0.980511
Zn18  Zn    Zn3+2 0.793770 0.031500 0.781500 0.986938
Zn19  Zn    Zn3+2 0.206230 0.031500 0.218500 0.986966
Zn20  Zn    Zn3+2 0.206230 0.031500 0.781500 0.980559
Zn21  Zn    Zn3+2 0.793770 0.031500 0.218500 0.980590
Zn22  Zn    Zn3+2 0.293770 0.031500 0.281500 0.986909
Zn23  Zn    Zn3+2 0.793770 0.468570 0.781490 1.005129
Zn24  Zn    Zn3+2 0.706230 0.031500 0.718500 0.986916
Zn25  Zn    Zn3+2 0.706230 0.031500 0.281500 0.980549
Zn26  Zn    Zn3+2 0.293770 0.031500 0.718500 0.980542
Zn27  Zn    Zn3+2 0.206230 0.468570 0.218510 1.005132
Zn28  Zn    Zn3+2 0.706230 0.468570 0.281490 1.000700
Zn29  Zn    Zn3+2 0.293770 0.468570 0.718510 1.000710
Zn30  Zn    Zn3+2 0.293770 0.468570 0.281490 1.005112
Zn31  Zn    Zn3+2 0.706230 0.468570 0.718510 1.005117
Zn32  Zn    Zn3+2 0.706230 0.968570 0.781490 1.000681

loop_
_geom_bond_atom_site_label_1
_geom_bond_atom_site_label_2
_ccdc_geom_bond_type
C228  H32   S    
C322  C324  A    
C301  C385  S    
C126  C127  A    
C347  C382  S    
C256  C262  A    
O59   Zn28  S    
C203  C301  S    
C8    C26   S    
C58   C398  S    
C359  C376  S    
C205  H14   S    
C306  H97   S    
O16   Zn8   S    
C112  O2    A    
C149  H174  S    
C238  H40   S    
C15   C32   S    
C248  C249  A    
C195  H6    S    
C176  C182  A    
C189  C279  S    
C334  O97   A    
C9    C27   S    
O70   Zn7   S    
C168  C372  S    
O99   Zn15  S    
C237  C242  A    
O42   Zn10  S    
O19   Zn2   S    
O36   Zn22  S    
C53   O86   A    
C13   O104  A    
O41   Zn9   S    
O18   Zn7   S    
C51   O84   A    
C367  H149  S    
C46   O20   A    
O100  Zn16  S    
C12   C394  T    
C176  C257  S    
C333  C336  A    
C297  C298  A    
C271  C272  A    
C167  H190  S    
C177  H197  S    
C180  H200  S    
C125  H153  S    
C244  C245  A    
C274  C275  A    
C268  H2    S    
C334  O9    A    
O72   Zn20  S    
C271  H67   S    
C210  H18   S    
C171  H192  S    
C310  C311  A    
C13   O16   A    
C367  C385  S    
C291  C292  A    
C222  C229  A    
C292  H85   S    
C337  C372  S    
C243  C244  A    
C315  H105  S    
C230  C236  A    
C326  C327  A    
C201  C375  S    
C90   C116  T    
C1    O93   A    
C74   C83   S    
C88   C97   S    
C58   O37   A    
C233  H37   S    
C2    O15   A    
C252  H52   S    
C125  C126  A    
C332  H120  S    
C75   O71   A    
C199  C200  A    
C60   C400  S    
C77   O74   A    
C286  H81   S    
C128  H157  S    
O86   Zn2   S    
C139  H166  S    
C234  C236  A    
C63   O48   A    
C145  H171  S    
C305  H96   S    
C290  H24   S    
C228  C229  A    
C1    C377  S    
O35   Zn21  S    
C293  H86   S    
C337  H79   S    
O21   Zn4   S    
C52   O32   A    
C330  C331  A    
C283  C284  A    
O67   Zn6   S    
C291  H84   S    
C353  I8    S    
C338  H90   S    
C263  C264  A    
C67   C79   S    
C140  C141  A    
C206  C207  A    
C144  C145  A    
C295  H88   S    
C360  C377  S    
C314  C315  A    
C181  C182  A    
O28   Zn23  S    
C82   C91   T    
C316  C317  A    
C310  H100  S    
O46   Zn15  S    
C61   C146  S    
C147  H172  S    
C46   C381  S    
O1    Zn9   S    
C303  C304  A    
C68   C383  S    
C283  C363  S    
C139  C140  A    
C306  C307  A    
C328  H117  S    
C50   C393  S    
C301  C323  S    
C332  C333  A    
C345  C348  S    
C264  H62   S    
C154  C155  A    
C232  H36   S    
C355  H137  S    
C218  H25   S    
C296  C297  A    
C231  C232  A    
C10   C392  T    
C368  O12   A    
C212  H154  S    
O64   Zn1   S    
O33   Zn19  S    
C158  C159  A    
O88   Zn4   S    
C71   O59   A    
C208  H17   S    
C308  H99   S    
C356  C374  S    
C298  C299  A    
C359  H140  S    
C230  C354  S    
C227  H31   S    
C390  O14   A    
C338  I9    S    
C205  C206  A    
C284  C285  A    
C283  C288  A    
C214  C215  A    
C269  H66   S    
C112  O95   A    
C196  C197  A    
C244  H45   S    
C87   C96   S    
C43   C395  S    
C102  C110  T    
C196  C290  S    
O54   Zn22  S    
C303  C366  S    
O53   Zn21  S    
C23   C41   S    
C120  C135  T    
O47   Zn16  S    
C156  C158  A    
C130  C131  A    
C217  C218  A    
C101  C117  T    
C349  H130  S    
C80   C88   T    
C246  C380  S    
C183  C188  A    
C276  C282  A    
O1    Zn29  S    
C335  C388  S    
C329  C336  A    
C367  C370  S    
C374  C379  S    
C302  H94   S    
C265  H63   S    
C129  H158  S    
C123  C125  A    
C86   C95   T    
C220  H27   S    
O39   Zn27  S    
O57   Zn26  S    
C45   O78   A    
C143  C149  A    
C342  I13   S    
C24   O3    A    
C200  C202  A    
C193  C194  A    
O82   Zn30  S    
C356  H138  S    
C357  C372  S    
O81   Zn29  S    
C170  C246  S    
C126  H155  S    
C348  H129  S    
C76   C85   S    
C159  H182  S    
C350  I5    S    
C143  C144  A    
C252  C253  A    
C78   C87   T    
C35   C382  S    
C137  C142  A    
C351  H133  S    
C187  H206  S    
C79   C115  T    
O90   Zn6   S    
C274  H71   S    
C65   C101  S    
C14   C31   S    
C313  H103  S    
C128  C129  A    
O39   Zn30  S    
C151  H175  S    
C63   C124  S    
C237  C355  S    
C253  H53   S    
C167  C169  A    
C345  C381  S    
C67   O57   A    
C296  C302  A    
C99   C108  T    
C161  H184  S    
C251  H51   S    
C209  C215  A    
C312  C335  S    
C49   O81   A    
C15   C396  T    
C258  H56   S    
C72   O60   A    
C36   C37   T    
C257  C381  S    
C256  C359  S    
C253  C254  A    
C44   O77   A    
C75   C84   S    
C239  H41   S    
C200  H10   S    
C170  C171  A    
C197  H7    S    
O4    Zn22  S    
C273  H70   S    
O37   Zn24  S    
C198  H8    S    
C184  C185  A    
O17   Zn12  S    
C300  H93   S    
C275  H72   S    
C85   C94   T    
C207  H16   S    
C189  C191  A    
C174  C175  A    
C262  H61   S    
C235  C378  S    
C8    C389  T    
C364  H146  S    
C67   O52   A    
C122  C157  T    
O72   Zn3   S    
C322  C328  A    
O49   Zn18  S    
O39   Zn16  S    
C264  C265  A    
C256  C258  A    
C361  C378  S    
C204  C205  A    
O58   Zn29  S    
O30   Zn16  S    
C19   C37   S    
C233  C234  A    
C313  C314  A    
O13   Zn23  S    
C339  I10   S    
C84   C93   T    
C45   C397  S    
C319  H108  S    
C2    O103  A    
C173  C174  A    
C277  C278  A    
O92   Zn8   S    
O69   Zn8   S    
O50   Zn32  S    
C316  C369  S    
C230  C231  A    
C164  H186  S    
C152  H177  S    
C220  C221  A    
C204  H12   S    
C286  C287  A    
C209  C210  A    
C276  C362  S    
C207  C208  A    
C341  C343  S    
C347  I2    S    
C181  H201  S    
C335  H68   S    
C331  H119  S    
C350  C385  S    
C346  C373  S    
C249  H50   S    
C158  H181  S    
O103  Zn19  S    
C280  C281  A    
O3    Zn21  S    
C211  H19   S    
C324  C325  A    
C222  C225  A    
C327  H116  S    
C114  C122  S    
C241  H43   S    
O17   Zn10  S    
C341  C376  S    
C280  H75   S    
C246  H187  S    
O40   Zn26  S    
C293  C294  A    
C75   O68   A    
C166  H189  S    
C24   O18   A    
C223  O8    A    
O79   Zn27  S    
O95   Zn10  S    
C55   O88   A    
C288  H83   S    
O10   Zn12  S    
C282  H77   S    
C77   O70   A    
C242  H44   S    
C343  I14   S    
O61   Zn2   S    
C123  C168  S    
C224  C246  S    
C326  H115  S    
C143  C201  S    
C202  H11   S    
C257  C279  S    
O71   Zn2   S    
C338  C340  S    
C150  C155  A    
C311  C313  A    
O11   Zn1   S    
C188  H207  S    
C304  H95   S    
C366  C384  S    
C59   O38   A    
O72   Zn8   S    
C366  H148  S    
C40   C41   T    
O28   Zn11  S    
O23   Zn9   S    
C19   C400  T    
C211  C213  A    
C127  H156  S    
C345  H127  S    
C168  C190  S    
C270  C275  A    
C105  C115  S    
O26   Zn13  S    
C217  H23   S    
O78   Zn23  S    
C260  C261  A    
C343  C378  S    
C294  H87   S    
C5    C22   T    
C51   O31   A    
C203  C208  A    
O85   Zn32  S    
C173  H194  S    
O32   Zn18  S    
C89   C98   S    
C156  C224  S    
C352  H134  S    
O31   Zn17  S    
C68   O22   A    
C236  H39   S    
C353  H135  S    
C69   O56   A    
C73   O65   A    
O25   Zn11  S    
C267  H65   S    
O83   Zn7   S    
C346  O10   A    
O39   Zn13  S    
C297  H89   S    
C43   O76   A    
C240  C241  A    
C71   O63   A    
O83   Zn25  S    
C197  C198  A    
C226  H30   S    
C48   O80   A    
C163  C235  S    
O15   Zn5   S    
C141  H168  S    
C176  C177  A    
C137  C190  S    
C50   O30   A    
C174  H195  S    
C263  C269  A    
C276  C277  A    
C58   O90   A    
C226  C227  A    
C65   O49   A    
C223  O96   A    
C346  O98   A    
C150  C151  A    
C52   O85   A    
C209  C312  S    
C364  C382  S    
C196  C202  A    
C69   C90   S    
C17   C398  T    
C369  C371  S    
C20   C38   S    
C285  H80   S    
C96   C105  T    
C243  C249  A    
C316  C321  A    
C4    C53   S    
O52   Zn20  S    
O28   Zn31  S    
C239  C240  A    
C136  H163  S    
C72   O66   A    
C6    C55   S    
C344  C380  S    
O61   Zn5   S    
C212  C235  S    
C161  C162  A    
C251  C252  A    
C386  C390  S    
O76   Zn1   S    
C172  C173  A    
C214  H21   S    
C362  H144  S    
C179  H112  S    
C224  C377  S    
C164  C165  A    
C179  C373  S    
C100  C109  T    
C299  H92   S    
O96   Zn11  S    
C294  C295  A    
C342  C344  S    
C190  C374  S    
C111  C121  S    
O22   Zn3   S    
C250  C255  A    
C103  C111  T    
C329  C330  A    
C257  H198  S    
C216  C221  A    
O66   Zn23  S    
O24   Zn10  S    
C147  C148  A    
C337  C339  S    
C365  C383  S    
C270  C361  S    
C179  C201  S    
C317  H106  S    
C235  H176  S    
C151  C152  A    
O93   Zn9   S    
O8    Zn31  S    
O89   Zn5   S    
C72   C81   S    
C30   C33   T    
O6    Zn25  S    
C371  C388  S    
C74   O73   A    
C81   C89   T    
C194  C195  A    
C370  H151  S    
C277  H73   S    
C134  H162  S    
C63   O43   A    
C216  C323  S    
O102  Zn18  S    
C25   C42   S    
C337  I1    S    
C261  H60   S    
O101  Zn17  S    
C358  H139  S    
C145  C147  A    
C300  C302  A    
O1    Zn15  S    
C39   C42   T    
C170  C175  A    
C192  H3    S    
C309  C315  A    
C312  H46   S    
C369  C386  S    
C66   O54   A    
C307  C308  A    
C340  H113  S    
O94   Zn29  S    
C14   C395  T    
C363  C381  S    
C132  H160  S    
C219  C220  A    
O20   Zn32  S    
C260  H59   S    
C56   O89   A    
C219  H26   S    
C250  C251  A    
C309  C310  A    
O74   Zn4   S    
C54   O87   A    
C191  C192  A    
C348  I3    S    
C106  C116  S    
C34   C38   T    
C169  H191  S    
C331  C332  A    
C285  C286  A    
C355  C373  S    
C189  C195  A    
C48   C391  S    
C55   O35   A    
C159  C160  A    
C213  C214  A    
C224  H165  S    
O43   Zn11  S    
C339  H101  S    
C57   C384  S    
C45   O25   A    
O98   Zn14  S    
O91   Zn7   S    
O68   Zn5   S    
C289  C295  A    
C357  O99   A    
O12   Zn27  S    
C350  C352  S    
C1    O94   A    
C345  I16   S    
C303  C308  A    
C186  C187  A    
O73   Zn32  S    
C97   C106  T    
C330  H118  S    
C131  H159  S    
C18   C399  T    
C185  H204  S    
C94   C103  S    
O48   Zn17  S    
C245  C247  A    
O84   Zn31  S    
C318  H107  S    
O28   Zn17  S    
O104  Zn20  S    
C379  O13   A    
C140  H167  S    
C76   O69   A    
C51   C392  S    
C73   C82   S    
C133  H161  S    
C2    C385  S    
C180  C181  A    
C109  C119  S    
C320  H109  S    
C10   C28   S    
C213  H20   S    
C201  H143  S    
C238  C239  A    
C48   O27   A    
C12   C30   S    
C225  H29   S    
C361  H142  S    
C61   O41   A    
C93   C102  S    
C178  C180  A    
C351  C353  S    
C221  H28   S    
C304  C305  A    
O29   Zn15  S    
C341  I12   S    
C64   O44   A    
C339  C374  S    
C7    C25   T    
C351  I6    S    
C212  C376  S    
C138  H164  S    
C60   O92   A    
C206  H15   S    
C187  C188  A    
C190  H132  S    
C131  C132  A    
C192  C193  A    
C267  C269  A    
C185  C186  A    
C261  C262  A    
C338  C373  S    
C168  H1    S    
C340  C375  S    
C279  H13   S    
C47   O26   A    
C232  C233  A    
C13   C388  S    
C186  H205  S    
C364  C366  S    
C66   O51   A    
C258  C259  A    
C70   O58   A    
C325  C326  A    
C163  C169  A    
O7    Zn26  S    
C69   O53   A    
C138  C139  A    
C183  C268  S    
C319  C320  A    
O50   Zn18  S    
C62   O42   A    
C268  C382  S    
C284  H78   S    
C177  C178  A    
C287  H82   S    
C112  C376  S    
C259  H58   S    
O72   Zn26  S    
C270  C271  A    
C281  H76   S    
C155  H180  S    
C7    C54   S    
C61   O46   A    
C18   C36   S    
C107  C117  S    
C184  H203  S    
C312  C386  S    
C358  C375  S    
O61   Zn19  S    
C150  C212  S    
C325  H114  S    
C44   O24   A    
O2    Zn28  S    
C171  C172  A    
C56   O36   A    
C165  C166  A    
O80   Zn28  S    
C70   C78   S    
C50   O82   A    
C370  C387  S    
C341  H123  S    
C163  C164  A    
C299  C300  A    
C254  H54   S    
C360  C362  S    
O75   Zn3   S    
C119  C124  T    
C11   C393  T    
C83   C92   T    
C349  I4    S    
C254  C255  A    
C305  C306  A    
C336  H122  S    
C9    C391  T    
C292  C293  A    
O63   Zn12  S    
C172  H193  S    
C160  H183  S    
C379  O101  A    
C68   O7    A    
C342  H124  S    
C154  H179  S    
C73   O62   A    
C247  H48   S    
C194  H5    S    
C60   O40   A    
C227  C228  A    
C266  H64   S    
C49   C389  S    
C343  H125  S    
C354  C372  S    
C191  H208  S    
O38   Zn25  S    
C74   O67   A    
O56   Zn25  S    
O5    Zn24  S    
C333  H121  S    
C132  C133  A    
C311  H102  S    
C49   O29   A    
C223  C380  S    
C351  C386  S    
C44   C394  S    
C216  C217  A    
C5    C52   S    
C193  H4    S    
C198  C199  A    
C265  C266  A    
C390  O102  A    
C360  H141  S    
C54   O34   A    
C309  C367  S    
C16   C397  T    
C64   C135  S    
C243  C356  S    
C144  H170  S    
C175  H196  S    
C123  C129  A    
C47   O79   A    
C363  C365  S    
C57   O21   A    
C272  H69   S    
C289  C364  S    
C342  C377  S    
C334  C378  S    
O44   Zn13  S    
O1    Zn1   S    
C71   C80   S    
C165  H188  S    
O45   Zn14  S    
C250  C358  S    
O34   Zn20  S    
C62   C157  S    
C222  C335  S    
C323  C387  S    
C108  C118  S    
C3    C20   T    
O87   Zn3   S    
C148  C149  A    
C347  H128  S    
C130  C179  S    
C352  I7    S    
C110  C120  S    
C350  H131  S    
C142  H169  S    
C301  H35   S    
O61   Zn22  S    
C278  H74   S    
C134  C136  A    
O83   Zn4   S    
O60   Zn31  S    
C281  C282  A    
O17   Zn14  S    
C46   O5    A    
C255  H55   S    
C43   O23   A    
C183  C184  A    
C318  C319  A    
C323  H57   S    
C59   O91   A    
C16   C33   S    
C347  C349  S    
O50   Zn24  S    
C298  H91   S    
C248  H49   S    
C21   C39   S    
C231  H34   S    
C22   C40   S    
C321  H110  S    
C344  I15   S    
C53   O33   A    
C225  C226  A    
C62   O45   A    
C35   O4    A    
C359  C361  S    
O97   Zn13  S    
C152  C153  A    
C357  O11   A    
C76   O75   A    
C104  C114  T    
C368  O100  A    
O55   Zn24  S    
O65   Zn27  S    
C77   C86   S    
C307  H98   S    
C66   C113  S    
C354  C356  S    
C352  C387  S    
C287  C288  A    
C166  C167  A    
C278  C280  A    
C24   C387  S    
C272  C273  A    
C162  H185  S    
C268  C290  S    
C259  C260  A    
C348  C383  S    
C35   O19   A    
C27   C28   T    
C340  I11   S    
C95   C104  S    
C92   C100  S    
C279  C383  S    
C365  H147  S    
C344  H126  S    
C369  H150  S    
O9    Zn30  S    
C322  C370  S    
O77   Zn12  S    
C371  H152  S    
C121  C146  T    
C56   C399  S    
O83   Zn21  S    
C31   C32   T    
C130  C136  A    
C353  C388  S    
C47   C396  S    
O50   Zn6   S    
C368  C375  S    
C247  C248  A    
O14   Zn6   S    
C296  C365  S    
O17   Zn28  S    
C137  C138  A    
C65   O55   A    
C329  C371  S    
O62   Zn30  S    
C263  C360  S    
C91   C99   S    
C320  C321  A    
C153  H178  S    
C314  H104  S    
C349  C384  S    
C178  H199  S    
C354  H136  S    
C141  C142  A    
C327  C328  A    
C4    C21   T    
C324  H111  S    
C218  C219  A    
C133  C134  A    
C241  C242  A    
C6    C23   T    
C64   O47   A    
C289  C291  A    
C362  C380  S    
C182  H202  S    
O27   Zn14  S    
C240  H42   S    
C317  C318  A    
C160  C161  A    
C215  H22   S    
O51   Zn19  S    
C266  C267  A    
C156  C162  A    
C113  C118  T    
C199  H9    S    
C363  H145  S    
C355  C358  S    
C229  H33   S    
C11   C29   S    
C26   C29   T    
C290  C384  S    
C210  C211  A    
C17   C34   S    
C148  H173  S    
C234  H38   S    
C245  H47   S    
C203  C204  A    
C153  C154  A    
C237  C238  A    
C70   O64   A    
C127  C128  A    
C3    C59   S    
C57   O6    A    
C98   C107  T    
C273  C274  A    
