data_mof_unit_7713.cif
_audit_creation_date              2012-10-26T20:33:21-0400
_audit_creation_method            fapswitch 2.2
_symmetry_space_group_name_H-M    P1
_symmetry_Int_Tables_number       1
_space_group_crystal_system       triclinic
_cell_length_a                    17.668287
_cell_length_b                    10.856567
_cell_length_c                    9.614804
_cell_angle_alpha                 89.489686
_cell_angle_beta                  88.78121
_cell_angle_gamma                 91.961354
_cell_volume                      1842.69913361

loop_
_atom_site_label
_atom_site_type_symbol
_atom_type_description
_atom_site_fract_x
_atom_site_fract_y
_atom_site_fract_z
_atom_type_partial_charge
C1    C     C_R   0.500914 0.262404 0.500578 0.567522
C2    C     C_R   0.115015 0.501547 0.495186 0.022718
C3    C     C_R   0.508887 0.061739 0.624743 0.047696
C4    C     C_R   0.355891 0.500573 0.500886 0.554864
C5    C     C_R   0.497504 0.128467 0.501875 -0.015960
C6    C     C_R   0.476847 0.064069 0.381076 -0.123654
C7    C     C_R   0.474836 0.935563 0.380038 -0.129225
C8    C     C_R   0.493410 0.869966 0.500025 -0.017837
C9    C     C_R   0.506351 0.934153 0.622375 -0.020313
C10   C     C_3   0.571329 0.922655 0.717742 0.111975
C11   C     C_3   0.576286 0.063243 0.718808 0.190692
C12   C     C_R   0.885216 0.506924 0.497321 0.015529
C13   C     C_R   0.541786 0.586391 0.070766 0.070915
C14   C     C_R   0.453771 0.421709 0.080666 0.349109
C15   C     C_R   0.448613 0.426141 0.931964 0.369132
C16   C     C_R   0.498805 0.737219 0.499513 0.534677
C17   C     C_R   0.543715 0.583709 0.924654 0.188282
C18   C     C_3   0.627837 0.606739 0.919099 0.082558
C19   C     C_3   0.625023 0.612361 0.077157 -0.209917
C20   C     C_R   0.644082 0.500176 0.498728 0.618913
C21   C     C_R   0.844017 0.421356 0.580349 -0.180854
C22   C     C_R   0.764700 0.416471 0.578997 0.183279
C23   C     C_1   0.966196 0.506151 0.497674 0.058568
C24   C     C_R   0.726995 0.501261 0.496082 0.068384
C25   C     C_R   0.768093 0.590154 0.414686 0.166167
C26   C     C_R   0.848400 0.589496 0.410930 0.246534
C27   C     C_1   0.034038 0.504587 0.497073 -0.002230
C28   C     C_R   0.154676 0.577385 0.587706 -0.135665
C29   C     C_R   0.233446 0.577271 0.590063 -0.127533
C30   C     C_R   0.273201 0.500282 0.500834 -0.017068
C31   C     C_R   0.233801 0.425660 0.406558 -0.028505
C32   C     C_R   0.154854 0.424729 0.402694 0.267947
Cu1   Cu    Cu3+1 0.500000 0.499980 0.640670 1.161209
Cu2   Cu    Cu3+1 0.500000 0.500020 0.359330 1.035308
H1    H     H_    0.873794 0.357030 0.644452 0.125339
H2    H     H_    0.264529 0.366833 0.336251 0.195881
H3    H     H_    0.464438 0.112488 0.286079 0.175977
H4    H     H_    0.495910 0.877957 0.866543 0.370593
H5    H     H_    0.595292 0.301691 0.977869 0.356863
H6    H     H_    0.424465 0.256611 0.126274 0.352036
H7    H     H_    0.251566 0.425330 0.834739 0.369109
H8    H     H_    0.721514 0.529656 0.873583 0.327888
H9    H     H_    0.757919 0.277270 0.708414 0.336730
H10   H     H_    0.760931 0.754368 0.334620 0.338629
H11   H     H_    0.862208 0.686935 0.241340 0.335335
H12   H     H_    0.461488 0.888204 0.284482 0.169374
H13   H     H_    0.064388 0.355465 0.314175 0.337321
H14   H     H_    0.621387 0.880257 0.667984 0.117724
H15   H     H_    0.628648 0.102036 0.666417 0.102979
H16   H     H_    0.646015 0.694638 0.866152 0.162684
H17   H     H_    0.655527 0.537130 0.128519 0.194083
H18   H     H_    0.638186 0.706253 0.117058 0.169333
H19   H     H_    0.124600 0.637158 0.657870 0.145588
H20   H     H_    0.263396 0.638199 0.660335 0.171330
N1    N     N_R   0.500470 0.500930 0.147930 -0.254554
N2    N     N_R   0.500480 0.500890 0.852020 -0.238649
O1    O     O_R   0.500000 0.319640 0.618810 -0.409635
O2    O     O_2   0.476073 0.119326 0.924144 -0.274307
O3    O     O_2   0.603620 0.065347 0.994174 -0.265457
O4    O     O_3   0.587595 0.278775 0.879545 -0.450489
O5    O     O_3   0.411351 0.339059 0.160595 -0.617644
O6    O     O_2   0.373967 0.285795 0.733352 -0.237836
O7    O     O_2   0.325166 0.265350 0.967789 -0.248373
O8    O     O_3   0.301862 0.467791 0.841648 -0.542558
O9    O     O_3   0.667002 0.504573 0.872631 -0.630616
O10   O     O_3   0.722941 0.329083 0.656092 -0.640742
O11   O     O_3   0.728391 0.678737 0.345895 -0.734698
O12   O     O_R   0.500010 0.319680 0.381230 -0.493141
O13   O     O_3   0.892100 0.666314 0.323807 -0.682620
O14   O     O_3   0.119958 0.347955 0.307702 -0.664301
O15   O     O_R   0.391250 0.499990 0.618840 -0.433453
O16   O     O_R   0.391260 0.500020 0.381250 -0.467689
O17   O     O_R   0.499990 0.680320 0.618770 -0.506896
O18   O     O_R   0.500000 0.680360 0.381190 -0.505915
O19   O     O_R   0.608740 0.499980 0.618750 -0.418327
O20   O     O_R   0.608750 0.500010 0.381160 -0.503297
O21   O     O_3   0.550517 0.866056 0.846208 -0.666062
S1    S     S_3+6 0.558925 0.130163 0.885918 0.038947
S2    S     S_3+6 0.362944 0.354801 0.865932 0.090299

loop_
_geom_bond_atom_site_label_1
_geom_bond_atom_site_label_2
_ccdc_geom_bond_type
C25   O11   S    
C7    C8    A    
O7    S2    D    
C18   O9    S    
C12   C23   S    
O4    S1    S    
C3    C9    A    
C28   C29   A    
C30   C31   A    
C29   H20   S    
C1    O12   A    
C20   O20   A    
C2    C32   A    
C18   C19   S    
C22   O10   S    
C19   H18   S    
Cu1   O19   S    
C15   S2    S    
C20   C24   S    
C8    C9    A    
H8    O9    S    
C2    C27   S    
C23   C27   T    
C9    C10   S    
Cu1   N2    S    
C14   N1    A    
Cu2   N1    S    
C8    C16   S    
C21   C22   A    
O3    S1    D    
C10   O21   S    
C17   C18   S    
C13   C19   S    
H11   O13   S    
C16   O17   A    
C7    H12   S    
O6    S2    D    
C24   C25   A    
Cu2   O12   S    
O2    S1    D    
C32   O14   S    
C25   C26   A    
C14   O5    S    
C12   C21   A    
H6    O5    S    
C20   O19   A    
C12   C26   A    
H13   O14   S    
C29   C30   A    
C11   H15   S    
C11   S1    S    
C1    O1    A    
C31   C32   A    
Cu1   Cu2   S    
C6    H3    S    
C17   N2    A    
Cu2   O18   S    
C21   H1    S    
Cu1   O17   S    
C10   H14   S    
O8    S2    S    
C1    C5    S    
Cu2   O16   S    
C4    O16   A    
C18   H16   S    
Cu1   O1    S    
C14   C15   A    
C3    C5    A    
C28   H19   S    
C6    C7    A    
C16   O18   A    
H4    O21   S    
C13   C17   A    
C15   N2    A    
C5    C6    A    
H9    O10   S    
H5    O4    S    
C22   C24   A    
C3    C11   S    
C10   C11   S    
Cu1   O15   S    
C19   H17   S    
C26   O13   S    
C31   H2    S    
H10   O11   S    
C2    C28   A    
H7    O8    S    
C4    O15   A    
C4    C30   S    
Cu2   O20   S    
C13   N1    A    
