data_mof_unit_18222.cif
_audit_creation_date              2012-12-11T17:36:25-0500
_audit_creation_method            fapswitch 2.2
_symmetry_space_group_name_H-M    P1
_symmetry_Int_Tables_number       1
_space_group_crystal_system       triclinic
_cell_length_a                    25.841542
_cell_length_b                    6.898019
_cell_length_c                    21.636824
_cell_angle_alpha                 89.999959
_cell_angle_beta                  96.150821
_cell_angle_gamma                 89.999729
_cell_volume                      3834.67882789

loop_
_atom_site_label
_atom_site_type_symbol
_atom_type_description
_atom_site_fract_x
_atom_site_fract_y
_atom_site_fract_z
_atom_type_partial_charge
O1    O     O_R   0.208650 0.594520 0.175450 -0.533795
O2    O     O_R   0.791350 0.405480 0.824550 -0.533326
O3    O     O_R   0.291350 0.094520 0.324550 -0.533795
O4    O     O_R   0.708650 0.905480 0.675450 -0.533327
O5    O     O_R   0.192980 0.260780 0.300160 -0.540916
O6    O     O_R   0.807020 0.739220 0.699840 -0.540650
O7    O     O_R   0.307020 0.760780 0.199840 -0.540917
O8    O     O_R   0.692980 0.239220 0.800160 -0.540649
C1    C     C_R   0.179031 0.432689 0.318676 0.695811
C2    C     C_R   0.821185 0.567264 0.681638 0.696063
C3    C     C_R   0.320969 0.932688 0.181324 0.695811
C4    C     C_R   0.678814 0.067264 0.818362 0.696062
O9    O     O_R   0.202550 0.264660 0.174420 -0.537941
O10   O     O_R   0.797450 0.735340 0.825580 -0.538477
O11   O     O_R   0.297450 0.764660 0.325580 -0.537941
O12   O     O_R   0.702550 0.235340 0.674420 -0.538477
O13   O     O_R   0.300990 0.096480 0.197920 -0.536821
O14   O     O_R   0.699010 0.903520 0.802080 -0.536920
O15   O     O_R   0.199010 0.596480 0.302080 -0.536820
O16   O     O_R   0.800990 0.403520 0.697920 -0.536921
C5    C     C_R   0.190965 0.434059 0.151031 0.695962
C6    C     C_R   0.809041 0.565885 0.848923 0.697441
C7    C     C_R   0.309035 0.934058 0.348969 0.695963
C8    C     C_R   0.690959 0.065886 0.651076 0.697442
O17   O     O_3   0.282290 0.427760 0.257860 -0.363298
O18   O     O_3   0.717710 0.572240 0.742140 -0.363470
O19   O     O_3   0.217710 0.927760 0.242140 -0.363298
O20   O     O_3   0.782290 0.072240 0.757860 -0.363470
V1    V     V_3+5 0.244010 0.152080 0.248540 1.421101
V2    V     V_3+5 0.755990 0.847920 0.751460 1.419889
V3    V     V_3+5 0.255990 0.652080 0.251460 1.421102
V4    V     V_3+5 0.744010 0.347920 0.748540 1.419890
C9    C     C_R   0.657143 0.051833 0.591829 -0.051738
C10   C     C_R   0.341767 0.946981 0.409065 -0.050542
C11   C     C_R   0.842856 0.551827 0.908171 -0.051742
C12   C     C_R   0.158233 0.446987 0.090934 -0.050544
C13   C     C_R   0.648047 0.957856 0.483746 -0.144828
C14   C     C_R   0.348399 0.033377 0.517870 -0.147827
C15   C     C_R   0.851953 0.457792 0.016249 -0.144830
C16   C     C_R   0.151601 0.533447 0.982134 -0.147829
C17   C     C_R   0.679499 0.007574 0.537668 -0.161635
C18   C     C_R   0.318101 0.987477 0.462667 -0.162975
C19   C     C_R   0.820501 0.507532 0.962329 -0.161633
C20   C     C_R   0.181899 0.487527 0.037335 -0.162972
C21   C     C_R   0.602595 0.057676 0.590328 -0.227590
C22   C     C_R   0.396445 0.941133 0.412406 -0.204334
C23   C     C_R   0.897405 0.557683 0.909673 -0.227591
C24   C     C_R   0.103555 0.441120 0.087593 -0.204331
C25   C     C_R   0.569514 0.024647 0.534393 0.084343
C26   C     C_R   0.427976 0.967071 0.469798 0.078493
C27   C     C_R   0.930486 0.524636 0.965607 0.084346
C28   C     C_R   0.072024 0.467078 0.030202 0.078481
C29   C     C_R   0.593594 0.956664 0.482739 0.112295
C30   C     C_R   0.402965 0.032074 0.520877 0.088469
C31   C     C_R   0.906406 0.456617 0.017257 0.112292
C32   C     C_R   0.097034 0.532121 0.979126 0.088469
C33   C     C_R   0.513565 0.039238 0.529130 -0.031492
C34   C     C_R   0.483585 0.947964 0.476742 0.006999
C35   C     C_R   0.986434 0.539244 0.970872 -0.031490
C36   C     C_R   0.016416 0.447954 0.023256 0.006998
C37   C     C_R   0.510571 0.836283 0.434632 0.130940
C38   C     C_R   0.485896 0.141004 0.573173 0.132427
C39   C     C_R   0.989432 0.336242 0.065361 0.130945
C40   C     C_R   0.014101 0.641043 0.926834 0.132420
C41   C     C_R   0.563984 0.865672 0.433573 -0.233465
C42   C     C_R   0.432041 0.115426 0.571869 -0.204874
C43   C     C_R   0.936018 0.365607 0.066419 -0.233465
C44   C     C_R   0.067957 0.615490 0.928138 -0.204869
H1    H     H_    0.583895 0.795188 0.398033 0.125700
H2    H     H_    0.411633 0.183623 0.607381 0.137157
H3    H     H_    0.916107 0.295094 0.101955 0.125699
H4    H     H_    0.088363 0.683718 0.892631 0.137157
H5    H     H_    0.413602 0.936210 0.369246 0.099224
H6    H     H_    0.586967 0.074317 0.634040 0.129482
H7    H     H_    0.086398 0.436171 0.130752 0.099227
H8    H     H_    0.913033 0.574348 0.865962 0.129485
H9    H     H_    0.276081 0.995400 0.460776 0.107537
H10   H     H_    0.721428 0.999695 0.538218 0.107293
H11   H     H_    0.223919 0.495471 0.039228 0.107539
H12   H     H_    0.778572 0.499640 0.961779 0.107295
H13   H     H_    0.666458 0.909904 0.443699 0.120636
H14   H     H_    0.329083 0.078736 0.557519 0.120709
H15   H     H_    0.833543 0.409810 0.056293 0.120636
H16   H     H_    0.170916 0.578844 0.942490 0.120709
C45   C     C_R   0.437883 0.806131 0.094539 0.187296
C46   C     C_R   0.560327 0.193231 0.902314 0.188734
C47   C     C_R   0.062117 0.306132 0.405460 0.187295
C48   C     C_R   0.939673 0.693230 0.597686 0.188733
C49   C     C_R   0.398242 0.791919 0.134166 -0.195181
C50   C     C_R   0.600518 0.207226 0.863464 -0.196959
C51   C     C_R   0.101758 0.291921 0.365833 -0.195179
C52   C     C_R   0.899481 0.707225 0.636536 -0.196957
H17   H     H_    0.395886 0.662736 0.162166 0.146065
H18   H     H_    0.602994 0.335640 0.835135 0.144445
H19   H     H_    0.104114 0.162737 0.337834 0.146065
H20   H     H_    0.897005 0.835638 0.664865 0.144446
C53   C     C_R   0.362673 0.944625 0.138704 -0.090626
C54   C     C_R   0.636521 0.055317 0.860134 -0.090250
C55   C     C_R   0.137327 0.444626 0.361296 -0.090626
C56   C     C_R   0.863479 0.555316 0.639865 -0.090250
C57   C     C_R   0.367257 0.110932 0.101912 -0.157577
C58   C     C_R   0.631641 0.889585 0.897073 -0.158470
C59   C     C_R   0.132743 0.610932 0.398088 -0.157577
C60   C     C_R   0.868359 0.389584 0.602927 -0.158471
H21   H     H_    0.340424 0.230895 0.103787 0.129201
H22   H     H_    0.658714 0.770075 0.895969 0.129520
H23   H     H_    0.159576 0.730895 0.396213 0.129201
H24   H     H_    0.841286 0.270075 0.604030 0.129520
C61   C     C_R   0.405982 0.123762 0.061459 -0.129586
C62   C     C_R   0.592309 0.876867 0.936706 -0.129229
C63   C     C_R   0.094018 0.623762 0.438541 -0.129584
C64   C     C_R   0.907690 0.376867 0.563293 -0.129227
H25   H     H_    0.408083 0.252606 0.033207 0.163058
H26   H     H_    0.589994 0.748518 0.965141 0.163219
H27   H     H_    0.091917 0.752606 0.466793 0.163058
H28   H     H_    0.910006 0.248518 0.534858 0.163219
C65   C     C_R   0.441763 0.972773 0.057574 0.074404
C66   C     C_R   0.556256 0.027464 0.939630 0.074821
C67   C     C_R   0.058236 0.472773 0.442425 0.074404
C68   C     C_R   0.943744 0.527464 0.560369 0.074820
C69   C     C_1   0.482067 0.992039 0.015841 0.063957
C70   C     C_1   0.515689 0.008895 0.981033 0.064384
C71   C     C_1   0.017933 0.492040 0.484159 0.063957
C72   C     C_1   0.984311 0.508895 0.518967 0.064384
C73   C     C_3   0.487760 0.657771 0.399624 -0.338127
C74   C     C_3   0.466840 0.510176 0.443478 -0.719031
H29   H     H_    0.497727 0.470926 0.481084 0.224553
H30   H     H_    0.432715 0.568330 0.464428 0.232894
H31   H     H_    0.454488 0.376691 0.417230 0.217774
H32   H     H_    0.458017 0.691365 0.360792 0.170725
H33   H     H_    0.518451 0.581521 0.376647 0.181342
C75   C     C_3   0.508501 0.305674 0.614442 -0.376197
C76   C     C_3   0.508644 0.260355 0.683832 -0.713507
H34   H     H_    0.468638 0.271465 0.697770 0.233294
H35   H     H_    0.523416 0.112186 0.695209 0.222445
H36   H     H_    0.533607 0.366786 0.711610 0.223051
H37   H     H_    0.547547 0.351585 0.603592 0.183507
H38   H     H_    0.484156 0.437090 0.604021 0.186029
C77   C     C_3   0.012247 0.157724 0.100363 -0.338127
C78   C     C_3   0.033174 0.010157 0.056504 -0.719035
H39   H     H_    0.002287 0.970897 0.018898 0.224549
H40   H     H_    0.067295 0.068341 0.035553 0.232895
H41   H     H_    0.045532 0.876672 0.082748 0.217781
H42   H     H_    0.041987 0.191314 0.139197 0.170725
H43   H     H_    0.981557 0.081449 0.123334 0.181339
C79   C     C_3   0.991492 0.805724 0.885573 -0.376206
C80   C     C_3   0.991351 0.760438 0.816180 -0.713502
H44   H     H_    0.031356 0.771580 0.802243 0.233293
H45   H     H_    0.976585 0.612264 0.804797 0.222447
H46   H     H_    0.966383 0.866866 0.788407 0.223046
H47   H     H_    0.952445 0.851617 0.896424 0.183511
H48   H     H_    0.015833 0.937146 0.895999 0.186027
I1    I     I_    0.491507 0.573827 0.093397 -0.433096
I2    I     I_    0.506304 0.424703 0.901766 -0.437941
I3    I     I_    0.008493 0.073829 0.406603 -0.433095
I4    I     I_    0.993695 0.924701 0.598234 -0.437938

loop_
_geom_bond_atom_site_label_1
_geom_bond_atom_site_label_2
_ccdc_geom_bond_type
O17   V3    S    
C55   C59   A    
O1    C5    A    
C74   H29   S    
C47   C51   A    
O19   V1    S    
C9    C21   A    
C16   H16   S    
O3    C7    A    
C80   H44   S    
C10   C18   A    
C78   H41   S    
O1    V3    S    
O15   V3    S    
C62   C66   A    
C61   C65   A    
C71   C72   T    
C5    C12   S    
C42   H2    S    
O7    C3    A    
C6    C11   S    
C35   C40   A    
C26   C30   A    
C36   C39   A    
C48   I4    S    
O2    V4    S    
O9    V1    S    
C80   H45   S    
C78   H40   S    
C23   H8    S    
C14   C18   A    
O4    C8    A    
C25   C29   A    
C75   H38   S    
C60   H24   S    
C52   H20   S    
O13   V1    S    
C59   C63   A    
C66   C70   S    
O3    V1    S    
C65   C69   S    
C28   C36   A    
C68   C72   S    
C73   H32   S    
C1    O15   A    
C56   C60   A    
C15   C31   A    
C48   C52   A    
C2    O16   A    
C75   C76   S    
C16   C32   A    
O2    C6    A    
C76   H36   S    
C58   H22   S    
C10   C22   A    
C48   C68   A    
C11   C19   A    
C62   H26   S    
C16   C20   A    
C43   H3    S    
C44   H4    S    
C13   C29   A    
C34   C37   A    
O11   C7    A    
C11   C23   A    
C35   C36   A    
O12   C8    A    
C14   H14   S    
O17   V1    S    
C24   H7    S    
C13   H13   S    
C47   C67   A    
O10   V2    S    
C50   H18   S    
O5    V1    S    
C57   H21   S    
C39   C43   A    
O7    V3    S    
C38   C42   A    
O19   V3    S    
C26   C34   A    
C38   C75   S    
O20   V4    S    
C80   H46   S    
C78   H39   S    
C46   C50   A    
C17   H10   S    
C60   C64   A    
C45   C49   A    
O18   V4    S    
C15   C19   A    
C74   H31   S    
C33   C38   A    
C19   H12   S    
C54   C58   A    
C49   H17   S    
C49   C53   A    
C21   H6    S    
O8    V4    S    
C2    C56   S    
O5    C1    A    
C63   H27   S    
C77   H42   S    
C73   H33   S    
C31   C43   A    
C14   C30   A    
C21   C25   A    
O8    C4    A    
C7    C10   S    
O9    C5    A    
C46   C66   A    
C45   I1    S    
C45   C65   A    
C69   C70   T    
C79   H48   S    
C63   C67   A    
O6    V2    S    
O18   V2    S    
C67   C71   S    
C73   C74   S    
C47   I3    S    
C12   C20   A    
C27   C35   A    
C40   C44   A    
C64   H28   S    
C29   C41   A    
C52   C56   A    
C64   C68   A    
C79   C80   S    
O16   V4    S    
C77   H43   S    
C74   H30   S    
C40   C79   S    
C39   C77   S    
C20   H11   S    
C3    O13   A    
O6    C2    A    
C25   C33   A    
C23   C27   A    
C77   C78   S    
O11   V3    S    
C30   C42   A    
C61   H25   S    
O12   V4    S    
C22   C26   A    
C8    C9    S    
C3    C53   S    
C59   H23   S    
C9    C17   A    
O10   C6    A    
O20   V2    S    
C46   I2    S    
C15   H15   S    
C32   C44   A    
C33   C34   A    
C76   H34   S    
C41   H1    S    
C12   C24   A    
C27   C31   A    
C13   C17   A    
O4    V2    S    
C58   C62   A    
O14   V2    S    
C51   H19   S    
C79   H47   S    
C37   C41   A    
C24   C28   A    
C18   H9    S    
C1    C55   S    
C4    O14   A    
C4    C54   S    
C76   H35   S    
C37   C73   S    
C75   H37   S    
C51   C55   A    
C57   C61   A    
C50   C54   A    
C22   H5    S    
C53   C57   A    
C28   C32   A    
