data_mof_unit_60127.cif
_audit_creation_date              2012-12-10T17:19:36-0500
_audit_creation_method            fapswitch 2.2
_symmetry_space_group_name_H-M    P1
_symmetry_Int_Tables_number       1
_space_group_crystal_system       triclinic
_cell_length_a                    10.204614
_cell_length_b                    10.675405
_cell_length_c                    11.545235
_cell_angle_alpha                 90.38204
_cell_angle_beta                  81.479258
_cell_angle_gamma                 95.44642
_cell_volume                      1238.18656898

loop_
_atom_site_label
_atom_site_type_symbol
_atom_type_description
_atom_site_fract_x
_atom_site_fract_y
_atom_site_fract_z
_atom_type_partial_charge
C1    C     C_R   0.556162 0.733461 0.496768 0.877244
C2    C     C_2   0.411781 0.132756 0.533531 0.003388
C3    C     C_2   0.493953 0.932889 0.566903 -0.179080
C4    C     C_2   0.507470 0.068169 0.564815 -0.181168
C5    C     C_2   0.928001 0.512611 0.508535 -0.042752
C6    C     C_2   0.072565 0.489775 0.489220 -0.041576
C7    C     C_1   0.119467 0.397778 0.404558 0.305346
C8    C     C_1   0.881832 0.607847 0.590019 0.303867
C9    C     C_R   0.443913 0.266548 0.511782 0.878268
C10   C     C_R   0.500245 0.500091 0.717867 0.887847
C11   C     C_R   0.499760 0.499927 0.282141 0.915567
C12   C     C_1   0.500593 0.500039 0.838348 -0.159478
C13   C     C_1   0.499406 0.499974 0.161655 -0.157533
C14   C     C_1   0.500308 0.500016 0.940597 0.020928
C15   C     C_1   0.499684 0.499993 0.059405 0.023766
C16   C     C_2   0.588750 0.867445 0.509597 0.008247
H1    H     H_    0.603367 0.115143 0.577875 0.199466
H2    H     H_    0.398545 0.886385 0.606321 0.195947
H3    H     H_    0.124110 0.616645 0.606841 0.173073
H4    H     H_    0.875136 0.380541 0.395917 0.178234
I1    I     I_    0.220384 0.048354 0.507897 -0.295722
I2    I     I_    0.779374 0.950366 0.431350 -0.292377
N1    N     N_2   0.842700 0.448890 0.453570 -0.208951
N2    N     N_2   0.157300 0.551110 0.546430 -0.207621
N3    N     N_1   0.156108 0.324008 0.336386 -0.172925
N4    N     N_1   0.845715 0.684317 0.655497 -0.186669
O1    O     O_R   0.431060 0.692470 0.509350 -0.614029
O2    O     O_R   0.568940 0.307530 0.490650 -0.615072
O3    O     O_R   0.651120 0.659650 0.479540 -0.584272
O4    O     O_R   0.348880 0.340350 0.520460 -0.586404
O5    O     O_R   0.389960 0.516400 0.680450 -0.605872
O6    O     O_R   0.610040 0.483600 0.319550 -0.595919
O7    O     O_R   0.610030 0.483580 0.650650 -0.609834
O8    O     O_R   0.389970 0.516420 0.349350 -0.601577
Zn1   Zn    Zn3+2 0.353060 0.521910 0.519900 0.982974
Zn2   Zn    Zn3+2 0.646940 0.478090 0.480100 0.984665

loop_
_geom_bond_atom_site_label_1
_geom_bond_atom_site_label_2
_ccdc_geom_bond_type
C5    C8    S    
C2    C4    D    
C6    C7    S    
C8    N4    T    
C5    N1    D    
H4    N1    S    
C6    N2    D    
C2    I1    S    
C1    O3    A    
H3    N2    S    
C1    C16   S    
C11   C13   S    
O3    Zn2   S    
C10   C12   S    
C9    O4    A    
C4    H1    S    
O6    Zn2   S    
C12   C14   T    
C11   O6    A    
N1    Zn2   S    
C10   O7    A    
C13   C15   T    
C5    C6    S    
O5    Zn1   S    
N2    Zn1   S    
C3    C4    S    
O4    Zn1   S    
O7    Zn2   S    
O2    Zn2   S    
C3    H2    S    
O8    Zn1   S    
C1    O1    A    
C14   C15   S    
C16   I2    S    
O1    Zn1   S    
C2    C9    S    
C10   O5    A    
C11   O8    A    
C3    C16   D    
C9    O2    A    
C7    N3    T    
