data_mof_unit_53129.cif
_audit_creation_date              2013-03-05T15:51:08-0500
_audit_creation_method            fapswitch 2.2
_symmetry_space_group_name_H-M    P1
_symmetry_Int_Tables_number       1
_space_group_crystal_system       triclinic
_cell_length_a                    10.489586
_cell_length_b                    12.036526
_cell_length_c                    12.918417
_cell_angle_alpha                 92.13614
_cell_angle_beta                  91.362849
_cell_angle_gamma                 86.692497
_cell_volume                      1626.82466854

loop_
_atom_site_label
_atom_site_type_symbol
_atom_site_description
_atom_site_fract_x
_atom_site_fract_y
_atom_site_fract_z
_atom_type_partial_charge
O1    O     O_R   0.506270 0.421700 0.658830 -0.568034
O2    O     O_R   0.493730 0.578300 0.341170 -0.575959
O3    O     O_R   0.491200 0.609310 0.646410 -0.558784
O4    O     O_R   0.508800 0.390690 0.353590 -0.559064
C1    C     C_R   0.482348 0.519993 0.698889 0.932847
C2    C     C_R   0.498461 0.479146 0.299460 1.003684
O5    O     O_R   0.693580 0.406210 0.506230 -0.642959
O6    O     O_R   0.306420 0.593790 0.493770 -0.628491
O7    O     O_R   0.678510 0.593830 0.493810 -0.585992
O8    O     O_R   0.321490 0.406170 0.506190 -0.572549
C3    C     C_R   0.742601 0.500300 0.500369 0.899556
C4    C     C_R   0.257393 0.499841 0.501365 0.950628
Zn1   Zn    Zn3+2 0.510060 0.374730 0.508290 1.080064
Zn2   Zn    Zn3+2 0.489940 0.625270 0.491710 1.083128
C5    C     C_3   0.956040 0.560167 0.584369 -0.112187
C6    C     C_3   0.043787 0.440009 0.418552 -0.066826
C7    C     C_3   0.034033 0.605674 0.497211 -0.095925
C8    C     C_3   0.965860 0.394502 0.505761 -0.089894
H1    H     H_    0.065722 0.691902 0.493880 0.186837
H2    H     H_    0.934209 0.308271 0.509184 0.190509
H3    H     H_    0.915442 0.609047 0.651619 0.204896
H4    H     H_    0.084382 0.391231 0.351236 0.218357
C9    C     C_3   0.122323 0.500082 0.501863 -0.033461
C10   C     C_3   0.877614 0.500092 0.501013 -0.026412
C11   C     C_3   0.047039 0.454829 0.589078 -0.186141
C12   C     C_3   0.952889 0.545371 0.413862 -0.173868
H5    H     H_    0.089553 0.418230 0.660450 0.211430
H6    H     H_    0.909793 0.582259 0.342750 0.183855
C13   C     C_R   0.490439 0.467334 0.187605 -0.306963
C14   C     C_R   0.448809 0.528277 0.807821 -0.311427
C15   C     C_R   0.409483 0.640360 0.963741 -0.122229
C16   C     C_R   0.531583 0.358018 0.030695 -0.120485
C17   C     C_R   0.418567 0.633271 0.856848 0.252077
C18   C     C_R   0.550003 0.372703 0.136723 0.252288
C19   C     C_R   0.455920 0.430949 0.866937 0.393460
C20   C     C_R   0.423096 0.550525 0.129586 0.412781
C21   C     C_R   0.473652 0.443990 0.973290 -0.084568
C22   C     C_R   0.435956 0.546137 0.022585 -0.078955
H7    H     H_    0.386766 0.721147 0.000393 0.241867
H8    H     H_    0.573110 0.283512 0.992226 0.231910
N1    N     N_R   0.523490 0.207800 0.519350 -0.152217
N2    N     N_R   0.476510 0.792200 0.480650 -0.157328
C23   C     C_R   0.351689 0.956773 0.433558 -0.184012
C24   C     C_R   0.646894 0.043447 0.568869 -0.175521
C25   C     C_R   0.368596 0.840860 0.437864 0.053335
C26   C     C_R   0.629522 0.159448 0.565331 0.042668
C27   C     C_R   0.569303 0.856600 0.524163 0.447696
C28   C     C_R   0.431092 0.143447 0.475311 0.427783
C29   C     C_R   0.554970 0.974756 0.523517 -0.054477
C30   C     C_R   0.444739 0.025382 0.477103 -0.062648
H9    H     H_    0.701670 0.211165 0.599167 0.159823
H10   H     H_    0.294188 0.789584 0.407591 0.181162
H11   H     H_    0.265238 0.991627 0.397137 0.217585
H12   H     H_    0.732332 0.008566 0.606783 0.212044
S1    S     S_3+6 0.306147 0.647712 0.184539 0.031538
O9    O     O_2   0.369378 0.752614 0.217110 -0.295828
O10   O     O_2   0.201830 0.674909 0.106049 -0.269251
O11   O     O_3   0.238426 0.594270 0.286406 -0.586985
H13   H     H_    0.165621 0.647343 0.303350 0.368099
S2    S     S_3+6 0.417274 0.296272 0.815725 0.059070
O12   O     O_2   0.537645 0.233034 0.781703 -0.305019
O13   O     O_2   0.356750 0.232486 0.897663 -0.228247
O14   O     O_3   0.313371 0.307766 0.714982 -0.547384
H14   H     H_    0.306359 0.230724 0.686595 0.393618
N3    N     N_R   0.630948 0.292379 0.190587 0.238934
O15   O     O_R   0.625802 0.186757 0.166519 -0.306306
O16   O     O_R   0.724228 0.325353 0.250216 -0.388614
N4    N     N_R   0.387444 0.731591 0.799627 0.247856
O17   O     O_R   0.431707 0.826192 0.830915 -0.302734
O18   O     O_R   0.296001 0.731218 0.729730 -0.363915
N5    N     N_R   0.321426 0.195807 0.425853 0.202479
O19   O     O_R   0.210161 0.193595 0.467897 -0.424036
O20   O     O_R   0.328679 0.228380 0.331454 -0.344112
N6    N     N_R   0.679856 0.804277 0.572364 0.201632
O21   O     O_R   0.790651 0.808160 0.529876 -0.417029
O22   O     O_R   0.673780 0.770037 0.666286 -0.348659

loop_
_geom_bond_atom_site_label_1
_geom_bond_atom_site_label_2
_geom_bond_distance
_ccdc_geom_bond_type
C24   C29   1.409118 A    
S1    O9    1.501674 D    
Zn1   N1    2.016223 S    
C27   C29   1.421772 A    
O5    C3    1.275998 A    
C13   C20   1.418652 A    
C7    C9    1.530975 S    
N6    O22   1.300018 A    
C14   C19   1.419530 A    
S2    O14   1.682066 S    
O1    C1    1.287160 A    
C7    C12   1.542758 S    
C19   C21   1.386371 A    
C10   C12   1.525033 S    
C5    C11   1.544592 S    
C3    C10   1.415916 S    
S2    O13   1.503911 D    
O4    Zn1   2.014463 S    
C23   H11   1.081774 S    
N4    O17   1.301263 A    
N3    O16   1.301722 A    
C6    H4    1.110396 S    
N1    C26   1.359511 A    
C15   C17   1.385556 A    
Zn2   N2    2.016223 S    
C9    C11   1.525589 S    
O2    C2    1.289824 A    
C8    C11   1.542828 S    
C18   N3    1.437776 S    
C24   C26   1.399930 A    
C6    C12   1.544198 S    
N6    O21   1.301028 A    
O4    C2    1.293415 A    
N5    O20   1.300058 A    
C25   H10   1.079875 S    
O11   H13   0.990185 S    
C13   C18   1.414714 A    
C19   S2    1.792459 S    
N2    C25   1.359333 A    
C16   C18   1.384915 A    
O7    Zn2   1.992072 S    
C21   C22   1.403943 A    
O7    C3    1.282027 A    
C4    C9    1.416835 S    
C5    H3    1.110330 S    
O6    C4    1.276956 A    
C16   C21   1.397585 A    
C23   C25   1.399232 A    
O3    Zn2   2.014466 S    
O8    C4    1.281765 A    
C6    C8    1.542367 S    
C5    C10   1.525666 S    
C29   C30   1.407403 A    
C6    C9    1.525884 S    
S1    O10   1.504425 D    
C8    C10   1.530772 S    
O1    Zn1   2.005578 S    
C28   N5    1.428328 S    
C1    C14   1.457070 S    
C5    C7    1.542267 S    
O6    Zn2   1.984302 S    
C14   C17   1.415103 A    
C27   N6    1.428214 S    
O3    C1    1.301094 A    
O8    Zn1   1.992072 S    
C23   C30   1.408320 A    
C11   H5    1.109541 S    
C12   H6    1.110370 S    
C15   C22   1.399680 A    
C20   C22   1.390790 A    
N5    O19   1.301034 A    
C20   S1    1.786397 S    
C26   H9    1.081511 S    
C28   C30   1.421035 A    
C7    H1    1.110577 S    
N1    C28   1.374979 A    
C15   H7    1.082041 S    
C8    H2    1.110566 S    
N2    C27   1.375798 A    
C16   H8    1.083025 S    
O2    Zn2   2.005575 S    
O14   H14   0.990477 S    
C24   H12   1.081842 S    
O5    Zn1   1.984300 S    
C2    C13   1.447614 S    
N4    O18   1.301686 A    
N3    O15   1.301335 A    
S1    O11   1.676439 S    
S2    O12   1.502453 D    
C17   N4    1.436193 S    
