data_mof_unit_47528.cif
_audit_creation_date              2012-12-10T20:58:05-0500
_audit_creation_method            fapswitch 2.2
_symmetry_space_group_name_H-M    P1
_symmetry_Int_Tables_number       1
_space_group_crystal_system       triclinic
_cell_length_a                    18.201672
_cell_length_b                    18.264978
_cell_length_c                    18.38774
_cell_angle_alpha                 119.990115
_cell_angle_beta                  90.033899
_cell_angle_gamma                 119.8406
_cell_volume                      4332.34633597

loop_
_atom_site_label
_atom_site_type_symbol
_atom_type_description
_atom_site_fract_x
_atom_site_fract_y
_atom_site_fract_z
_atom_type_partial_charge
C1    C     C_R   0.356460 0.220014 0.360917 0.502745
C2    C     C_3   0.763882 0.944281 0.657235 -0.243113
C3    C     C_3   0.096759 0.691863 0.727471 -0.303463
C4    C     C_3   0.015652 0.863888 0.052567 -0.411936
C5    C     C_3   0.426547 0.495378 0.925874 -0.327165
C6    C     C_3   0.130344 0.164196 0.893541 -0.418133
C7    C     C_3   0.697329 0.897447 0.698947 0.067322
C8    C     C_R   0.640766 0.780984 0.639406 0.509271
C9    C     C_3   0.797924 0.102398 0.807030 0.079440
C10   C     C_3   0.823929 0.056055 0.846321 -0.102468
C11   C     C_3   0.813130 0.063359 0.714892 -0.271112
C12   C     C_3   0.637831 0.415797 0.199370 0.013273
C13   C     C_3   0.697838 0.418120 0.139917 -0.203158
C14   C     C_3   0.754140 0.604859 0.317525 -0.238713
C15   C     C_3   0.761986 0.470473 0.320010 0.021728
C16   C     C_3   0.346440 0.531127 0.244820 -0.260404
C17   C     C_3   0.697634 0.496757 0.300835 0.082042
C18   C     C_3   0.798714 0.499667 0.198663 0.045005
C19   C     C_3   0.818197 0.609400 0.261898 0.015142
C20   C     C_R   0.358638 0.499915 0.640119 0.498490
C21   C     C_3   0.818708 0.468613 0.256781 -0.248388
C22   C     C_R   0.436427 0.146773 0.550945 -0.118267
C23   C     C_R   0.398282 0.104414 0.462066 -0.088934
C24   C     C_R   0.321425 0.097481 0.435897 0.065270
C25   C     C_R   0.282487 0.132195 0.499361 -0.055085
C26   C     C_R   0.321394 0.175423 0.588450 -0.102326
C27   C     C_3   0.296737 0.496651 0.301859 0.076719
C28   C     C_R   0.398321 0.182641 0.614221 -0.103921
C29   C     C_R   0.227299 0.944094 0.285869 -0.170736
C30   C     C_R   0.189225 0.892089 0.194944 -0.002367
C31   C     C_R   0.198886 0.947505 0.158299 -0.008590
C32   C     C_R   0.640568 0.498264 0.359232 0.529844
C33   C     C_R   0.243796 0.055065 0.215389 -0.031357
C34   C     C_R   0.292177 0.107501 0.305698 0.026487
C35   C     C_R   0.280003 0.050502 0.341358 -0.050075
C36   C     C_R   0.233300 0.891101 0.017266 -0.120367
C37   C     C_R   0.214395 0.854023 0.927558 -0.083862
C38   C     C_3   0.194308 0.496409 0.200174 0.072646
C39   C     C_R   0.133929 0.825580 0.880333 0.158643
C40   C     C_R   0.071813 0.832406 0.923405 -0.095411
C41   C     C_R   0.087556 0.863914 0.012025 0.018369
C42   C     C_R   0.170939 0.897351 0.060559 0.083695
C43   C     C_R   0.916382 0.768043 0.680475 -0.105183
C44   C     C_R   0.641765 0.501944 0.641856 0.505292
C45   C     C_R   0.869952 0.679039 0.679275 -0.050774
C46   C     C_R   0.836066 0.680664 0.748065 0.054396
C47   C     C_R   0.851822 0.773221 0.819893 -0.109585
C48   C     C_R   0.900710 0.862978 0.822348 -0.134200
C49   C     C_3   0.213841 0.574280 0.300451 -0.227139
C50   C     C_R   0.931839 0.860058 0.752081 -0.114559
C51   C     C_R   0.839140 0.582151 0.799635 -0.167672
C52   C     C_R   0.798867 0.500107 0.808024 0.018655
C53   C     C_R   0.705944 0.421648 0.765072 -0.037871
C54   C     C_R   0.656999 0.424440 0.710547 -0.163264
C55   C     C_R   0.697757 0.505402 0.700590 0.020189
C56   C     C_R   0.357875 0.499968 0.359513 0.499940
C57   C     C_R   0.789484 0.587338 0.748008 -0.038339
C58   C     C_R   0.639170 0.238888 0.709327 -0.095731
C59   C     C_R   0.585635 0.154656 0.713545 -0.128169
C60   C     C_3   0.285774 0.528894 0.183983 -0.255348
C61   C     C_R   0.550433 0.166501 0.783100 -0.103914
C62   C     C_R   0.568795 0.262811 0.848647 -0.111217
C63   C     C_R   0.621088 0.346906 0.843821 -0.066359
C64   C     C_R   0.656472 0.335150 0.774016 0.067820
C65   C     C_R   0.351330 0.803536 0.731375 -0.128063
C66   C     C_R   0.345854 0.738309 0.753292 -0.097297
C67   C     C_R   0.285424 0.630697 0.692752 0.066779
C68   C     C_3   0.208742 0.384642 0.237101 -0.080652
C69   C     C_R   0.230924 0.589140 0.609973 -0.073697
C70   C     C_R   0.236324 0.654720 0.588512 -0.123938
C71   C     C_3   0.636533 0.937949 0.716150 0.048420
C72   C     C_R   0.296130 0.761767 0.649277 -0.114260
C73   C     C_R   0.217166 0.561245 0.776268 -0.163365
C74   C     C_R   0.194476 0.497235 0.804772 0.009709
C75   C     C_R   0.225441 0.433174 0.778194 -0.034855
C76   C     C_R   0.278612 0.435778 0.724263 -0.157118
C77   C     C_R   0.301203 0.499989 0.695502 0.014799
C78   C     C_R   0.269268 0.563062 0.721502 -0.034993
C79   C     C_R   0.264807 0.396732 0.882615 0.171809
C80   C     C_3   0.146416 0.385064 0.177827 -0.081680
C81   C     C_R   0.240061 0.330911 0.910123 -0.050789
C82   C     C_3   0.694691 0.057368 0.787683 -0.082970
C83   C     C_R   0.157880 0.233263 0.862661 0.007035
C84   C     C_R   0.100805 0.200297 0.785879 -0.098354
C85   C     C_R   0.124457 0.265036 0.757880 -0.111195
C86   C     C_R   0.205412 0.364041 0.806526 0.058702
C87   C     C_R   0.856972 0.500023 0.142388 0.508774
C88   C     C_R   0.138551 0.499430 0.861602 0.503054
C89   C     C_R   0.856633 0.219056 0.863781 0.494479
C90   C     C_R   0.137475 0.779921 0.140940 0.497156
C91   C     C_R   0.855804 0.499646 0.862042 0.500266
C92   C     C_3   0.271714 0.572560 0.359453 -0.227493
C93   C     C_3   0.752788 0.937119 0.790461 -0.250190
C94   C     C_R   0.139429 0.499657 0.142789 0.500031
C95   C     C_3   0.162008 0.333752 0.285080 -0.411169
C96   C     C_3   0.495699 0.874860 0.618139 -0.309727
C97   C     C_3   0.663703 0.083419 0.870238 -0.417551
C98   C     C_3   0.842978 0.106942 0.947083 -0.427607
C99   C     C_3   0.582373 0.229227 0.136690 -0.326139
C100  C     C_3   0.887218 0.711261 0.198158 -0.283826
C101  C     C_3   0.858567 0.505870 0.443112 -0.328318
C102  C     C_3   0.049289 0.339752 0.180648 -0.410763
C103  C     C_3   0.238590 0.112527 0.179758 -0.367239
H1    H     H_    0.320297 0.606701 0.197195 0.118019
H2    H     H_    0.788499 0.085364 0.679131 0.100710
H3    H     H_    0.426481 0.463730 0.856159 0.143786
H4    H     H_    0.428530 0.448162 0.946063 0.141770
H5    H     H_    0.180859 0.201901 0.956594 0.115133
H6    H     H_    0.065195 0.144860 0.905056 0.127522
H7    H     H_    0.122936 0.091901 0.841980 0.127390
H8    H     H_    0.885933 0.100315 0.723707 0.122680
H9    H     H_    0.787470 0.898907 0.779999 0.136982
H10   H     H_    0.888856 0.069076 0.836902 0.140324
H11   H     H_    0.599853 0.443492 0.187113 0.111849
H12   H     H_    0.686203 0.342064 0.093375 0.143424
H13   H     H_    0.680196 0.436375 0.096175 0.103952
H14   H     H_    0.707978 0.621346 0.300474 0.113577
H15   H     H_    0.139043 0.333164 0.107277 0.128706
H16   H     H_    0.719424 0.392497 0.306328 0.155510
H17   H     H_    0.333656 0.652093 0.406126 0.124791
H18   H     H_    0.804162 0.390202 0.213653 0.079078
H19   H     H_    0.891695 0.522022 0.295666 0.137017
H20   H     H_    0.793773 0.667183 0.389241 0.117650
H21   H     H_    0.887885 0.663162 0.309757 0.144269
H22   H     H_    0.428351 0.215863 0.683106 0.113009
H23   H     H_    0.495576 0.151774 0.570560 0.105869
H24   H     H_    0.428447 0.076993 0.413656 0.094646
H25   H     H_    0.222677 0.126458 0.479861 0.094339
H26   H     H_    0.291798 0.203034 0.637413 0.096697
H27   H     H_    0.218882 0.901696 0.314140 0.145054
H28   H     H_    0.250086 0.653848 0.317199 0.125013
H29   H     H_    0.297390 0.916512 0.053656 0.097925
H30   H     H_    0.263596 0.850435 0.895564 0.114153
H31   H     H_    0.010856 0.812965 0.887606 0.110405
H32   H     H_    0.968027 0.929052 0.753204 0.095930
H33   H     H_    0.234986 0.550051 0.400691 0.124778
H34   H     H_    0.941160 0.765937 0.626447 0.100058
H35   H     H_    0.859239 0.608345 0.624791 0.109425
H36   H     H_    0.827744 0.776165 0.874497 0.095916
H37   H     H_    0.913784 0.934616 0.878337 0.095056
H38   H     H_    0.909834 0.643198 0.834040 0.141638
H39   H     H_    0.586476 0.898789 0.741579 0.151859
H40   H     H_    0.586194 0.362524 0.675836 0.148145
H41   H     H_    0.665288 0.228623 0.654639 0.089338
H42   H     H_    0.570897 0.080127 0.662286 0.099081
H43   H     H_    0.508434 0.101017 0.785929 0.091870
H44   H     H_    0.541541 0.271956 0.902483 0.091917
H45   H     H_    0.150463 0.556729 0.315757 0.125152
H46   H     H_    0.633442 0.420756 0.893807 0.091157
H47   H     H_    0.299693 0.812374 0.632779 0.105030
H48   H     H_    0.397527 0.886474 0.778451 0.094568
H49   H     H_    0.386857 0.771516 0.818170 0.093070
H50   H     H_    0.681788 0.093790 0.760467 0.159833
H51   H     H_    0.182376 0.506430 0.563550 0.091169
H52   H     H_    0.192608 0.622748 0.525724 0.086164
H53   H     H_    0.193418 0.610117 0.796052 0.136581
H54   H     H_    0.302593 0.387153 0.705059 0.137232
H55   H     H_    0.284648 0.356665 0.969363 0.098631
H56   H     H_    0.408957 0.610693 0.288961 0.114004
H57   H     H_    0.037431 0.124787 0.748282 0.094259
H58   H     H_    0.078693 0.238945 0.699249 0.097434
H59   H     H_    0.366747 0.479475 0.203080 0.121127
H60   H     H_    0.275071 0.474028 0.113214 0.133769
H61   H     H_    0.706596 0.915598 0.826679 0.106245
H62   H     H_    0.104855 0.252124 0.235775 0.117149
H63   H     H_    0.208534 0.331660 0.321758 0.130331
H64   H     H_    0.137419 0.375513 0.333087 0.129129
H65   H     H_    0.624055 0.957735 0.612999 0.237178
H66   H     H_    0.468130 0.860768 0.555129 0.123760
H67   H     H_    0.489510 0.933364 0.673945 0.120804
H68   H     H_    0.455971 0.800964 0.611827 0.204312
H69   H     H_    0.650485 0.030036 0.888920 0.106222
H70   H     H_    0.712666 0.163679 0.928976 0.168079
H71   H     H_    0.599354 0.073818 0.854453 0.112918
H72   H     H_    0.814056 0.925725 0.653769 0.122940
H73   H     H_    0.893634 0.191617 0.985476 0.141828
H74   H     H_    0.782313 0.091774 0.966372 0.129518
H75   H     H_    0.871067 0.075741 0.967650 0.112932
H76   H     H_    0.504653 0.286505 0.154426 0.261198
H77   H     H_    0.537644 0.171904 0.150183 0.143301
H78   H     H_    0.652119 0.257308 0.164017 0.131736
H79   H     H_    0.563386 0.189436 0.063405 0.125327
H80   H     H_    0.748583 0.606745 0.165834 0.245127
H81   H     H_    0.877747 0.760540 0.186542 0.125160
H82   H     H_    0.895504 0.660078 0.137870 0.152264
H83   H     H_    0.229364 0.335414 0.190941 0.124072
H84   H     H_    0.949021 0.762647 0.256290 0.151150
H85   H     H_    0.867969 0.617240 0.431079 0.245895
H86   H     H_    0.912427 0.570659 0.508559 0.122279
H87   H     H_    0.888881 0.472531 0.395970 0.125819
H88   H     H_    0.805339 0.446174 0.450106 0.151957
H89   H     H_    0.048055 0.382306 0.249112 0.129809
H90   H     H_    0.009384 0.342503 0.137679 0.126421
H91   H     H_    0.014314 0.257048 0.154133 0.117376
H92   H     H_    0.179274 0.063023 0.120212 0.118004
H93   H     H_    0.230805 0.173416 0.229483 0.138259
H94   H     H_    0.728424 0.910259 0.587894 0.125425
H95   H     H_    0.299267 0.146290 0.161907 0.157634
H96   H     H_    0.071335 0.802792 0.769819 0.251188
H97   H     H_    0.034628 0.632385 0.727463 0.142599
H98   H     H_    0.153456 0.689169 0.744369 0.166607
H99   H     H_    0.086363 0.674121 0.659589 0.135635
H100  H     H_    0.034129 0.888919 0.122365 0.131279
H101  H     H_    0.002606 0.916584 0.051310 0.111837
H102  H     H_    0.952773 0.784555 0.013225 0.128186
H103  H     H_    0.350810 0.551616 0.929186 0.255613
H104  H     H_    0.487946 0.575442 0.970262 0.138926
N1    N     N_2   0.588672 0.910480 0.633141 -0.519461
N2    N     N_2   0.570287 0.312195 0.176821 -0.499985
N3    N     N_2   0.809204 0.650628 0.214439 -0.536010
N4    N     N_2   0.820920 0.543249 0.412537 -0.499496
N5    N     N_2   0.116681 0.793265 0.790379 -0.524751
N6    N     N_2   0.347902 0.496302 0.933756 -0.528881
O1    O     O_3   0.500000 0.500000 0.500000 -0.437976
O2    O     O_R   0.113800 0.731630 0.056520 -0.533176
O3    O     O_R   0.819390 0.439310 0.886160 -0.533966
O4    O     O_R   0.383400 0.268380 0.323710 -0.554003
O5    O     O_R   0.115110 0.560720 0.179280 -0.553215
O6    O     O_R   0.941380 0.560750 0.885620 -0.553336
O7    O     O_R   0.115110 0.439270 0.057830 -0.546969
O8    O     O_R   0.942690 0.268390 0.886930 -0.549780
O9    O     O_R   0.114340 0.731630 0.178520 -0.557613
O10   O     O_R   0.820160 0.439310 0.057830 -0.557923
O11   O     O_R   0.113800 0.560730 0.885620 -0.550624
O12   O     O_R   0.383400 0.560740 0.616060 -0.538492
O13   O     O_R   0.555060 0.731630 0.615290 -0.534999
O14   O     O_R   0.383950 0.439280 0.616600 -0.554655
O15   O     O_R   0.677590 0.560710 0.444390 -0.523242
O16   O     O_R   0.556370 0.439260 0.616600 -0.549689
O17   O     O_R   0.382640 0.439290 0.322940 -0.562452
O18   O     O_R   0.678360 0.560700 0.616060 -0.531820
O19   O     O_R   0.382640 0.560750 0.444390 -0.549598
O20   O     O_R   0.555060 0.439270 0.322940 -0.542743
O21   O     O_R   0.383950 0.268380 0.445700 -0.534854
O22   O     O_R   0.677590 0.731610 0.615290 -0.548038
O23   O     O_3   0.997750 0.500010 0.002220 -0.433898
O24   O     O_R   0.942690 0.560750 0.179280 -0.558111
O25   O     O_R   0.114340 0.439270 0.886160 -0.531574
O26   O     O_R   0.820160 0.268410 0.886930 -0.550265
Zn1   Zn    Zn3+2 0.456040 0.586770 0.543190 0.918239
Zn2   Zn    Zn3+2 0.456820 0.413240 0.543960 0.925383
Zn3   Zn    Zn3+2 0.631110 0.586750 0.543190 0.939252
Zn4   Zn    Zn3+2 0.456040 0.413240 0.369660 0.900506
Zn5   Zn    Zn3+2 0.041710 0.413240 0.959030 0.925014
Zn6   Zn    Zn3+2 0.866640 0.413270 0.959030 0.911646
Zn7   Zn    Zn3+2 0.040930 0.586780 0.958260 0.924480
Zn8   Zn    Zn3+2 0.041710 0.586770 0.132560 0.896693

loop_
_geom_bond_atom_site_label_1
_geom_bond_atom_site_label_2
_ccdc_geom_bond_type
C68   C80   S    
C102  H90   S    
C75   C76   A    
C87   O24   A    
C31   C42   S    
C19   N3    S    
C85   H58   S    
C41   C42   A    
C89   O26   A    
C36   C42   A    
C2    C7    S    
C14   C17   S    
C30   C90   S    
C84   H57   S    
C82   C97   S    
C4    H102  S    
C38   C49   S    
C77   C78   A    
O10   Zn6   S    
H80   N3    S    
C49   H28   S    
C56   O19   A    
C29   C30   A    
C97   H69   S    
C13   C18   S    
O1    Zn2   S    
C36   C37   A    
C25   H25   S    
C12   N2    S    
C18   C19   S    
C101  H86   S    
C50   H32   S    
C36   H29   S    
C89   O8    A    
C30   C31   A    
C53   C64   S    
C4    H101  S    
C4    C41   S    
C97   H71   S    
C18   C21   S    
O25   Zn5   S    
C94   O5    A    
C60   H60   S    
O16   Zn2   S    
O24   Zn8   S    
C34   C35   A    
C16   C60   S    
C100  N3    S    
C21   H19   S    
C10   C98   S    
C63   H46   S    
C99   H79   S    
C15   N4    S    
C27   C68   S    
C46   C47   A    
C82   H50   S    
O20   Zn4   S    
C32   O15   A    
H65   N1    S    
C96   H68   S    
C12   C17   S    
C11   H2    S    
C102  H89   S    
C73   C78   A    
C88   O11   A    
C51   C57   A    
C54   H40   S    
C98   H75   S    
C96   N1    S    
C9    C10   S    
C90   O9    A    
C9    C82   S    
C5    H3    S    
C71   C82   S    
C16   C27   S    
C48   C50   A    
C66   C67   A    
C68   H83   S    
O12   Zn1   S    
C22   C28   A    
C14   H20   S    
C16   H56   S    
C91   O6    A    
C6    H7    S    
O23   Zn8   S    
C92   H33   S    
C67   C78   S    
C103  H92   S    
C2    C11   S    
C95   H62   S    
C90   O2    A    
C81   C83   A    
C1    C34   S    
C33   C34   A    
C12   H11   S    
C32   O20   A    
C51   H38   S    
C73   C74   A    
C58   C64   A    
C7    C93   S    
C2    H94   S    
C80   H15   S    
C19   H21   S    
C59   C61   A    
C24   C35   S    
C97   H70   S    
C74   C75   A    
C48   H37   S    
C11   H8    S    
C70   H52   S    
C68   C95   S    
O23   Zn7   S    
C7    C8    S    
C100  H84   S    
O13   Zn1   S    
C84   C85   A    
C101  H87   S    
C9    C89   S    
C39   C40   A    
C79   C81   A    
C8    O13   A    
C27   C56   S    
H96   N5    S    
C4    H100  S    
C93   H9    S    
C10   C93   S    
C16   H59   S    
O3    Zn6   S    
C85   C86   A    
C40   H31   S    
C70   C72   A    
C101  N4    S    
C20   O12   A    
C51   C52   A    
C49   H45   S    
C80   C102  S    
O1    Zn4   S    
C67   C69   A    
C103  H95   S    
C87   O10   A    
C65   H48   S    
O1    Zn1   S    
C61   H43   S    
O4    Zn4   S    
O22   Zn3   S    
C66   H49   S    
C91   O3    A    
C58   H41   S    
C2    H72   S    
C5    H104  S    
C98   H73   S    
O9    Zn8   S    
C75   C86   S    
C47   C48   A    
C44   O16   A    
C79   N6    S    
C1    O21   A    
C23   C24   A    
C14   H14   S    
C88   O25   A    
C38   C94   S    
C62   C63   A    
C94   O7    A    
C3    H97   S    
O17   Zn4   S    
O6    Zn7   S    
C56   O17   A    
C27   C92   S    
C52   C53   A    
C24   C25   A    
C98   H74   S    
C9    C11   S    
C13   H12   S    
C26   H26   S    
C71   H39   S    
C38   C60   S    
C20   C77   S    
H103  N6    S    
O11   Zn7   S    
C40   C41   A    
C72   H47   S    
C96   H66   S    
C55   C57   A    
C46   C57   S    
C3    H98   S    
C6    H6    S    
C37   H30   S    
C83   C84   A    
C103  H93   S    
C49   C92   S    
C95   H63   S    
C59   H42   S    
C101  H88   S    
C28   H22   S    
C23   H24   S    
C5    H4    S    
C3    N5    S    
C15   C17   S    
C29   C35   A    
C54   C55   A    
C71   N1    S    
C31   C33   A    
C29   H27   S    
C6    C83   S    
C33   C103  S    
O23   Zn6   S    
C44   O18   A    
C22   C23   A    
O18   Zn3   S    
C18   C87   S    
O7    Zn5   S    
C95   H64   S    
O14   Zn2   S    
C1    O4    A    
C43   C50   A    
C53   C54   A    
C3    H99   S    
C92   H17   S    
C65   C72   A    
H76   N2    S    
C26   C28   A    
C69   H51   S    
C93   H61   S    
O26   Zn6   S    
C62   H44   S    
C81   H55   S    
O5    Zn8   S    
O23   Zn5   S    
C100  H82   S    
C25   C26   A    
C20   O14   A    
C99   H77   S    
C43   C45   A    
C7    C71   S    
C76   C77   A    
C44   C55   S    
C38   C80   S    
C5    N6    S    
C73   H53   S    
C14   C19   S    
C45   H35   S    
H85   N4    S    
C15   H16   S    
C39   N5    S    
C43   H34   S    
C21   H18   S    
C61   C62   A    
C100  H81   S    
C58   C59   A    
C99   H78   S    
C13   H13   S    
C22   H23   S    
O21   Zn2   S    
C63   C64   A    
C102  H91   S    
C45   C46   A    
C15   C21   S    
O15   Zn3   S    
C12   C13   S    
O2    Zn7   S    
C37   C39   A    
C65   C66   A    
C47   H36   S    
O19   Zn1   S    
C17   C32   S    
C6    H5    S    
C8    O22   A    
C52   C91   S    
C96   H67   S    
C69   C70   A    
C74   C88   S    
C60   H1    S    
C10   H10   S    
C79   C86   A    
C76   H54   S    
O1    Zn3   S    
O8    Zn5   S    
C99   N2    S    
