data_mof_unit_9711.cif
_audit_creation_date              2012-12-10T17:57:50-0500
_audit_creation_method            fapswitch 2.2
_symmetry_space_group_name_H-M    P1
_symmetry_Int_Tables_number       1
_space_group_crystal_system       triclinic
_cell_length_a                    11.028844
_cell_length_b                    9.639282
_cell_length_c                    14.963001
_cell_angle_alpha                 89.806377
_cell_angle_beta                  92.655744
_cell_angle_gamma                 89.879846
_cell_volume                      1588.99708433

loop_
_atom_site_label
_atom_site_type_symbol
_atom_type_description
_atom_site_fract_x
_atom_site_fract_y
_atom_site_fract_z
_atom_type_partial_charge
C1    C     C_R   0.262712 0.500073 0.505017 0.975706
C2    C     C_R   0.737503 0.499703 0.495858 0.963873
C3    C     C_R   0.286034 0.409959 0.038679 -0.051954
C4    C     C_R   0.719185 0.428863 0.962237 -0.067748
C5    C     C_R   0.064017 0.373210 0.512448 0.354927
C6    C     C_R   0.936902 0.625308 0.490798 0.359548
C7    C     C_R   0.937770 0.372122 0.498882 0.342192
C8    C     C_R   0.062625 0.626232 0.506691 0.353498
C9    C     C_R   0.871890 0.498786 0.492863 -0.318821
C10   C     C_R   0.128641 0.499989 0.510148 -0.312315
C11   C     C_R   0.441817 0.074162 0.432099 0.048107
C12   C     C_R   0.558987 0.925286 0.567607 0.048731
C13   C     C_R   0.556889 0.073041 0.568436 0.048021
C14   C     C_R   0.441227 0.926269 0.432246 0.050569
C15   C     C_R   0.498361 0.500280 0.329139 0.918269
C16   C     C_R   0.503263 0.499670 0.670834 0.926512
C17   C     C_R   0.612901 0.481550 0.817120 0.255226
C18   C     C_R   0.389215 0.468732 0.183820 0.204653
C19   C     C_R   0.502822 0.496447 0.767723 -0.182432
C20   C     C_R   0.497319 0.499208 0.232063 -0.155845
C21   C     C_R   0.391310 0.491631 0.808573 0.275553
C22   C     C_R   0.606557 0.516175 0.189663 0.254964
C23   C     C_R   0.388794 0.464538 0.901671 -0.028262
C24   C     C_R   0.611697 0.484697 0.097389 -0.036558
C25   C     C_R   0.500582 0.462021 0.952795 0.014299
C26   C     C_R   0.500910 0.464253 0.047079 0.039222
C27   C     C_R   0.612182 0.458492 0.910122 -0.008931
C28   C     C_R   0.390526 0.448703 0.090411 -0.010080
C29   C     C_R   0.281012 0.431749 0.945512 -0.214387
C30   C     C_R   0.722260 0.462579 0.054351 -0.241467
Cu1   Cu    Cu3+1 0.500000 0.640660 0.500000 1.119395
Cu2   Cu    Cu3+1 0.500000 0.359340 0.500000 1.100966
N1    N     N_R   0.500000 0.852070 0.500000 -0.242985
N2    N     N_R   0.500000 0.147930 0.500000 -0.242739
O1    O     O_R   0.319640 0.618740 0.499990 -0.531651
O2    O     O_R   0.680360 0.381260 0.500010 -0.538066
O3    O     O_R   0.680360 0.618740 0.500010 -0.528841
O4    O     O_R   0.319640 0.381260 0.499990 -0.533476
O5    O     O_R   0.499970 0.618800 0.370260 -0.563855
O6    O     O_R   0.500030 0.381200 0.629740 -0.588782
O7    O     O_R   0.500030 0.618800 0.629740 -0.567292
O8    O     O_R   0.499970 0.381200 0.370260 -0.591681
Cl1   Cl    Cl    0.749884 0.514529 0.762725 -0.499888
Cl2   Cl    Cl    0.252219 0.479735 0.241460 -0.504002
Cl3   Cl    Cl    0.260079 0.535898 0.740779 -0.510574
Cl4   Cl    Cl    0.728907 0.591953 0.253858 -0.499282
C31   C     C_2   0.164852 0.403937 0.895325 1.036928
O9    O     O_2   0.083665 0.490116 0.896078 -0.410548
O10   O     O_R   0.147394 0.281965 0.846218 -0.658360
H1    H     H_    0.220996 0.218749 0.850435 0.323322
C32   C     C_2   0.839583 0.459369 0.105989 1.103548
O11   O     O_2   0.913431 0.551136 0.094445 -0.406247
O12   O     O_R   0.866348 0.354470 0.168700 -0.635828
H2    H     H_    0.798827 0.283719 0.171905 0.312038
C33   C     C_2   0.195038 0.317729 0.077110 0.935200
O13   O     O_2   0.093951 0.361432 0.090404 -0.437712
O14   O     O_R   0.225049 0.179692 0.096380 -0.749090
H3    H     H_    0.155547 0.126701 0.122395 0.376827
C34   C     C_2   0.812458 0.332998 0.926096 0.967374
O15   O     O_2   0.913305 0.322068 0.962265 -0.532003
O16   O     O_R   0.781475 0.246479 0.853893 -0.723917
H4    H     H_    0.851090 0.184813 0.836479 0.390565
Cl5   Cl    Cl    0.135658 0.212844 0.541781 -0.339962
Cl6   Cl    Cl    0.867166 0.785504 0.458956 -0.319471
Cl7   Cl    Cl    0.868357 0.207418 0.481739 -0.350228
Cl8   Cl    Cl    0.130916 0.788966 0.532264 -0.324510
C35   C     C_2   0.379248 0.145696 0.356150 0.917842
O17   O     O_2   0.279127 0.197186 0.364152 -0.486302
O18   O     O_R   0.432804 0.145992 0.273355 -0.715628
H5    H     H_    0.380078 0.192388 0.224981 0.364295
C36   C     C_2   0.625876 0.852849 0.641890 0.920517
O19   O     O_2   0.726778 0.805288 0.631184 -0.485256
O20   O     O_R   0.576240 0.847434 0.726161 -0.702745
H6    H     H_    0.631982 0.800183 0.772692 0.361404
C37   C     C_2   0.608639 0.142802 0.648608 0.925278
O21   O     O_2   0.707197 0.200105 0.647575 -0.485220
O22   O     O_R   0.543826 0.139009 0.726722 -0.713297
H7    H     H_    0.585154 0.191069 0.778020 0.362838
C38   C     C_2   0.377180 0.854589 0.356773 0.920308
O23   O     O_2   0.277228 0.803916 0.365990 -0.491267
O24   O     O_R   0.429125 0.851720 0.273289 -0.692160
H8    H     H_    0.376253 0.802134 0.226311 0.359150

loop_
_geom_bond_atom_site_label_1
_geom_bond_atom_site_label_2
_ccdc_geom_bond_type
C30   C32   S    
C8    Cl8   S    
O20   H6    S    
C33   O13   D    
C14   N1    A    
O24   H8    S    
C31   O10   S    
O22   H7    S    
C29   C31   S    
C23   C29   A    
C3    C28   A    
C19   C21   A    
C24   C26   A    
C11   C14   A    
C5    Cl5   S    
C6    Cl6   S    
C3    C29   A    
C3    C33   S    
C31   O9    D    
Cu1   N1    S    
Cu2   O4    S    
C18   C20   A    
C23   C25   A    
C34   O15   D    
O16   H4    S    
C6    C9    A    
C35   O17   D    
C5    C10   A    
C11   C35   S    
C21   Cl3   S    
C15   C20   S    
C34   O16   S    
C32   O11   D    
C17   C27   A    
C13   C37   S    
C18   C28   A    
C5    C7    A    
C6    C8    A    
C25   C26   A    
O12   H2    S    
Cu1   O3    S    
C35   O18   S    
Cu2   N2    S    
C37   O21   D    
C17   Cl1   S    
C18   Cl2   S    
C7    Cl7   S    
Cu1   Cu2   S    
C14   C38   S    
C37   O22   S    
C15   O5    A    
C1    O4    A    
C16   O6    A    
C22   Cl4   S    
C12   C36   S    
C20   C22   A    
C33   O14   S    
C22   C24   A    
Cu2   O2    S    
C4    C27   A    
C1    O1    A    
C38   O24   S    
C2    O2    A    
C7    C9    A    
Cu1   O7    S    
C11   N2    A    
C1    C10   S    
C15   O8    A    
C25   C27   A    
C26   C28   A    
C21   C23   A    
C13   N2    A    
C2    O3    A    
O14   H3    S    
C16   C19   S    
C4    C34   S    
C17   C19   A    
Cu1   O5    S    
Cu1   O1    S    
Cu2   O6    S    
O18   H5    S    
C24   C30   A    
C38   O23   D    
C36   O19   D    
C12   C13   A    
C8    C10   A    
O10   H1    S    
C36   O20   S    
Cu2   O8    S    
C32   O12   S    
C12   N1    A    
C2    C9    S    
C16   O7    A    
C4    C30   A    
