data_mof_unit_27755.cif
_audit_creation_date              2012-12-10T17:07:04-0500
_audit_creation_method            fapswitch 2.2
_symmetry_space_group_name_H-M    P1
_symmetry_Int_Tables_number       1
_space_group_crystal_system       triclinic
_cell_length_a                    18.256718
_cell_length_b                    18.305266
_cell_length_c                    18.371922
_cell_angle_alpha                 119.809883
_cell_angle_beta                  120.253141
_cell_angle_gamma                 59.885628
_cell_volume                      4335.52650572

loop_
_atom_site_label
_atom_site_type_symbol
_atom_type_description
_atom_site_fract_x
_atom_site_fract_y
_atom_site_fract_z
_atom_type_partial_charge
C1    C     C_R   0.140100 0.863755 0.643457 0.801638
C2    C     C_R   0.912520 0.339066 0.966151 0.163719
C3    C     C_R   0.966701 0.284855 0.912771 -0.168080
C4    C     C_R   0.859761 0.139987 0.360120 0.778492
C5    C     C_R   0.930824 0.237818 0.823569 -0.178127
C6    C     C_R   0.672339 0.242208 0.349179 -0.173156
C7    C     C_R   0.582154 0.290050 0.342091 -0.139722
C8    C     C_R   0.527695 0.342308 0.286558 -0.163892
C9    C     C_R   0.563258 0.347854 0.238460 -0.182821
C10   C     C_R   0.654529 0.300528 0.245073 0.103126
C11   C     C_R   0.709670 0.246454 0.300682 0.094540
C12   C     C_R   0.562511 0.257393 0.667955 0.212555
C13   C     C_R   0.799938 0.196102 0.304069 -0.060073
C14   C     C_R   0.833926 0.197567 0.251826 -0.202444
C15   C     C_R   0.780250 0.251111 0.198126 -0.212072
C16   C     C_R   0.140364 0.139766 0.641618 0.789991
C17   C     C_R   0.691679 0.303508 0.195521 -0.055571
C18   C     C_R   0.928664 0.680082 0.361677 -0.206413
C19   C     C_R   0.961781 0.593828 0.363877 -0.154037
C20   C     C_R   0.908844 0.538611 0.309359 0.288811
C21   C     C_R   0.821337 0.572028 0.253820 -0.225200
C22   C     C_R   0.785785 0.660167 0.251950 0.032717
C23   C     C_R   0.654612 0.255172 0.709410 -0.011841
C24   C     C_R   0.840257 0.714820 0.306441 0.061141
C25   C     C_R   0.805530 0.802348 0.303610 -0.166227
C26   C     C_R   0.717814 0.835310 0.246751 0.169163
C27   C     C_R   0.664137 0.781007 0.192200 0.165297
C28   C     C_R   0.859939 0.860239 0.360090 0.805677
C29   C     C_R   0.697678 0.694239 0.195719 -0.166912
C30   C     C_R   0.146908 0.939383 0.836003 0.107811
C31   C     C_R   0.145758 0.964875 0.920926 -0.104341
C32   C     C_R   0.192774 0.904704 0.967155 -0.200965
C33   C     C_R   0.244059 0.818282 0.930395 -0.167286
C34   C     C_R   0.711181 0.201893 0.656527 0.043730
C35   C     C_R   0.246749 0.788821 0.844270 0.032214
C36   C     C_R   0.194803 0.848621 0.793945 0.050928
C37   C     C_R   0.197127 0.815086 0.706233 -0.089542
C38   C     C_R   0.256122 0.731047 0.675071 -0.282074
C39   C     C_R   0.311551 0.675775 0.726802 0.197402
C40   C     C_R   0.141989 0.860978 0.361125 0.833065
C41   C     C_R   0.303877 0.702232 0.809323 -0.104647
C42   C     C_R   0.343971 0.747280 0.430535 0.206926
C43   C     C_R   0.412810 0.667212 0.446736 0.233992
C44   C     C_R   0.433296 0.591436 0.375620 -0.265826
C45   C     C_R   0.692536 0.303719 0.800744 -0.143947
C46   C     C_R   0.396289 0.597588 0.291284 -0.183503
C47   C     C_R   0.330082 0.677002 0.274435 0.073747
C48   C     C_R   0.291464 0.745849 0.339823 -0.078035
C49   C     C_R   0.203776 0.808519 0.309627 -0.098852
C50   C     C_R   0.171491 0.814290 0.224149 0.093141
C51   C     C_R   0.222964 0.757441 0.168782 -0.268249
C52   C     C_R   0.860155 0.139936 0.639941 0.775693
C53   C     C_R   0.301989 0.689413 0.193670 -0.069422
C54   C     C_R   0.279190 0.113708 0.810705 -0.189959
C55   C     C_R   0.345544 0.101785 0.890918 -0.140282
C56   C     C_R   0.783968 0.298332 0.838250 0.024975
C57   C     C_R   0.398234 0.156576 0.945301 -0.136383
C58   C     C_R   0.385067 0.223513 0.919723 -0.172701
C59   C     C_R   0.319311 0.235871 0.837782 0.097154
C60   C     C_R   0.265334 0.180290 0.782551 0.097298
C61   C     C_R   0.196870 0.195335 0.702441 -0.073794
C62   C     C_R   0.180141 0.266112 0.679963 -0.203843
C63   C     C_R   0.233100 0.320013 0.733589 -0.205087
C64   C     C_R   0.675355 0.155213 0.565319 -0.181639
C65   C     C_R   0.303579 0.304312 0.810848 -0.074808
C66   C     C_R   0.640235 0.639486 0.139729 0.796709
C67   C     C_R   0.839148 0.244167 0.784883 0.071592
C68   C     C_R   0.359750 0.360151 0.861538 0.781624
C69   C     C_R   0.639425 0.359958 0.139799 0.767107
C70   C     C_R   0.359767 0.640616 0.860295 0.820520
C71   C     C_R   0.359341 0.638017 0.139262 0.788182
C72   C     C_R   0.638456 0.360052 0.858709 0.861406
C73   C     C_R   0.586973 0.157658 0.526963 -0.245894
C74   C     C_R   0.530719 0.207285 0.577521 0.115336
C75   C     C_3   0.634849 0.989318 0.310117 -0.798343
C76   C     C_3   0.026206 0.392007 0.297964 -0.805698
C77   C     C_3   0.567402 0.816526 0.055117 -0.712369
C78   C     C_R   0.802503 0.196361 0.694700 -0.116081
C79   C     C_3   0.455066 0.598714 0.705959 -0.761023
C80   C     C_3   0.351280 0.844845 0.587244 -0.598780
C81   C     C_3   0.551264 0.678490 0.568166 -0.757080
C82   C     C_3   0.443395 0.394600 0.705864 -0.753655
C83   C     C_R   0.822353 0.344948 0.929320 -0.165433
H1    H     H_    0.037006 0.278616 0.940165 0.136233
H2    H     H_    0.715286 0.116021 0.522089 0.137886
H3    H     H_    0.259409 0.707927 0.609386 0.145258
H4    H     H_    0.109343 0.033176 0.952403 0.147830
H5    H     H_    0.191826 0.926047 0.033310 0.139460
H6    H     H_    0.282945 0.775799 0.971460 0.142681
H7    H     H_    0.561766 0.120544 0.457111 0.152495
H8    H     H_    0.485355 0.530304 0.387656 0.168104
H9    H     H_    0.419513 0.539766 0.239119 0.145382
H10   H     H_    0.200921 0.766558 0.106011 0.161720
H11   H     H_    0.126917 0.278445 0.619334 0.159031
H12   H     H_    0.711898 0.201095 0.391785 0.127502
H13   H     H_    0.238188 0.071375 0.772418 0.141387
H14   H     H_    0.355230 0.050600 0.911554 0.140767
H15   H     H_    0.448776 0.147976 0.008199 0.143418
H16   H     H_    0.425593 0.266276 0.965808 0.143514
H17   H     H_    0.220388 0.373071 0.713574 0.159198
H18   H     H_    0.783362 0.386231 0.973542 0.130103
H19   H     H_    0.976085 0.196214 0.785607 0.141442
H20   H     H_    0.902831 0.157992 0.253716 0.145238
H21   H     H_    0.722777 0.946258 0.245725 0.240456
H22   H     H_    0.683048 0.993423 0.379073 0.225899
H23   H     H_    0.554204 0.285854 0.379177 0.135360
H24   H     H_    0.579845 0.970289 0.298383 0.259161
H25   H     H_    0.604937 0.056163 0.302748 0.231702
H26   H     H_    0.893611 0.419971 0.278514 0.222719
H27   H     H_    0.042947 0.325445 0.299670 0.238577
H28   H     H_    0.081544 0.418256 0.350932 0.238125
H29   H     H_    0.021526 0.383618 0.231775 0.252875
H30   H     H_    0.527596 0.794407 0.128349 0.207117
H31   H     H_    0.496020 0.849134 0.019308 0.224395
H32   H     H_    0.591104 0.747020 0.011361 0.248018
H33   H     H_    0.607806 0.854329 0.069144 0.247687
H34   H     H_    0.457469 0.378469 0.280452 0.134216
H35   H     H_    0.044492 0.005653 0.748976 0.219738
H36   H     H_    0.149341 0.009126 0.778668 0.158149
H37   H     H_    0.344759 0.556466 0.629267 0.215143
H38   H     H_    0.501167 0.531029 0.680883 0.228668
H39   H     H_    0.490230 0.629058 0.777624 0.272045
H40   H     H_    0.438838 0.640180 0.668257 0.229211
H41   H     H_    0.102224 0.921277 0.181496 0.168523
H42   H     H_    0.046668 0.849133 0.135610 0.199677
H43   H     H_    0.326773 0.885799 0.484349 0.227443
H44   H     H_    0.303566 0.911394 0.610687 0.267545
H45   H     H_    0.518481 0.388017 0.194994 0.115084
H46   H     H_    0.419542 0.843853 0.636508 0.217556
H47   H     H_    0.333192 0.793733 0.584561 0.237536
H48   H     H_    0.477309 0.607414 0.542562 0.214767
H49   H     H_    0.586182 0.682016 0.639194 0.235817
H50   H     H_    0.538892 0.742328 0.563729 0.259055
H51   H     H_    0.595585 0.622458 0.529391 0.242787
H52   H     H_    0.408103 0.231530 0.482815 0.178920
H53   H     H_    0.441154 0.142272 0.511519 0.186422
H54   H     H_    0.466148 0.272434 0.707187 0.247066
H55   H     H_    0.404230 0.432047 0.751758 0.225824
H56   H     H_    0.808232 0.252619 0.159198 0.144572
H57   H     H_    0.395800 0.387670 0.636341 0.232009
H58   H     H_    0.484337 0.433177 0.722971 0.261636
H59   H     H_    0.016424 0.375450 0.076302 0.173447
H60   H     H_    0.915179 0.455832 0.066304 0.189465
H61   H     H_    0.973341 0.718956 0.403875 0.148198
H62   H     H_    0.028802 0.570698 0.408978 0.140448
H63   H     H_    0.782006 0.527827 0.211652 0.130295
N1    N     N_2   0.680713 0.924802 0.246349 -0.286986
N2    N     N_2   0.501316 0.307754 0.715980 -0.298610
N3    N     N_3   0.948107 0.387713 0.058443 -0.478622
N4    N     N_2   0.941310 0.450980 0.312799 -0.302187
N5    N     N_2   0.574461 0.816445 0.137153 -0.286539
N6    N     N_3   0.105401 0.010072 0.799882 -0.491720
N7    N     N_2   0.373735 0.592117 0.694169 -0.315209
N8    N     N_3   0.088426 0.881270 0.195130 -0.432409
N9    N     N_2   0.348177 0.830239 0.500719 -0.300259
N10   N     N_2   0.467206 0.664211 0.534784 -0.319805
N11   N     N_3   0.439712 0.208107 0.536655 -0.478360
O1    O     O_3   0.000000 0.000000 0.500000 -0.478383
O2    O     O_R   0.323460 0.615830 0.884170 -0.651378
O3    O     O_R   0.444880 0.615840 0.176480 -0.635243
O4    O     O_R   0.055060 0.884200 0.615800 -0.640922
O5    O     O_R   0.615800 0.444940 0.884180 -0.646958
O6    O     O_R   0.323440 0.615840 0.055040 -0.647040
O7    O     O_R   0.615780 0.323500 0.884180 -0.619839
O8    O     O_R   0.615760 0.323500 0.055050 -0.639377
O9    O     O_R   0.444910 0.615830 0.884180 -0.629541
O10   O     O_R   0.615780 0.615830 0.176490 -0.636196
O11   O     O_R   0.323430 0.444950 0.884170 -0.635508
O12   O     O_R   0.055100 0.176520 0.615800 -0.629776
O13   O     O_R   0.884210 0.176520 0.444920 -0.636598
O14   O     O_R   0.176540 0.055080 0.615800 -0.675251
O15   O     O_R   0.884190 0.884200 0.323480 -0.650933
O16   O     O_R   0.176540 0.884190 0.444930 -0.654512
O17   O     O_R   0.884180 0.055090 0.615790 -0.644338
O18   O     O_R   0.055100 0.884190 0.323490 -0.609355
O19   O     O_R   0.884190 0.176530 0.615790 -0.637804
O20   O     O_R   0.884180 0.884200 0.444920 -0.634618
O21   O     O_R   0.176510 0.884190 0.615800 -0.670050
O22   O     O_R   0.884210 0.055080 0.323480 -0.635246
O23   O     O_3   0.499970 0.500030 0.999970 -0.481851
O24   O     O_R   0.615800 0.615830 0.055050 -0.645067
O25   O     O_R   0.444880 0.323510 0.884180 -0.641480
O26   O     O_R   0.615760 0.444950 0.176490 -0.640749
Zn1   Zn    Zn3+2 0.956630 0.130130 0.543370 0.964718
Zn2   Zn    Zn3+2 0.130140 0.956620 0.543380 0.913915
Zn3   Zn    Zn3+2 0.956630 0.956620 0.369870 0.970480
Zn4   Zn    Zn3+2 0.956610 0.956630 0.543370 0.954585
Zn5   Zn    Zn3+2 0.543340 0.369890 0.956600 0.966968
Zn6   Zn    Zn3+2 0.543340 0.543410 0.130100 0.957148
Zn7   Zn    Zn3+2 0.369830 0.543410 0.956590 0.957513
Zn8   Zn    Zn3+2 0.543370 0.543400 0.956600 0.950103

loop_
_geom_bond_atom_site_label_1
_geom_bond_atom_site_label_2
_ccdc_geom_bond_type
C63   C65   A    
C75   H24   S    
H52   N11   S    
C22   C29   A    
C12   C74   A    
C27   C29   A    
O24   Zn8   S    
C73   C74   A    
H30   N5    S    
H54   N2    S    
C35   C36   A    
H21   N1    S    
C5    C67   A    
O1    Zn4   S    
C77   N5    S    
C14   H20   S    
C7    C8    A    
C39   C41   A    
O22   Zn3   S    
C54   C60   A    
C25   C28   S    
C17   C69   S    
C71   O3    A    
C79   H38   S    
C12   C23   A    
O16   Zn2   S    
C26   C27   A    
C19   H62   S    
C81   N10   S    
C71   O6    A    
C66   O10   A    
C38   H3    S    
C23   C45   A    
H59   N3    S    
C36   C37   A    
C73   H7    S    
C70   O2    A    
H41   N8    S    
O23   Zn6   S    
C70   O9    A    
C40   O16   A    
C46   H9    S    
C10   C17   A    
C77   H32   S    
C40   C49   S    
C32   H5    S    
O26   Zn6   S    
O11   Zn7   S    
C39   N7    S    
O19   Zn1   S    
O9    Zn8   S    
C46   C47   A    
C4    C13   S    
C82   H57   S    
O23   Zn5   S    
C5    H19   S    
O21   Zn2   S    
C16   O12   A    
C28   O15   A    
C47   C48   A    
C45   C56   A    
O15   Zn3   S    
C8    C9    A    
C64   C73   A    
C77   H33   S    
C9    C10   A    
C52   O19   A    
C54   H13   S    
C1    C37   S    
C47   C53   A    
H43   N9    S    
C23   C34   A    
C2    N3    S    
C1    O4    A    
C59   C60   A    
C21   C22   A    
C45   C72   S    
O2    Zn7   S    
C2    C83   A    
C61   C62   A    
C67   C78   A    
C42   N9    S    
C82   H58   S    
C52   C78   S    
O1    Zn3   S    
O5    Zn8   S    
C44   C46   A    
C8    H34   S    
C15   H56   S    
O10   Zn6   S    
C79   H39   S    
C9    H45   S    
C80   H47   S    
O14   Zn2   S    
C56   C83   A    
O8    Zn5   S    
C81   H51   S    
C31   H4    S    
C24   C25   A    
C6    C11   A    
C18   C19   A    
C81   H49   S    
C42   C48   A    
C63   H17   S    
C3    C5    A    
C25   C26   A    
C79   H40   S    
C60   C61   A    
C51   C53   A    
C43   C44   A    
O12   Zn1   S    
C37   C38   A    
C33   H6    S    
O17   Zn4   S    
C79   N7    S    
C1    O21   A    
C30   N6    S    
C31   C32   A    
C76   N4    S    
C30   C31   A    
C76   H29   S    
C65   C68   S    
C68   O25   A    
C55   H14   S    
C62   C63   A    
C34   C64   A    
C50   C51   A    
C72   O7    A    
C7    H23   S    
C6    H12   S    
O25   Zn5   S    
H35   N6    S    
C44   H8    S    
C4    O13   A    
C69   O26   A    
H53   N11   S    
C68   O11   A    
C48   C49   A    
C66   O24   A    
C51   H10   S    
C75   H22   S    
C55   C57   A    
C18   C24   A    
C16   C61   S    
C4    O22   A    
C77   H31   S    
C53   C71   S    
O1    Zn2   S    
C52   O17   A    
C64   H2    S    
H42   N8    S    
C80   N9    S    
C28   O20   A    
C75   H25   S    
H36   N6    S    
C15   C17   A    
C54   C55   A    
H48   N10   S    
C27   N5    S    
C80   H46   S    
C83   H18   S    
C74   N11   S    
O13   Zn1   S    
C59   C65   A    
C58   H16   S    
O7    Zn5   S    
O23   Zn8   S    
O3    Zn6   S    
C40   O18   A    
C82   N2    S    
C81   H50   S    
C6    C7    A    
C80   H44   S    
C56   C67   A    
O20   Zn4   S    
C30   C36   A    
C75   N1    S    
C32   C33   A    
C12   N2    S    
C19   C20   A    
C62   H11   S    
C2    C3    A    
C58   C59   A    
O4    Zn4   S    
O23   Zn7   S    
C21   H63   S    
O18   Zn3   S    
C11   C13   A    
C16   O14   A    
C57   C58   A    
C38   C39   A    
C50   N8    S    
C76   H28   S    
C57   H15   S    
C18   H61   S    
H37   N7    S    
C33   C35   A    
C20   N4    S    
C82   H55   S    
H26   N4    S    
O6    Zn7   S    
C22   C24   A    
C26   N1    S    
C35   C41   A    
C69   O8    A    
C10   C11   A    
C29   C66   S    
H60   N3    S    
C20   C21   A    
C76   H27   S    
C49   C50   A    
C42   C43   A    
C3    H1    S    
C72   O5    A    
C14   C15   A    
C13   C14   A    
O1    Zn1   S    
C34   C78   A    
C43   N10   S    
C41   C70   S    
