data_mof_unit_59503.cif
_audit_creation_date              2013-03-05T15:46:29-0500
_audit_creation_method            fapswitch 2.2
_symmetry_space_group_name_H-M    P1
_symmetry_Int_Tables_number       1
_space_group_crystal_system       triclinic
_cell_length_a                    21.893688
_cell_length_b                    21.958268
_cell_length_c                    30.607133
_cell_angle_alpha                 89.566763
_cell_angle_beta                  90.547398
_cell_angle_gamma                 90.631575
_cell_volume                      14712.3272249

loop_
_atom_site_label
_atom_site_type_symbol
_atom_site_description
_atom_site_fract_x
_atom_site_fract_y
_atom_site_fract_z
_atom_type_partial_charge
O1    O     O_R   0.447800 0.090110 0.500010 -0.552345
O2    O     O_R   0.090110 0.552200 0.500010 -0.533773
O3    O     O_R   0.552200 0.909890 0.500010 -0.554131
O4    O     O_R   0.909890 0.447800 0.500010 -0.577071
O5    O     O_R   0.447800 0.909890 0.499990 -0.562271
O6    O     O_R   0.090110 0.447800 0.499990 -0.571160
O7    O     O_R   0.552200 0.090110 0.499990 -0.557296
O8    O     O_R   0.909890 0.552200 0.499990 -0.553310
O9    O     O_R   0.947800 0.590110 0.000010 -0.566027
O10   O     O_R   0.590110 0.052200 0.000010 -0.562665
O11   O     O_R   0.052200 0.409890 0.000010 -0.541564
O12   O     O_R   0.409890 0.947800 0.000010 -0.567815
O13   O     O_R   0.947800 0.409890 0.999990 -0.564694
O14   O     O_R   0.590110 0.947800 0.999990 -0.562932
O15   O     O_R   0.052200 0.590110 0.999990 -0.549226
O16   O     O_R   0.409890 0.052200 0.999990 -0.544447
C1    C     C_R   0.500763 0.119539 0.496484 0.840552
C2    C     C_R   0.119467 0.502016 0.500822 0.851378
C3    C     C_R   0.499401 0.880790 0.496460 0.876756
C4    C     C_R   0.881062 0.499547 0.504023 0.895985
C5    C     C_R   0.000502 0.619331 0.000627 0.843060
C6    C     C_R   0.619253 0.000261 0.999963 0.871364
C7    C     C_R   0.000360 0.380623 0.999023 0.827635
C8    C     C_R   0.380697 0.000386 0.000654 0.851852
O17   O     O_R   0.447790 0.999910 0.564880 -0.550793
O18   O     O_R   0.999910 0.552210 0.564880 -0.506795
O19   O     O_R   0.552210 0.000090 0.564880 -0.523894
O20   O     O_R   0.000090 0.447790 0.564880 -0.512356
O21   O     O_R   0.447790 0.000090 0.435120 -0.503827
O22   O     O_R   0.999910 0.447790 0.435120 -0.561894
O23   O     O_R   0.552210 0.999910 0.435120 -0.508965
O24   O     O_R   0.000090 0.552210 0.435120 -0.524739
O25   O     O_R   0.947790 0.499910 0.064880 -0.510543
O26   O     O_R   0.499910 0.052210 0.064880 -0.505553
O27   O     O_R   0.052210 0.500090 0.064880 -0.515876
O28   O     O_R   0.500090 0.947790 0.064880 -0.515277
O29   O     O_R   0.947790 0.500090 0.935120 -0.515485
O30   O     O_R   0.499910 0.947790 0.935120 -0.513754
O31   O     O_R   0.052210 0.499910 0.935120 -0.503461
O32   O     O_R   0.500090 0.052210 0.935120 -0.513495
C9    C     C_R   0.499635 0.994831 0.586401 0.954546
C10   C     C_R   0.001012 0.500339 0.585825 0.967046
C11   C     C_R   0.500063 0.001199 0.414046 0.934051
C12   C     C_R   0.997677 0.499711 0.413686 0.974251
C13   C     C_R   0.000689 0.500628 0.085868 0.944499
C14   C     C_R   0.499498 0.999933 0.086002 0.953567
C15   C     C_R   0.000108 0.500444 0.913721 0.938149
C16   C     C_R   0.501191 0.000360 0.914287 0.970104
Cu1   Cu    Cu3+1 0.438180 1.000000 0.500000 1.163730
Cu2   Cu    Cu3+1 1.000000 0.561820 0.500000 1.220823
Cu3   Cu    Cu3+1 0.561820 1.000000 0.500000 1.187687
Cu4   Cu    Cu3+1 1.000000 0.438180 0.500000 1.126861
Cu5   Cu    Cu3+1 0.938180 0.500000 0.000000 1.195435
Cu6   Cu    Cu3+1 0.500000 0.061820 0.000000 1.222979
Cu7   Cu    Cu3+1 0.061820 0.500000 0.000000 1.238891
Cu8   Cu    Cu3+1 0.500000 0.938180 0.000000 1.199626
C17   C     C_R   0.524363 0.053236 0.841568 0.268860
C18   C     C_R   0.055331 0.484802 0.840715 0.293598
C19   C     C_R   0.486193 0.948453 0.841880 0.286109
C20   C     C_R   0.952239 0.525030 0.838555 0.262652
C21   C     C_R   0.523820 0.951708 0.160282 0.260461
C22   C     C_R   0.060153 0.508111 0.157901 0.265139
C23   C     C_R   0.475272 0.050667 0.158893 0.272920
C24   C     C_R   0.950920 0.487546 0.160099 0.288730
C25   C     C_R   0.056788 0.514945 0.344113 0.244205
C26   C     C_R   0.555787 0.993581 0.340884 0.312225
C27   C     C_R   0.955137 0.470151 0.336384 0.284591
C28   C     C_R   0.446229 0.009995 0.340292 0.280438
C29   C     C_R   0.013070 0.448687 0.659668 0.279940
C30   C     C_R   0.530098 0.042224 0.658091 0.228874
C31   C     C_R   0.995040 0.557859 0.658086 0.297436
C32   C     C_R   0.461771 0.955492 0.663740 0.271203
C33   C     C_R   0.503260 0.001208 0.865405 -0.176064
C34   C     C_R   0.001867 0.502226 0.863878 -0.194499
C35   C     C_R   0.498731 0.000333 0.135704 -0.196225
C36   C     C_R   0.003697 0.499656 0.135218 -0.184919
C37   C     C_R   0.001140 0.497570 0.363587 -0.262533
C38   C     C_R   0.500791 0.001909 0.364678 -0.217760
C39   C     C_R   0.002817 0.502435 0.635087 -0.174422
C40   C     C_R   0.498436 0.994886 0.636748 -0.276497
C41   C     C_R   0.469219 0.957145 0.797473 -0.056483
C42   C     C_R   0.963491 0.541998 0.794105 -0.050799
C43   C     C_R   0.539122 0.045022 0.796868 -0.043188
C44   C     C_R   0.050374 0.471738 0.795198 -0.068057
C45   C     C_R   0.460580 0.041635 0.204214 -0.066567
C46   C     C_R   0.959182 0.467886 0.204213 -0.048143
C47   C     C_R   0.539997 0.963580 0.204875 -0.045036
C48   C     C_R   0.059070 0.518984 0.203562 -0.044292
C49   C     C_R   0.970636 0.451237 0.294263 -0.066463
C50   C     C_R   0.450305 0.025199 0.295218 -0.040084
C51   C     C_R   0.061550 0.517288 0.296583 -0.037051
C52   C     C_R   0.550407 0.977411 0.296029 -0.026260
C53   C     C_R   0.977901 0.552212 0.702919 -0.013503
C54   C     C_R   0.451953 0.970814 0.707671 -0.051097
C55   C     C_R   0.031578 0.456203 0.704317 -0.059499
C56   C     C_R   0.537340 0.043832 0.704510 -0.032938
C57   C     C_R   0.501398 0.003392 0.774277 -0.010135
C58   C     C_R   0.005989 0.505662 0.771875 0.003739
C59   C     C_R   0.499921 0.001949 0.227242 0.004902
C60   C     C_R   0.012188 0.489673 0.226877 0.003476
C61   C     C_R   0.015697 0.485482 0.272371 -0.025611
C62   C     C_R   0.500317 0.001683 0.272753 -0.014140
C63   C     C_R   0.005448 0.504927 0.726509 -0.001185
C64   C     C_R   0.497129 0.006188 0.728853 -0.023082
C65   C     C_R   0.420485 0.924069 0.776582 0.039813
C66   C     C_R   0.932874 0.590247 0.770694 0.071109
C67   C     C_R   0.585581 0.078494 0.774158 0.087745
C68   C     C_R   0.089619 0.430331 0.771558 0.051266
C69   C     C_R   0.412619 0.073053 0.226683 0.044202
C70   C     C_R   0.918330 0.426041 0.225627 0.044555
C71   C     C_R   0.590968 0.936837 0.227266 0.076336
C72   C     C_R   0.103796 0.555975 0.225470 0.084174
C73   C     C_R   0.931798 0.411013 0.269986 0.165315
C74   C     C_R   0.406397 0.062463 0.273200 0.105000
C75   C     C_R   0.106426 0.552868 0.272894 0.076743
C76   C     C_R   0.595029 0.941950 0.274194 0.103388
C77   C     C_R   0.939314 0.594351 0.723831 0.110152
C78   C     C_R   0.405664 0.940874 0.732693 0.159571
C79   C     C_R   0.075190 0.418665 0.726163 0.101693
C80   C     C_R   0.582881 0.080286 0.727205 0.071565
H1    H     H_    0.316887 0.206851 0.413865 0.154862
H2    H     H_    0.217727 0.709710 0.448072 0.166542
H3    H     H_    0.650991 0.795923 0.392275 0.152346
H4    H     H_    0.799034 0.346640 0.399761 0.170720
H5    H     H_    0.323626 0.793810 0.581768 0.168470
H6    H     H_    0.198511 0.341041 0.597813 0.153753
H7    H     H_    0.713549 0.216234 0.506391 0.166331
H8    H     H_    0.794491 0.638101 0.616076 0.153133
H9    H     H_    0.832356 0.704283 0.906273 0.180464
H10   H     H_    0.706586 0.170200 0.907816 0.178258
H11   H     H_    0.171194 0.292529 0.905717 0.168240
H12   H     H_    0.293382 0.851337 0.894047 0.161477
H13   H     H_    0.858811 0.292815 0.111736 0.157193
H14   H     H_    0.703705 0.832163 0.093851 0.178439
H15   H     H_    0.179756 0.709456 0.086840 0.166927
H16   H     H_    0.294127 0.182650 0.080084 0.177253
C81   C     C_R   0.617308 0.198430 0.506667 0.326752
C82   C     C_R   0.192814 0.421589 0.558982 0.354210
C83   C     C_R   0.405769 0.804117 0.545948 0.349712
C84   C     C_R   0.806512 0.574394 0.565348 0.353067
C85   C     C_R   0.581211 0.806547 0.438741 0.341320
C86   C     C_R   0.199242 0.622334 0.476315 0.361551
C87   C     C_R   0.401733 0.195064 0.448239 0.334769
C88   C     C_R   0.806571 0.419642 0.444684 0.357143
C89   C     C_R   0.095123 0.695679 0.051576 0.353184
C90   C     C_R   0.693526 0.913507 0.055281 0.351955
C91   C     C_R   0.927376 0.304802 0.062602 0.357269
C92   C     C_R   0.305438 0.096706 0.048556 0.349297
C93   C     C_R   0.092572 0.305007 0.946134 0.340024
C94   C     C_R   0.694833 0.088317 0.945877 0.355359
C95   C     C_R   0.913417 0.693647 0.945473 0.355340
C96   C     C_R   0.304997 0.924213 0.939537 0.361358
C97   C     C_R   0.668816 0.236842 0.505081 -0.245539
C98   C     C_R   0.223411 0.370711 0.575457 -0.191053
C99   C     C_R   0.356008 0.770521 0.561664 -0.183297
C100  C     C_R   0.772552 0.616288 0.588728 -0.183870
C101  C     C_R   0.624620 0.772466 0.416856 -0.174866
C102  C     C_R   0.236695 0.665446 0.455270 -0.189860
C103  C     C_R   0.351735 0.229481 0.433461 -0.195901
C104  C     C_R   0.774511 0.372934 0.423592 -0.182881
C105  C     C_R   0.144311 0.730793 0.067318 -0.208868
C106  C     C_R   0.726147 0.863832 0.071805 -0.231559
C107  C     C_R   0.883903 0.271025 0.085946 -0.192971
C108  C     C_R   0.271406 0.146367 0.062283 -0.238384
C109  C     C_R   0.137083 0.270113 0.926070 -0.199336
C110  C     C_R   0.728614 0.137901 0.929577 -0.230984
C111  C     C_R   0.864133 0.726584 0.928403 -0.235503
C112  C     C_R   0.271655 0.877968 0.918952 -0.201439
C113  C     C_R   0.662821 0.293696 0.524274 0.124877
C114  C     C_R   0.284596 0.361215 0.565969 0.083742
C115  C     C_R   0.352391 0.707710 0.556509 0.095835
C116  C     C_R   0.711264 0.626568 0.579300 0.083747
C117  C     C_R   0.632018 0.710524 0.424759 0.084261
C118  C     C_R   0.296708 0.653600 0.444888 0.081536
C119  C     C_R   0.347930 0.291726 0.441022 0.084579
C120  C     C_R   0.711768 0.365392 0.429379 0.077381
C121  C     C_R   0.147106 0.792991 0.060589 0.076760
C122  C     C_R   0.787987 0.857573 0.063628 0.078863
C123  C     C_R   0.873857 0.209919 0.077847 0.075835
C124  C     C_R   0.208645 0.147373 0.057102 0.077914
C125  C     C_R   0.138247 0.207829 0.931293 0.068281
C126  C     C_R   0.790884 0.143479 0.937845 0.080092
C127  C     C_R   0.858821 0.788534 0.935730 0.073526
C128  C     C_R   0.210946 0.867187 0.928684 0.081694
C129  C     C_R   0.605046 0.319487 0.523795 -0.208839
C130  C     C_R   0.314669 0.404656 0.540025 -0.220339
C131  C     C_R   0.399792 0.679781 0.534502 -0.209202
C132  C     C_R   0.683474 0.590652 0.547378 -0.203693
C133  C     C_R   0.593354 0.682806 0.455015 -0.208851
C134  C     C_R   0.321144 0.599298 0.459563 -0.238225
C135  C     C_R   0.396497 0.318917 0.464027 -0.223902
C136  C     C_R   0.682085 0.407102 0.455963 -0.207503
C137  C     C_R   0.099602 0.820381 0.037857 -0.196938
C138  C     C_R   0.816835 0.901702 0.038260 -0.188625
C139  C     C_R   0.909215 0.182278 0.046272 -0.191640
C140  C     C_R   0.180550 0.099203 0.035645 -0.187152
C141  C     C_R   0.094359 0.180264 0.957334 -0.198791
C142  C     C_R   0.818842 0.098914 0.963168 -0.182682
C143  C     C_R   0.902532 0.816840 0.961755 -0.189287
C144  C     C_R   0.182683 0.905531 0.957987 -0.191113
C145  C     C_R   0.553703 0.286883 0.506844 0.021111
C146  C     C_R   0.283853 0.456300 0.522219 0.005660
C147  C     C_R   0.449812 0.713511 0.516800 -0.005650
C148  C     C_R   0.715408 0.543466 0.526036 0.011849
C149  C     C_R   0.545153 0.715139 0.475216 0.013081
C150  C     C_R   0.286167 0.554021 0.482010 0.002018
C151  C     C_R   0.448500 0.285556 0.479180 0.006053
C152  C     C_R   0.714569 0.454113 0.478312 0.000387
C153  C     C_R   0.049509 0.786119 0.020491 0.003843
C154  C     C_R   0.784670 0.951990 0.020562 -0.005948
C155  C     C_R   0.956481 0.214744 0.023983 -0.001454
C156  C     C_R   0.214253 0.049381 0.019402 -0.002209
C157  C     C_R   0.046959 0.214150 0.977241 0.003999
C158  C     C_R   0.785607 0.048348 0.980044 -0.002504
C159  C     C_R   0.952612 0.784578 0.979926 -0.003834
C160  C     C_R   0.214887 0.954737 0.977798 -0.009323
C161  C     C_R   0.558258 0.223603 0.499489 -0.010486
C162  C     C_R   0.220585 0.462300 0.528610 -0.055517
C163  C     C_R   0.450837 0.777643 0.518900 -0.026121
C164  C     C_R   0.779280 0.538798 0.531615 -0.047603
C165  C     C_R   0.541262 0.779150 0.470069 -0.057706
C166  C     C_R   0.222154 0.561923 0.488116 -0.029097
C167  C     C_R   0.450970 0.221530 0.473082 -0.040688
C168  C     C_R   0.778749 0.456974 0.476220 -0.044112
C169  C     C_R   0.048358 0.721712 0.024177 -0.045153
C170  C     C_R   0.720769 0.955612 0.025331 -0.033231
C171  C     C_R   0.962017 0.278485 0.028458 -0.051909
C172  C     C_R   0.278728 0.048978 0.022867 -0.029151
C173  C     C_R   0.046833 0.278687 0.974231 -0.053768
C174  C     C_R   0.721494 0.045560 0.975467 -0.034031
C175  C     C_R   0.956108 0.720771 0.975385 -0.031052
C176  C     C_R   0.278576 0.960430 0.972693 -0.045472
C177  C     C_R   0.498482 0.316374 0.498679 -0.093939
C178  C     C_R   0.315731 0.502076 0.499336 -0.095302
C179  C     C_R   0.499432 0.683489 0.498386 -0.101445
C180  C     C_R   0.683775 0.499630 0.501012 -0.104271
C181  C     C_R   0.000348 0.816304 0.000605 -0.105420
C182  C     C_R   0.816258 0.999720 0.999857 -0.104583
C183  C     C_R   0.999850 0.183558 0.999545 -0.107184
C184  C     C_R   0.183600 0.999882 0.000272 -0.108712
C185  C     C_R   0.503321 0.188377 0.489674 -0.159501
C186  C     C_R   0.187762 0.509766 0.506310 -0.133565
C187  C     C_R   0.497386 0.812012 0.495382 -0.151799
C188  C     C_R   0.812427 0.498367 0.504134 -0.139684
C189  C     C_R   0.001775 0.687704 0.000190 -0.150157
C190  C     C_R   0.687648 0.000608 0.000282 -0.138495
C191  C     C_R   0.002670 0.312170 0.999997 -0.155764
C192  C     C_R   0.312237 0.002743 0.999502 -0.150264
H17   H     H_    0.600969 0.364862 0.536641 0.155357
H18   H     H_    0.362906 0.397819 0.534744 0.147415
H19   H     H_    0.396864 0.630840 0.531854 0.155427
H20   H     H_    0.635772 0.599058 0.540482 0.150420
H21   H     H_    0.600368 0.634793 0.461208 0.150651
H22   H     H_    0.369140 0.594420 0.453414 0.174673
H23   H     H_    0.393787 0.367556 0.468602 0.145545
H24   H     H_    0.633117 0.401596 0.458785 0.163457
H25   H     H_    0.102495 0.869261 0.034218 0.149615
H26   H     H_    0.865177 0.896636 0.033307 0.145434
H27   H     H_    0.900505 0.134554 0.040282 0.150304
H28   H     H_    0.131680 0.101810 0.031687 0.151064
H29   H     H_    0.098000 0.131537 0.961393 0.159949
H30   H     H_    0.867292 0.103927 0.968968 0.142250
H31   H     H_    0.897461 0.865080 0.966566 0.145828
H32   H     H_    0.134758 0.897590 0.964028 0.145676
O33   O     O_R   0.409850 0.499950 0.462440 -0.594687
O34   O     O_R   0.499950 0.590150 0.462440 -0.594529
O35   O     O_R   0.590150 0.500050 0.462440 -0.588615
O36   O     O_R   0.500050 0.409850 0.462440 -0.586680
O37   O     O_R   0.409850 0.500050 0.537560 -0.583698
O38   O     O_R   0.499950 0.409850 0.537560 -0.586328
O39   O     O_R   0.590150 0.499950 0.537560 -0.587833
O40   O     O_R   0.500050 0.590150 0.537560 -0.584298
O41   O     O_R   0.909850 0.999950 0.962440 -0.598882
O42   O     O_R   0.999950 0.090150 0.962440 -0.600360
O43   O     O_R   0.090150 0.000050 0.962440 -0.586659
O44   O     O_R   0.000050 0.909850 0.962440 -0.589091
O45   O     O_R   0.909850 0.000050 0.037560 -0.590233
O46   O     O_R   0.999950 0.909850 0.037560 -0.599513
O47   O     O_R   0.090150 0.999950 0.037560 -0.592956
O48   O     O_R   0.000050 0.090150 0.037560 -0.593724
C193  C     C_R   0.382022 0.500218 0.499715 0.750798
C194  C     C_R   0.500525 0.617727 0.499726 0.756144
C195  C     C_R   0.617818 0.499915 0.500210 0.756671
C196  C     C_R   0.498473 0.382248 0.499971 0.755713
C197  C     C_R   0.882225 0.999546 0.999886 0.761216
C198  C     C_R   0.998843 0.117709 0.999847 0.755150
C199  C     C_R   0.117708 0.998643 0.000155 0.763269
C200  C     C_R   0.999907 0.882244 0.000172 0.756347
Cu9   Cu    Cu3+1 0.500000 0.500000 0.455560 0.942228
Cu10  Cu    Cu3+1 0.500000 0.500000 0.544440 0.955108
Cu11  Cu    Cu3+1 1.000000 0.000000 0.955560 0.914051
Cu12  Cu    Cu3+1 0.000000 1.000000 0.044440 0.913178
N1    N     N_R   0.510638 0.113723 0.856924 0.178229
O49   O     O_R   0.544587 0.160577 0.847261 -0.347576
O50   O     O_R   0.456745 0.123577 0.872883 -0.310867
N2    N     N_R   0.113438 0.503257 0.858409 0.127736
O51   O     O_R   0.148058 0.465262 0.879426 -0.288540
O52   O     O_R   0.128717 0.560539 0.857727 -0.339585
N3    N     N_R   0.514203 0.891922 0.854700 0.137191
O53   O     O_R   0.482615 0.847196 0.871297 -0.311904
O54   O     O_R   0.573427 0.889439 0.856803 -0.334444
N4    N     N_R   0.890823 0.509860 0.852494 0.171153
O55   O     O_R   0.846433 0.548548 0.849700 -0.337985
O56   O     O_R   0.878910 0.454214 0.865073 -0.333111
N5    N     N_R   0.511935 0.889755 0.146549 0.176627
O57   O     O_R   0.549365 0.845810 0.154742 -0.345063
O58   O     O_R   0.458361 0.876395 0.129993 -0.328491
N6    N     N_R   0.114914 0.482343 0.141004 0.148143
O59   O     O_R   0.152296 0.514815 0.117400 -0.283531
O60   O     O_R   0.133044 0.430175 0.156017 -0.341254
N7    N     N_R   0.491301 0.110974 0.143827 0.153459
O61   O     O_R   0.450158 0.150264 0.132619 -0.318918
O62   O     O_R   0.548480 0.124812 0.137942 -0.326336
N8    N     N_R   0.894903 0.516880 0.147649 0.120072
O63   O     O_R   0.854010 0.489503 0.123540 -0.303987
O64   O     O_R   0.889799 0.574871 0.154230 -0.347744
N9    N     N_R   0.107077 0.528347 0.372668 0.076202
O65   O     O_R   0.143507 0.485081 0.385307 -0.420066
O66   O     O_R   0.110334 0.581204 0.391467 -0.355749
N10   N     N_R   0.611892 0.023858 0.354302 0.112711
O67   O     O_R   0.640763 0.009226 0.389828 -0.314296
O68   O     O_R   0.632982 0.068611 0.330673 -0.397006
N11   N     N_R   0.891889 0.485331 0.341031 0.200682
O69   O     O_R   0.876275 0.542111 0.338074 -0.337624
O70   O     O_R   0.849461 0.443748 0.337476 -0.358465
N12   N     N_R   0.389459 0.985702 0.355808 0.118369
O71   O     O_R   0.359877 0.012148 0.386864 -0.298041
O72   O     O_R   0.366619 0.936940 0.338358 -0.396586
N13   N     N_R   0.981592 0.393096 0.647174 0.133994
O73   O     O_R   0.010106 0.348588 0.629200 -0.332965
O74   O     O_R   0.922257 0.391332 0.648589 -0.343945
N14   N     N_R   0.551085 0.090455 0.631767 0.103650
O75   O     O_R   0.514725 0.135307 0.622674 -0.358628
O76   O     O_R   0.598950 0.081112 0.608640 -0.297285
N15   N     N_R   0.029992 0.611728 0.646812 0.113665
O77   O     O_R   0.022914 0.640003 0.609506 -0.300986
O78   O     O_R   0.065472 0.637149 0.676427 -0.389169
N16   N     N_R   0.455769 0.891649 0.655464 0.195855
O79   O     O_R   0.502245 0.856901 0.664481 -0.333943
O80   O     O_R   0.401963 0.866257 0.652364 -0.361853
C201  C     C_3   0.387971 0.872374 0.802081 -0.334495
C202  C     C_3   0.338322 0.831796 0.780476 -0.450154
C203  C     C_3   0.325034 0.773935 0.807200 -0.762672
H33   H     H_    0.367520 0.747647 0.813019 0.274471
H34   H     H_    0.304358 0.784765 0.839023 0.246474
H35   H     H_    0.292212 0.744564 0.788794 0.246759
H36   H     H_    0.294495 0.856510 0.777245 0.215937
H37   H     H_    0.354643 0.815838 0.748449 0.256305
H38   H     H_    0.424506 0.839805 0.809469 0.267039
H39   H     H_    0.369560 0.890770 0.832928 0.246839
C204  C     C_3   0.895518 0.636632 0.796309 -0.313855
C205  C     C_3   0.901696 0.704888 0.783972 -0.397457
C206  C     C_3   0.871428 0.745004 0.817893 -0.844212
H40   H     H_    0.826112 0.725520 0.827621 0.263062
H41   H     H_    0.902062 0.749705 0.846854 0.272705
H42   H     H_    0.863366 0.790901 0.803368 0.243690
H43   H     H_    0.950702 0.719720 0.780044 0.238239
H44   H     H_    0.874645 0.713828 0.754117 0.247221
H45   H     H_    0.846220 0.623616 0.793005 0.225654
H46   H     H_    0.910187 0.634247 0.831183 0.277305
C207  C     C_3   0.637637 0.110349 0.800451 -0.312726
C208  C     C_3   0.704369 0.096737 0.787666 -0.414447
C209  C     C_3   0.750557 0.112927 0.823419 -0.832374
H47   H     H_    0.743071 0.160275 0.834735 0.260484
H48   H     H_    0.747314 0.079910 0.850931 0.278077
H49   H     H_    0.797513 0.111234 0.809783 0.236811
H50   H     H_    0.709567 0.048072 0.779003 0.238902
H51   H     H_    0.718818 0.126758 0.760461 0.231984
H52   H     H_    0.631487 0.160388 0.798248 0.220164
H53   H     H_    0.634261 0.096863 0.835213 0.277742
C210  C     C_3   0.142935 0.400783 0.797672 -0.326925
C211  C     C_3   0.192769 0.359757 0.778219 -0.439758
C212  C     C_3   0.235621 0.334147 0.813846 -0.767741
H54   H     H_    0.254815 0.370852 0.835288 0.283236
H55   H     H_    0.210791 0.299154 0.833759 0.237544
H56   H     H_    0.274205 0.310563 0.797923 0.244250
H57   H     H_    0.173357 0.319153 0.762100 0.243152
H58   H     H_    0.221660 0.387040 0.755212 0.230990
H59   H     H_    0.171098 0.439681 0.808775 0.256761
H60   H     H_    0.122806 0.375962 0.825920 0.250728
C213  C     C_3   0.373384 0.118462 0.199921 -0.318015
C214  C     C_3   0.307838 0.138339 0.211982 -0.399112
C215  C     C_3   0.276303 0.170092 0.173438 -0.843545
H61   H     H_    0.306187 0.206374 0.159204 0.279482
H62   H     H_    0.263867 0.135698 0.148341 0.263137
H63   H     H_    0.233413 0.191299 0.184865 0.246106
H64   H     H_    0.277830 0.098450 0.219332 0.239050
H65   H     H_    0.308926 0.173471 0.238121 0.236339
H66   H     H_    0.400734 0.161367 0.198084 0.240251
H67   H     H_    0.367360 0.097619 0.167101 0.271609
C216  C     C_3   0.864490 0.398347 0.198843 -0.332287
C217  C     C_3   0.816557 0.354291 0.219307 -0.450724
C218  C     C_3   0.763141 0.341497 0.187856 -0.756557
H68   H     H_    0.741211 0.384771 0.177265 0.276474
H69   H     H_    0.779044 0.316268 0.158785 0.248506
H70   H     H_    0.728312 0.312533 0.204796 0.244031
H71   H     H_    0.836012 0.308840 0.226636 0.216286
H72   H     H_    0.796709 0.375204 0.248884 0.252720
H73   H     H_    0.836591 0.437690 0.188992 0.265496
H74   H     H_    0.883340 0.376498 0.169268 0.241000
C219  C     C_3   0.640670 0.905103 0.200664 -0.320849
C220  C     C_3   0.707673 0.921983 0.211532 -0.397990
C221  C     C_3   0.752411 0.905392 0.175440 -0.823083
H75   H     H_    0.743352 0.857551 0.164439 0.258657
H76   H     H_    0.748627 0.938469 0.147704 0.277782
H77   H     H_    0.800192 0.907569 0.188811 0.234048
H78   H     H_    0.713375 0.971445 0.219650 0.240977
H79   H     H_    0.721624 0.892159 0.238716 0.246756
H80   H     H_    0.635135 0.854790 0.204666 0.216802
H81   H     H_    0.634624 0.917125 0.165737 0.281494
C222  C     C_3   0.131347 0.610429 0.198259 -0.336202
C223  C     C_3   0.197222 0.634924 0.207791 -0.378198
C224  C     C_3   0.221784 0.676585 0.171744 -0.804181
H82   H     H_    0.232154 0.650047 0.142005 0.285560
H83   H     H_    0.188214 0.712877 0.164265 0.244408
H84   H     H_    0.264777 0.699187 0.183371 0.245958
H85   H     H_    0.197326 0.665333 0.236629 0.228075
H86   H     H_    0.229747 0.596551 0.212353 0.244653
H87   H     H_    0.131634 0.598514 0.163235 0.281064
H88   H     H_    0.098710 0.649393 0.200275 0.185186
C225  C     C_3   0.911833 0.349438 0.289387 -0.382600
C226  C     C_3   0.949569 0.322868 0.327545 -0.321746
C227  C     C_3   0.913788 0.270755 0.349746 -0.781149
H89   H     H_    0.869101 0.287272 0.361842 0.253344
H90   H     H_    0.904520 0.233089 0.326391 0.234922
H91   H     H_    0.940282 0.252580 0.378005 0.248445
H92   H     H_    0.993405 0.304725 0.315026 0.201547
H93   H     H_    0.960905 0.357331 0.352444 0.266086
H94   H     H_    0.863289 0.350826 0.298959 0.236945
H95   H     H_    0.917157 0.315137 0.263392 0.179209
C228  C     C_3   0.365754 0.102303 0.301192 -0.354413
C229  C     C_3   0.299413 0.078512 0.307182 -0.258342
C230  C     C_3   0.256568 0.130043 0.320350 -0.847271
H96   H     H_    0.278594 0.159298 0.345737 0.256136
H97   H     H_    0.243866 0.158812 0.291752 0.240415
H98   H     H_    0.214208 0.110233 0.334624 0.251413
H99   H     H_    0.282009 0.052665 0.278683 0.194198
H100  H     H_    0.296312 0.043734 0.333070 0.283303
H101  H     H_    0.385696 0.108005 0.334203 0.246810
H102  H     H_    0.368430 0.149756 0.289342 0.181843
C231  C     C_3   0.154319 0.590353 0.297086 -0.324902
C232  C     C_3   0.130533 0.654243 0.308729 -0.293890
C233  C     C_3   0.179028 0.690434 0.333987 -0.802722
H103  H     H_    0.193837 0.664338 0.363427 0.287477
H104  H     H_    0.219501 0.699333 0.313124 0.234210
H105  H     H_    0.160112 0.734775 0.344459 0.245168
H106  H     H_    0.117222 0.680280 0.278858 0.195637
H107  H     H_    0.088469 0.650383 0.328711 0.261148
H108  H     H_    0.174476 0.566753 0.325256 0.245036
H109  H     H_    0.197792 0.591005 0.279895 0.156879
C234  C     C_3   0.632863 0.895710 0.300835 -0.388769
C235  C     C_3   0.696609 0.918325 0.317002 -0.277008
C236  C     C_3   0.741271 0.865536 0.324617 -0.876582
H110  H     H_    0.725966 0.837341 0.352630 0.252551
H111  H     H_    0.745790 0.835427 0.295813 0.245116
H112  H     H_    0.787234 0.884210 0.333022 0.257863
H113  H     H_    0.716515 0.953514 0.294787 0.214364
H114  H     H_    0.693571 0.940680 0.348833 0.295858
H115  H     H_    0.606519 0.880262 0.329824 0.239919
H116  H     H_    0.637780 0.853440 0.281428 0.191346
C237  C     C_3   0.893733 0.630260 0.695672 -0.405429
C238  C     C_3   0.918076 0.692867 0.679138 -0.265827
C239  C     C_3   0.867331 0.737010 0.664989 -0.867059
H117  H     H_    0.845268 0.720909 0.634199 0.260609
H118  H     H_    0.831442 0.742897 0.690316 0.240071
H119  H     H_    0.888320 0.782599 0.658139 0.256424
H120  H     H_    0.948461 0.714870 0.703851 0.216114
H121  H     H_    0.945922 0.686486 0.649960 0.300286
H122  H     H_    0.880628 0.602466 0.666929 0.244558
H123  H     H_    0.849620 0.634341 0.712889 0.186550
C240  C     C_3   0.339665 0.934263 0.715353 -0.366820
C241  C     C_3   0.318714 0.977849 0.678298 -0.327621
C242  C     C_3   0.270542 0.947489 0.648820 -0.752652
H124  H     H_    0.289285 0.906128 0.633340 0.294457
H125  H     H_    0.229593 0.934209 0.667931 0.231389
H126  H     H_    0.256776 0.979444 0.622363 0.243469
H127  H     H_    0.298444 0.018991 0.692949 0.200342
H128  H     H_    0.356062 0.993763 0.657054 0.239203
H129  H     H_    0.330413 0.887092 0.705152 0.236611
H130  H     H_    0.308304 0.942939 0.742792 0.170107
C243  C     C_3   0.109047 0.372521 0.698697 -0.344940
C244  C     C_3   0.085387 0.306938 0.706525 -0.306565
C245  C     C_3   0.124017 0.261349 0.681536 -0.822356
H131  H     H_    0.129086 0.275832 0.646826 0.274929
H132  H     H_    0.170266 0.258113 0.696649 0.231343
H133  H     H_    0.101722 0.215597 0.682420 0.248480
H134  H     H_    0.084286 0.294721 0.741734 0.198006
H135  H     H_    0.037188 0.302423 0.695854 0.269691
H136  H     H_    0.105184 0.382987 0.663455 0.261101
H137  H     H_    0.158822 0.377621 0.702223 0.176107
C246  C     C_3   0.627340 0.122314 0.702746 -0.332869
C247  C     C_3   0.680903 0.088000 0.681450 -0.301988
C248  C     C_3   0.719152 0.130792 0.652813 -0.736496
H138  H     H_    0.690612 0.151616 0.626987 0.321670
H139  H     H_    0.739619 0.167899 0.672801 0.220321
H140  H     H_    0.756174 0.105204 0.636894 0.242471
H141  H     H_    0.711820 0.067162 0.705693 0.181483
H142  H     H_    0.664773 0.048278 0.662443 0.257779
H143  H     H_    0.603136 0.151737 0.679192 0.255624
H144  H     H_    0.644976 0.159061 0.723750 0.164211
N17   N     N_R   0.622651 0.159332 0.543071 0.169121
O81   O     O_R   0.607522 0.183794 0.579793 -0.334418
O82   O     O_R   0.664013 0.117182 0.542578 -0.348728
N18   N     N_R   0.135451 0.433425 0.578441 0.071731
O83   O     O_R   0.130862 0.479568 0.604496 -0.447334
O84   O     O_R   0.096167 0.389316 0.579453 -0.345043
N19   N     N_R   0.417445 0.859800 0.567127 0.151114
O85   O     O_R   0.473358 0.872416 0.578569 -0.388216
O86   O     O_R   0.374406 0.899857 0.571156 -0.363237
N20   N     N_R   0.865984 0.562942 0.581653 0.058379
O87   O     O_R   0.874737 0.512820 0.603485 -0.427894
O88   O     O_R   0.902486 0.609216 0.587586 -0.373569
N21   N     N_R   0.575917 0.867840 0.423995 0.083230
O89   O     O_R   0.533942 0.879979 0.395283 -0.462558
O90   O     O_R   0.624612 0.902111 0.426754 -0.329731
N22   N     N_R   0.141768 0.647026 0.488764 0.135490
O91   O     O_R   0.100491 0.654721 0.458472 -0.292831
O92   O     O_R   0.139885 0.682085 0.522650 -0.376637
N23   N     N_R   0.403246 0.134525 0.432456 0.114916
O93   O     O_R   0.443261 0.120141 0.403643 -0.449860
O94   O     O_R   0.356024 0.099501 0.439610 -0.316856
N24   N     N_R   0.862632 0.437075 0.425973 0.131919
O95   O     O_R   0.873571 0.494769 0.419717 -0.383816
O96   O     O_R   0.900144 0.395932 0.412667 -0.400331
N25   N     N_R   0.092016 0.635395 0.068416 0.103303
O97   O     O_R   0.053865 0.623011 0.099367 -0.448881
O98   O     O_R   0.138530 0.600379 0.062089 -0.304664
N26   N     N_R   0.636314 0.924519 0.074973 0.084584
O99   O     O_R   0.627769 0.975649 0.094984 -0.453867
O100  O     O_R   0.597178 0.879970 0.078522 -0.304587
N27   N     N_R   0.939307 0.364018 0.078637 0.074589
O101  O     O_R   0.986193 0.371932 0.104075 -0.438362
O102  O     O_R   0.892601 0.399395 0.081551 -0.328721
N28   N     N_R   0.364741 0.093211 0.066584 0.115161
O103  O     O_R   0.378511 0.048057 0.092300 -0.455477
O104  O     O_R   0.403872 0.136684 0.058492 -0.280382
N29   N     N_R   0.094583 0.366801 0.934177 0.119630
O105  O     O_R   0.060590 0.384426 0.901683 -0.436520
O106  O     O_R   0.142187 0.398712 0.946123 -0.286832
N30   N     N_R   0.637224 0.077339 0.925795 0.078117
O107  O     O_R   0.628749 0.027506 0.903831 -0.453716
O108  O     O_R   0.598766 0.121701 0.922383 -0.312543
N31   N     N_R   0.923783 0.636319 0.925912 0.091038
O109  O     O_R   0.973071 0.628480 0.903486 -0.446996
O110  O     O_R   0.879029 0.597038 0.923910 -0.299289
N32   N     N_R   0.363256 0.937120 0.922005 0.070005
O111  O     O_R   0.370524 0.985673 0.898010 -0.434845
O112  O     O_R   0.400214 0.891798 0.918278 -0.329814
C249  C     C_3   0.714674 0.322290 0.550480 -0.382871
C250  C     C_3   0.734477 0.280002 0.588462 -0.361081
C251  C     C_3   0.777884 0.311876 0.620549 -0.728928
H145  H     H_    0.817160 0.333045 0.603104 0.290352
H146  H     H_    0.753273 0.347419 0.638930 0.257686
H147  H     H_    0.795704 0.277929 0.644497 0.239890
H148  H     H_    0.693736 0.263623 0.606812 0.258186
H149  H     H_    0.757938 0.239562 0.575222 0.228807
H150  H     H_    0.754049 0.332126 0.528841 0.198131
H151  H     H_    0.699769 0.366281 0.564560 0.207466
C252  C     C_3   0.320640 0.308273 0.585232 -0.370327
C253  C     C_3   0.282673 0.262906 0.612978 -0.383237
C254  C     C_3   0.320863 0.209367 0.629536 -0.769946
H152  H     H_    0.340026 0.183644 0.601754 0.264938
H153  H     H_    0.358539 0.225756 0.651320 0.264004
H154  H     H_    0.291099 0.177813 0.648718 0.231667
H155  H     H_    0.263989 0.286895 0.641813 0.217481
H156  H     H_    0.244059 0.244459 0.592855 0.228072
H157  H     H_    0.341848 0.283126 0.557984 0.210293
H158  H     H_    0.357991 0.327304 0.606079 0.210254
C255  C     C_3   0.302708 0.667736 0.577319 -0.380199
C256  C     C_3   0.252824 0.702136 0.602749 -0.397849
C257  C     C_3   0.203528 0.658823 0.621735 -0.607139
H159  H     H_    0.179383 0.633412 0.595073 0.289145
H160  H     H_    0.224680 0.626172 0.645580 0.236171
H161  H     H_    0.168725 0.685586 0.639804 0.269685
H162  H     H_    0.274879 0.727312 0.630574 0.221211
H163  H     H_    0.229750 0.734951 0.579952 0.252217
H164  H     H_    0.280196 0.640572 0.550962 0.208059
H165  H     H_    0.325686 0.635568 0.600439 0.208320
C258  C     C_3   0.672506 0.670340 0.605359 -0.364774
C259  C     C_3   0.709286 0.715177 0.634274 -0.409602
C260  C     C_3   0.667962 0.759256 0.658098 -0.732119
H166  H     H_    0.640099 0.785987 0.634379 0.275151
H167  H     H_    0.637533 0.733710 0.680860 0.263323
H168  H     H_    0.696738 0.791413 0.677557 0.236188
H169  H     H_    0.735559 0.689683 0.659667 0.223226
H170  H     H_    0.741188 0.742076 0.613343 0.234028
H171  H     H_    0.644089 0.697411 0.582046 0.207848
H172  H     H_    0.641116 0.642841 0.626397 0.210587
C261  C     C_3   0.676938 0.671664 0.399541 -0.368065
C262  C     C_3   0.719472 0.707762 0.368481 -0.423171
C263  C     C_3   0.763527 0.666655 0.344214 -0.689363
H173  H     H_    0.792003 0.640012 0.367648 0.285563
H174  H     H_    0.737589 0.635311 0.322208 0.258954
H175  H     H_    0.794398 0.695388 0.323703 0.237436
H176  H     H_    0.691577 0.732294 0.343392 0.223831
H177  H     H_    0.746834 0.741132 0.388031 0.232427
H178  H     H_    0.705704 0.646037 0.423427 0.209855
H179  H     H_    0.650087 0.638062 0.379862 0.210784
C264  C     C_3   0.336964 0.697085 0.418406 -0.377697
C265  C     C_3   0.306436 0.757593 0.404684 -0.409017
C266  C     C_3   0.345591 0.793785 0.372371 -0.693792
H180  H     H_    0.388602 0.809766 0.388524 0.273489
H181  H     H_    0.356454 0.765397 0.343529 0.240902
H182  H     H_    0.319164 0.833914 0.360741 0.280523
H183  H     H_    0.261962 0.748322 0.387940 0.225290
H184  H     H_    0.298358 0.786261 0.434008 0.235833
H185  H     H_    0.379382 0.707796 0.437639 0.204997
H186  H     H_    0.350844 0.672135 0.388505 0.206059
C267  C     C_3   0.294975 0.330855 0.423081 -0.370717
C268  C     C_3   0.242601 0.295161 0.399213 -0.391269
C269  C     C_3   0.189020 0.336236 0.384583 -0.710946
H187  H     H_    0.168861 0.359999 0.413192 0.271103
H188  H     H_    0.204912 0.370118 0.359449 0.267084
H189  H     H_    0.151978 0.307849 0.369064 0.222463
H190  H     H_    0.261645 0.273021 0.369454 0.215123
H191  H     H_    0.223985 0.259623 0.422124 0.226959
H192  H     H_    0.274672 0.356065 0.450973 0.210589
H193  H     H_    0.314554 0.364698 0.399292 0.209584
C270  C     C_3   0.673269 0.317848 0.404588 -0.372693
C271  C     C_3   0.709929 0.264533 0.383242 -0.388601
C272  C     C_3   0.668202 0.211797 0.364468 -0.658757
H194  H     H_    0.640640 0.189117 0.391282 0.255116
H195  H     H_    0.637647 0.230295 0.337398 0.243749
H196  H     H_    0.696701 0.174929 0.349051 0.259729
H197  H     H_    0.737707 0.284202 0.355207 0.211913
H198  H     H_    0.740654 0.243918 0.409413 0.220985
H199  H     H_    0.639623 0.297655 0.428277 0.202098
H200  H     H_    0.647392 0.342970 0.378547 0.205903
C273  C     C_3   0.197554 0.830287 0.081881 -0.375408
C274  C     C_3   0.178126 0.851240 0.127571 -0.355872
C275  C     C_3   0.232879 0.875167 0.154026 -0.778557
H201  H     H_    0.267247 0.838547 0.158359 0.263119
H202  H     H_    0.254527 0.914925 0.137132 0.267128
H203  H     H_    0.217546 0.889695 0.186879 0.238059
H204  H     H_    0.143616 0.887953 0.124374 0.226020
H205  H     H_    0.156421 0.812766 0.145976 0.217209
H206  H     H_    0.239513 0.802111 0.084404 0.212628
H207  H     H_    0.209256 0.870817 0.061247 0.201236
C276  C     C_3   0.823657 0.805574 0.083757 -0.374089
C277  C     C_3   0.877020 0.828290 0.112867 -0.370517
C278  C     C_3   0.902188 0.776787 0.141624 -0.754909
H208  H     H_    0.864984 0.755146 0.161238 0.260700
H209  H     H_    0.923949 0.741547 0.121056 0.274217
H210  H     H_    0.937109 0.795658 0.164635 0.232680
H211  H     H_    0.914749 0.846639 0.092208 0.232603
H212  H     H_    0.861771 0.866019 0.134118 0.225444
H213  H     H_    0.792467 0.776477 0.103753 0.208530
H214  H     H_    0.841891 0.776822 0.057213 0.210243
C279  C     C_3   0.826953 0.174675 0.104295 -0.372909
C280  C     C_3   0.844764 0.172033 0.153141 -0.363347
C281  C     C_3   0.795248 0.139863 0.180032 -0.791158
H215  H     H_    0.751265 0.164614 0.176985 0.267292
H216  H     H_    0.788416 0.092234 0.168669 0.259931
H217  H     H_    0.809163 0.139017 0.215090 0.236913
H218  H     H_    0.888738 0.147436 0.157269 0.225464
H219  H     H_    0.851327 0.218748 0.166449 0.214630
H220  H     H_    0.781880 0.197214 0.100230 0.212157
H221  H     H_    0.821918 0.127347 0.091870 0.204483
C282  C     C_3   0.171582 0.198622 0.075831 -0.375239
C283  C     C_3   0.125886 0.175564 0.110288 -0.387565
C284  C     C_3   0.094123 0.228445 0.132519 -0.748233
H222  H     H_    0.128289 0.258807 0.148639 0.266906
H223  H     H_    0.067333 0.255168 0.108216 0.278903
H224  H     H_    0.062543 0.210538 0.157872 0.231028
H225  H     H_    0.090388 0.146246 0.094688 0.238745
H226  H     H_    0.149815 0.147846 0.135569 0.224911
H227  H     H_    0.202532 0.232855 0.091339 0.215652
H228  H     H_    0.146626 0.221907 0.048843 0.213330
C285  C     C_3   0.184775 0.170986 0.907027 -0.366514
C286  C     C_3   0.164659 0.162612 0.858983 -0.352652
C287  C     C_3   0.214697 0.132106 0.832529 -0.792708
H229  H     H_    0.256642 0.161608 0.831726 0.264541
H230  H     H_    0.226115 0.087124 0.847498 0.267216
H231  H     H_    0.198238 0.124909 0.798367 0.233077
H232  H     H_    0.122156 0.133793 0.857478 0.223799
H233  H     H_    0.154383 0.207531 0.843284 0.214467
H234  H     H_    0.230146 0.195020 0.908847 0.212219
H235  H     H_    0.190110 0.125300 0.922974 0.203109
C288  C     C_3   0.827776 0.195336 0.918071 -0.378607
C289  C     C_3   0.880435 0.172635 0.889573 -0.363710
C290  C     C_3   0.906909 0.223956 0.861254 -0.781554
H236  H     H_    0.870579 0.244487 0.840407 0.260050
H237  H     H_    0.927939 0.259825 0.882149 0.270054
H238  H     H_    0.942543 0.205640 0.839477 0.235141
H239  H     H_    0.917586 0.154526 0.910764 0.235129
H240  H     H_    0.864472 0.135012 0.868122 0.226265
H241  H     H_    0.797439 0.224664 0.897754 0.209237
H242  H     H_    0.846797 0.223866 0.944862 0.208976
C291  C     C_3   0.808836 0.825150 0.913738 -0.368958
C292  C     C_3   0.834825 0.875577 0.883615 -0.368921
C293  C     C_3   0.784658 0.904040 0.855258 -0.775209
H243  H     H_    0.760473 0.868366 0.835833 0.261464
H244  H     H_    0.751162 0.927862 0.876066 0.280082
H245  H     H_    0.805299 0.937749 0.832287 0.232105
H246  H     H_    0.856794 0.912217 0.903319 0.234725
H247  H     H_    0.870482 0.856827 0.862076 0.224640
H248  H     H_    0.778843 0.794370 0.894081 0.211163
H249  H     H_    0.780161 0.846139 0.939216 0.211589
C294  C     C_3   0.176413 0.816272 0.906307 -0.374215
C295  C     C_3   0.167357 0.829586 0.857326 -0.380489
C296  C     C_3   0.136288 0.775850 0.834495 -0.766266
H250  H     H_    0.165263 0.734738 0.837212 0.271933
H251  H     H_    0.091214 0.765943 0.849433 0.264897
H252  H     H_    0.129278 0.786791 0.799336 0.239295
H253  H     H_    0.138956 0.870866 0.852951 0.229249
H254  H     H_    0.211915 0.838597 0.841384 0.220059
H255  H     H_    0.202405 0.773436 0.910873 0.215066
H256  H     H_    0.130957 0.809331 0.921535 0.206030

loop_
_geom_bond_atom_site_label_1
_geom_bond_atom_site_label_2
_geom_bond_distance
_ccdc_geom_bond_type
C213  H67   1.113127 S    
C264  C265  1.547318 S    
C285  C286  1.542741 S    
C152  C180  1.403768 A    
C90   N26   1.419159 S    
O41   C197  1.300915 A    
N27   O101  1.293434 A    
O43   C199  1.297726 A    
C240  H130  1.108742 S    
C166  C186  1.472450 A    
O33   C193  1.298580 A    
O45   Cu12  1.982928 S    
C208  H51   1.104586 S    
C261  C262  1.545458 S    
C242  H126  1.109177 S    
C20   C34   1.421988 A    
C214  C215  1.528768 S    
C121  C137  1.386051 A    
C99   C115  1.390702 A    
C154  C182  1.400249 A    
C12   C37   1.537068 S    
C46   C70   1.434488 A    
C276  H213  1.114248 S    
C202  H36   1.110792 S    
O18   Cu2   1.995398 S    
C281  H217  1.112710 S    
N19   O86   1.303425 A    
C84   N20   1.414408 S    
C244  H134  1.108999 S    
C269  H187  1.119456 S    
O6    Cu4   1.981801 S    
C81   N17   1.406241 S    
C271  C272  1.575569 S    
C98   C114  1.391671 A    
O32   C16   1.309699 A    
O1    Cu1   1.987527 S    
C247  H142  1.104914 S    
C132  H20   1.081106 S    
C241  H127  1.110380 S    
C134  C150  1.424723 A    
C88   N24   1.407385 S    
Cu11  Cu12  2.720365 S    
C92   N28   1.408534 S    
C259  C260  1.526326 S    
Cu1   Cu3   2.706933 S    
Cu2   Cu4   2.714918 S    
C17   C43   1.422046 A    
O3    C3    1.318597 A    
N12   O71   1.299461 A    
C88   C104  1.395311 A    
C273  H207  1.116305 S    
C19   C33   1.413480 A    
C47   C59   1.408847 A    
C174  C190  1.443456 A    
C52   C62   1.409411 A    
C126  C288  1.514572 S    
C293  H245  1.112307 S    
C219  H80   1.116038 S    
C82   C98   1.397367 A    
C32   N16   1.430865 S    
C1    C185  1.524806 S    
C224  H83   1.111114 S    
C159  C181  1.398616 A    
C23   C45   1.438718 A    
O33   Cu9   1.986905 S    
C42   C58   1.414897 A    
O5    Cu1   1.992147 S    
C229  H99   1.106583 S    
C180  C195  1.444085 S    
C86   C102  1.402571 A    
H13   C107  1.083329 S    
C206  H41   1.111179 S    
C251  H147  1.112586 S    
C41   C65   1.432355 A    
O40   C194  1.302766 A    
C49   C73   1.427081 A    
C25   C37   1.409028 A    
N11   O69   1.298707 A    
C83   C163  1.425636 A    
C279  H221  1.113302 S    
C149  C179  1.406669 A    
C82   N18   1.422438 S    
C227  H90   1.112967 S    
C212  H56   1.113817 S    
O17   C9    1.312293 A    
N15   O78   1.311955 A    
C202  C203  1.532497 S    
C123  C139  1.391086 A    
C55   C79   1.426544 A    
N8    O63   1.299876 A    
C22   C48   1.420032 A    
C160  C184  1.399769 A    
C271  H197  1.136312 S    
C236  H112  1.111076 S    
C230  H96   1.114689 S    
O25   C13   1.319007 A    
C146  C178  1.404005 A    
C122  C138  1.387523 A    
C287  H229  1.118348 S    
C230  H98   1.111826 S    
C205  C206  1.527380 S    
H2    C102  1.081498 S    
C287  H231  1.114540 S    
C81   C97   1.401761 A    
N14   O75   1.300020 A    
C282  H228  1.110583 S    
C52   C76   1.429849 A    
C84   C100  1.395100 A    
C220  H79   1.098057 S    
H6    C98   1.087395 S    
C85   C101  1.395483 A    
C229  C230  1.536319 S    
C269  H188  1.121208 S    
O26   Cu6   1.995398 S    
C114  C252  1.524072 S    
C248  H139  1.110496 S    
C73   C225  1.533487 S    
C213  C214  1.553225 S    
C75   C231  1.516782 S    
C65   C78   1.425770 A    
C284  H224  1.111057 S    
C283  H225  1.110390 S    
C115  C255  1.530707 S    
C235  H114  1.097145 S    
C215  H61   1.114120 S    
O27   C13   1.303616 A    
O8    Cu2   1.981798 S    
C67   C80   1.438010 A    
C251  H145  1.112111 S    
C157  C173  1.419440 A    
N18   O83   1.299476 A    
C290  H237  1.111459 S    
O31   C15   1.310051 A    
H16   C108  1.082441 S    
C207  H52   1.109943 S    
C28   C50   1.420346 A    
C25   C51   1.459959 A    
C56   C64   1.414427 A    
C117  C261  1.527761 S    
C49   C61   1.405829 A    
C139  H27   1.079809 S    
C15   C34   1.526585 S    
C231  H108  1.094387 S    
N22   O91   1.299951 A    
C29   C55   1.431885 A    
C222  H87   1.105447 S    
C281  H215  1.113740 S    
C21   N5    1.447003 S    
C31   C53   1.430172 A    
C20   N4    1.449113 S    
C218  H68   1.113987 S    
C66   C204  1.537426 S    
C94   C174  1.425330 A    
C128  C294  1.507865 S    
C243  H136  1.103818 S    
C225  H95   1.107551 S    
C250  H148  1.113483 S    
C148  C180  1.406823 A    
C272  H194  1.132439 S    
C254  H153  1.113996 S    
C70   C216  1.550669 S    
C89   C105  1.401347 A    
C167  C185  1.450250 A    
C95   C111  1.400360 A    
H4    C104  1.083672 S    
O11   C7    1.298312 A    
O19   Cu3   1.998918 S    
C132  C148  1.422670 A    
C124  C282  1.513991 S    
O22   C12   1.312228 A    
C274  H204  1.114065 S    
C50   C74   1.429835 A    
C232  H107  1.112486 S    
C260  H166  1.112042 S    
O16   Cu6   1.981798 S    
C233  H104  1.111869 S    
C280  C281  1.530702 S    
H8    C100  1.074276 S    
C129  H17   1.078816 S    
C293  H243  1.113247 S    
C140  C156  1.421797 A    
N25   O98   1.299629 A    
C245  H133  1.112354 S    
C265  C266  1.527705 S    
C291  C292  1.542911 S    
C89   N25   1.418086 S    
C81   C161  1.426056 A    
N28   O103  1.297591 A    
C133  H21   1.082148 S    
O41   Cu11  1.986905 S    
N21   O90   1.300613 A    
C266  H180  1.113891 S    
C284  H222  1.111018 S    
C181  C200  1.448035 S    
C6    C190  1.497289 S    
C210  C211  1.548766 S    
N10   O68   1.299049 A    
C151  C167  1.421315 A    
C225  C226  1.539118 S    
C205  H44   1.101727 S    
C204  C205  1.547638 S    
C110  C126  1.388482 A    
O9    C5    1.314095 A    
C277  C278  1.531893 S    
C53   C63   1.399013 A    
C31   C39   1.423184 A    
C267  C268  1.560679 S    
C291  H248  1.113013 S    
O21   Cu1   1.998887 S    
C237  C238  1.551940 S    
C211  C212  1.538935 S    
C229  H100  1.098333 S    
C130  C146  1.427817 A    
C217  H71   1.109950 S    
O23   C11   1.306399 A    
C143  C159  1.418750 A    
C69   C213  1.547936 S    
C223  C224  1.525964 S    
N27   O102  1.295117 A    
C153  C181  1.401903 A    
C129  C145  1.421982 A    
C30   N14   1.401896 S    
C250  C251  1.528193 S    
C234  H115  1.111695 S    
C208  C209  1.524208 S    
C225  H94   1.105941 S    
C94   C110  1.400844 A    
C142  H30   1.078404 S    
C123  C279  1.515804 S    
O13   C7    1.324887 A    
N9    O66   1.300276 A    
C17   C33   1.425878 A    
N30   O108  1.297541 A    
C296  H251  1.110233 S    
C274  C275  1.530585 S    
C50   C62   1.403766 A    
N20   O88   1.298534 A    
C21   C47   1.431887 A    
C238  H120  1.112189 S    
C95   C175  1.430433 A    
C228  C229  1.550177 S    
O7    C1    1.307670 A    
C113  C249  1.516852 S    
O28   C14   1.319374 A    
O26   C14   1.313161 A    
O29   C15   1.324809 A    
O30   C16   1.314687 A    
C286  H233  1.118045 S    
O29   Cu5   1.998887 S    
O34   C194  1.295861 A    
C223  H86   1.116301 S    
C226  H92   1.115521 S    
N17   O81   1.296787 A    
C131  H19   1.079467 S    
C154  C170  1.411178 A    
C175  C189  1.447906 A    
C84   C164  1.422188 A    
C53   C77   1.419897 A    
C51   C61   1.422266 A    
C14   C35   1.521575 S    
N6    O60   1.295943 A    
Cu9   Cu10  2.720365 S    
C161  C185  1.453030 A    
C275  H202  1.114863 S    
O24   C12   1.330983 A    
C289  H239  1.110650 S    
C218  H70   1.116531 S    
C265  H184  1.116763 S    
C210  H59   1.101818 S    
C211  H57   1.101469 S    
C10   C39   1.508949 S    
C92   C108  1.397008 A    
C93   C109  1.396013 A    
C241  C242  1.531731 S    
C28   N12   1.430997 S    
C272  H196  1.135732 S    
C285  H234  1.120783 S    
C54   C64   1.407240 A    
C85   N21   1.421910 S    
N26   O99   1.299169 A    
C26   C52   1.424132 A    
H3    C101  1.077291 S    
C136  H24   1.081765 S    
C259  H169  1.113670 S    
O45   C197  1.297027 A    
C100  C116  1.390332 A    
N15   O77   1.304358 A    
C295  C296  1.526097 S    
C176  C192  1.436854 A    
O15   Cu7   1.992140 S    
C260  H168  1.113381 S    
C30   C56   1.428712 A    
N1    O49   1.296598 A    
C45   C59   1.411990 A    
C277  H212  1.113226 S    
C138  C154  1.417576 A    
C201  H39   1.110715 S    
O39   C195  1.298871 A    
C245  H131  1.112857 S    
C83   C99   1.396205 A    
C246  H143  1.100542 S    
C264  H186  1.116546 S    
C59   C62   1.392880 A    
C243  C244  1.542828 S    
C254  H152  1.112397 S    
C135  C151  1.432195 A    
C266  H182  1.113767 S    
C270  H199  1.123863 S    
C182  C197  1.444311 S    
C69   C74   1.448357 A    
C27   N11   1.436474 S    
C286  H232  1.120324 S    
C261  H179  1.114970 S    
C268  C269  1.548316 S    
N16   O80   1.300679 A    
N7    O62   1.298850 A    
H5    C99   1.078824 S    
C107  C123  1.381185 A    
C226  C227  1.537369 S    
C209  H49   1.114321 S    
C29   C39   1.413682 A    
C258  H171  1.114825 S    
C282  H227  1.112437 S    
C204  H46   1.112734 S    
C151  C177  1.410278 A    
C288  H241  1.112677 S    
C220  C221  1.532004 S    
C165  C187  1.442806 A    
C213  H66   1.112068 S    
N23   O94   1.300980 A    
O22   Cu4   1.995368 S    
C257  H161  1.120085 S    
C117  C133  1.392705 A    
O23   Cu3   1.994919 S    
C235  C236  1.539675 S    
N13   O74   1.300337 A    
C124  C140  1.384515 A    
C295  H253  1.111394 S    
C263  H175  1.114341 S    
C78   C240  1.540303 S    
C172  C192  1.455290 A    
C3    C187  1.510996 S    
C222  H88   1.123163 S    
C152  C168  1.407892 A    
O46   Cu12  1.992277 S    
O12   C8    1.326300 A    
O32   Cu6   1.998579 S    
C150  C178  1.414828 A    
C93   C173  1.439626 A    
C278  H210  1.113284 S    
C203  H34   1.106547 S    
C249  H151  1.114101 S    
C215  H63   1.113247 S    
C267  H192  1.119196 S    
C32   C40   1.435866 A    
N4    O56   1.302706 A    
C91   C107  1.398564 A    
C273  C274  1.540663 S    
C48   C72   1.430533 A    
C281  H216  1.112733 S    
C23   C35   1.421429 A    
C214  H64   1.112018 S    
C150  C166  1.428302 A    
C268  H191  1.121151 S    
C216  H73   1.102055 S    
C60   C61   1.396247 A    
C144  C160  1.420279 A    
C155  C183  1.401997 A    
C42   C66   1.442288 A    
C7    C191  1.504568 S    
C119  C135  1.400355 A    
C241  H128  1.101778 S    
C106  C122  1.387676 A    
N24   O95   1.299793 A    
C237  H122  1.108234 S    
C234  C235  1.553876 S    
C173  C191  1.461653 A    
O38   C196  1.304381 A    
O30   Cu8   1.995368 S    
H11   C109  1.088209 S    
N26   O100  1.297913 A    
O47   Cu12  1.986928 S    
C85   C165  1.428989 A    
N12   O72   1.293630 A    
O36   Cu9   1.989134 S    
C273  H206  1.114926 S    
C121  C273  1.513141 S    
C252  H158  1.112195 S    
C96   C176  1.424945 A    
C224  H82   1.111100 S    
C294  H256  1.111464 S    
C203  H33   1.112339 S    
O37   C193  1.303617 A    
C9    C40   1.541468 S    
C206  H40   1.118193 S    
C67   C207  1.552169 S    
C251  H146  1.112503 S    
C86   N22   1.431726 S    
O10   C6    1.312980 A    
C11   C38   1.511210 S    
C90   C106  1.399149 A    
C18   C34   1.431434 A    
O46   C200  1.299012 A    
C148  C164  1.411901 A    
N31   O109  1.298156 A    
C279  H220  1.114329 S    
N30   O107  1.299220 A    
C128  C144  1.389123 A    
C45   C69   1.445130 A    
C280  H218  1.114773 S    
C212  H55   1.116896 S    
C207  C208  1.548972 S    
C47   C71   1.433027 A    
N8    O64   1.296922 A    
C58   C63   1.388663 A    
C131  C147  1.424350 A    
C247  C248  1.528613 S    
N32   O111  1.299219 A    
N13   O73   1.294479 A    
C271  H198  1.135784 S    
C236  H111  1.111794 S    
C141  H29   1.079965 S    
C44   C58   1.415440 A    
C265  H183  1.113470 S    
O44   Cu11  1.989134 S    
C262  H176  1.115720 S    
O31   Cu7   1.994919 S    
C282  C283  1.539636 S    
C133  C149  1.426745 A    
C230  H97   1.110586 S    
C92   C172  1.431324 A    
C289  H240  1.110485 S    
C239  H119  1.116134 S    
C137  H25   1.079466 S    
C209  H47   1.112664 S    
C287  H230  1.115538 S    
C170  C190  1.443443 A    
C71   C76   1.443378 A    
C122  C276  1.514256 S    
C278  H209  1.115043 S    
C227  H91   1.110921 S    
C46   C60   1.426242 A    
C255  H165  1.116353 S    
C292  H246  1.111598 S    
C108  C124  1.382090 A    
C2    C186  1.510935 S    
N2    O52   1.298040 A    
C125  C141  1.385435 A    
C257  H159  1.117537 S    
C248  H138  1.102614 S    
O21   C11   1.318954 A    
C22   N6    1.433966 S    
C68   C79   1.446064 A    
C22   C36   1.422943 A    
C283  H226  1.111665 S    
C24   C46   1.424924 A    
C96   C112  1.394830 A    
C25   N9    1.428652 S    
C219  C220  1.542897 S    
O13   Cu5   1.992147 S    
C208  H50   1.110260 S    
C28   C38   1.414652 A    
C26   C38   1.427314 A    
C30   C40   1.404819 A    
C258  C259  1.543736 S    
N23   O93   1.292299 A    
C221  H77   1.120316 S    
C276  H214  1.112424 S    
N22   O92   1.297537 A    
C118  C264  1.526069 S    
C288  C289  1.541714 S    
O3    Cu3   1.987526 S    
C238  C239  1.539356 S    
C102  C118  1.382659 A    
C90   C170  1.427011 A    
C256  C257  1.545343 S    
C91   N27   1.414052 S    
C291  H249  1.111662 S    
C239  H117  1.113107 S    
C240  H129  1.100200 S    
C247  H141  1.100101 S    
C253  H156  1.115529 S    
N3    O53   1.298079 A    
C147  C179  1.401977 A    
C249  C250  1.544234 S    
O28   Cu8   1.998534 S    
C27   C37   1.431204 A    
C164  C188  1.435092 A    
C207  H53   1.105181 S    
C145  C177  1.397318 A    
C119  C267  1.544849 S    
O35   C195  1.299985 A    
C254  H154  1.113810 S    
C114  C130  1.399514 A    
C216  H74   1.112620 S    
C274  H205  1.116215 S    
C48   C60   1.403392 A    
C118  C134  1.382408 A    
C19   N3    1.440762 S    
C219  H81   1.106249 S    
C289  C290  1.528932 S    
C245  H132  1.111937 S    
O36   C196  1.295333 A    
C237  H123  1.109416 S    
C224  H84   1.115770 S    
C246  H144  1.099858 S    
C66   C77   1.444630 A    
C286  C287  1.531600 S    
N28   O104  1.299617 A    
C65   C201  1.543947 S    
C249  H150  1.110448 S    
C158  C174  1.410010 A    
C206  H42   1.113623 S    
O11   Cu7   1.987526 S    
O44   C200  1.300229 A    
C4    C188  1.502638 S    
C242  H125  1.110232 S    
C74   C228  1.527798 S    
C116  C258  1.523970 S    
C93   N29   1.403040 S    
C158  C182  1.398726 A    
C76   C234  1.541116 S    
O1    C1    1.326120 A    
C16   C33   1.497203 S    
C24   N8    1.438396 S    
C19   C41   1.417697 A    
C217  C218  1.532514 S    
C72   C222  1.570324 S    
O38   Cu10  1.992277 S    
C275  H201  1.113633 S    
C87   C103  1.406271 A    
O5    C3    1.309807 A    
C115  C131  1.393000 A    
C127  C291  1.514698 S    
C292  C293  1.529381 S    
C284  H223  1.110996 S    
H15   C105  1.083361 S    
O7    Cu3   1.992140 S    
C294  C295  1.536634 S    
C153  C169  1.417875 A    
O43   Cu11  1.982903 S    
N29   O106  1.300557 A    
C87   C167  1.433583 A    
C256  H163  1.120246 S    
C146  C162  1.408505 A    
C91   C171  1.426600 A    
C89   C169  1.437888 A    
C13   C36   1.511271 S    
C44   C68   1.458607 A    
C51   C75   1.445523 A    
C209  H48   1.109292 S    
O18   C10   1.303128 A    
C296  H250  1.111198 S    
O17   Cu1   1.994891 S    
C130  H18   1.082185 S    
C57   C64   1.393488 A    
C144  H32   1.079221 S    
C113  C129  1.391472 A    
C220  H78   1.121362 S    
C156  C172  1.414674 A    
C238  H121  1.096827 S    
C233  H103  1.111823 S    
C269  H189  1.121548 S    
N5    O57   1.294381 A    
C43   C57   1.406375 A    
C248  H140  1.109871 S    
C97   C113  1.391784 A    
C222  C223  1.559403 S    
C134  H22   1.075946 S    
C202  H37   1.107254 S    
C235  H113  1.113362 S    
C277  H211  1.115024 S    
C101  C117  1.390637 A    
C26   N10   1.447744 S    
O14   Cu8   1.981801 S    
N7    O61   1.296213 A    
C226  H93   1.102733 S    
C184  C199  1.442546 S    
O2    C2    1.281757 A    
O25   Cu5   1.994891 S    
C54   C78   1.427701 A    
C290  H236  1.112153 S    
C125  C285  1.511796 S    
C221  H75   1.120603 S    
C126  C142  1.387683 A    
C253  C254  1.530576 S    
C231  H109  1.091818 S    
C240  C241  1.547923 S    
H7    C97   1.083655 S    
C231  C232  1.547106 S    
C216  C217  1.552557 S    
C94   N30   1.416844 S    
C201  C202  1.544850 S    
C21   C35   1.414407 A    
C250  H149  1.111771 S    
C218  H69   1.112393 S    
C79   C243  1.524500 S    
O8    C4    1.316642 A    
C211  H58   1.117419 S    
O4    Cu4   1.986434 S    
C159  C175  1.412005 A    
C243  H137  1.098642 S    
N14   O76   1.289349 A    
C272  H195  1.135447 S    
C143  H31   1.077644 S    
C244  H135  1.105279 S    
C120  C136  1.399192 A    
C87   N23   1.418671 S    
C259  H170  1.113932 S    
C27   C49   1.403290 A    
C140  H28   1.077720 S    
N21   O89   1.293942 A    
O20   C10   1.324102 A    
C232  H106  1.112802 S    
C260  H167  1.112920 S    
H10   C110  1.083267 S    
C233  H105  1.112812 S    
C217  H72   1.112395 S    
C221  H76   1.116124 S    
O40   Cu10  1.989110 S    
C201  H38   1.099603 S    
C111  C127  1.386664 A    
C163  C187  1.454360 A    
C112  C128  1.382387 A    
C264  H185  1.118541 S    
C270  C271  1.576033 S    
N31   O110  1.299554 A    
C266  H181  1.113562 S    
O2    Cu2   1.986426 S    
O42   Cu11  1.992301 S    
O39   Cu10  1.986928 S    
C178  C193  1.452313 S    
C162  C186  1.437001 A    
C255  H164  1.114773 S    
C261  H178  1.113831 S    
O48   Cu12  1.989110 S    
C155  C171  1.411136 A    
C205  H43   1.125087 S    
C82   C162  1.421000 A    
O14   C6    1.310688 A    
C104  C120  1.394621 A    
N9    O65   1.301390 A    
C20   C42   1.430799 A    
C204  H45   1.117299 S    
O48   C198  1.299422 A    
Cu5   Cu7   2.706933 S    
C169  C189  1.453963 A    
C253  H155  1.114623 S    
O6    C2    1.346960 A    
C96   N32   1.413510 S    
C257  H160  1.119853 S    
C179  C194  1.444739 S    
N19   O85   1.297569 A    
H9    C111  1.082185 S    
C55   C63   1.401878 A    
O27   Cu7   1.998918 S    
O35   Cu9   1.982903 S    
C283  C284  1.527635 S    
C242  H124  1.111842 S    
C268  H190  1.121697 S    
C227  H89   1.114710 S    
C263  H174  1.113980 S    
C262  C263  1.529604 S    
C168  C188  1.443813 A    
C5    C189  1.501261 S    
C234  H116  1.112514 S    
N5    O58   1.304569 A    
N29   O105  1.295834 A    
C171  C191  1.445223 A    
C244  C245  1.531325 S    
C127  C143  1.384373 A    
H14   C106  1.082594 S    
C95   N31   1.419470 S    
C138  H26   1.077711 S    
C296  H252  1.110428 S    
N11   O70   1.299741 A    
C135  H23   1.080568 S    
C139  C155  1.426309 A    
N20   O87   1.298319 A    
C18   C44   1.427360 A    
C18   N2    1.433423 S    
O19   C9    1.335127 A    
C215  H62   1.111227 S    
C137  C153  1.424107 A    
C252  C253  1.544979 S    
C214  H65   1.115496 S    
C246  C247  1.552201 S    
C177  C196  1.447306 S    
C31   N15   1.443171 S    
C24   C36   1.411634 A    
C156  C184  1.400224 A    
N3    O54   1.299327 A    
C70   C73   1.423712 A    
O24   Cu2   1.998579 S    
O12   Cu8   1.986434 S    
N24   O96   1.298012 A    
C32   C54   1.407587 A    
O42   C198  1.299588 A    
C68   C210  1.553518 S    
C183  C198  1.445825 S    
C223  H85   1.110755 S    
C136  C152  1.422850 A    
C228  H101  1.104298 S    
C77   C237  1.533325 S    
N17   O82   1.302251 A    
C80   C246  1.530756 S    
C290  H238  1.111569 S    
C83   N19   1.408020 S    
C8    C192  1.500354 S    
C23   N7    1.439812 S    
C267  H193  1.121114 S    
N6    O59   1.300313 A    
C252  H157  1.111769 S    
C278  H208  1.116317 S    
C275  H203  1.113206 S    
C256  H162  1.121348 S    
N4    O55   1.299626 A    
N2    O51   1.296483 A    
C210  H60   1.110662 S    
C294  H255  1.111936 S    
C56   C80   1.447404 A    
H12   C112  1.081225 S    
C157  C183  1.404377 A    
C285  H235  1.119089 S    
Cu6   Cu8   2.714918 S    
C29   N13   1.447327 S    
O4    C4    1.313009 A    
C279  C280  1.542263 S    
C147  C163  1.410094 A    
C109  C125  1.376248 A    
N10   O67   1.292759 A    
C71   C219  1.541043 S    
C232  C233  1.526912 S    
C145  C161  1.414083 A    
O37   Cu10  1.982928 S    
N1    O50   1.302264 A    
C280  H219  1.113887 S    
C212  H54   1.119010 S    
O20   Cu4   1.998534 S    
C255  C256  1.553214 S    
C41   C57   1.419332 A    
C116  C132  1.391553 A    
O47   C199  1.299850 A    
C149  C165  1.416596 A    
C160  C176  1.408673 A    
C43   C67   1.430826 A    
O34   Cu9   1.992301 S    
N32   O112  1.295915 A    
C236  H110  1.106168 S    
O10   Cu6   1.986426 S    
C270  H200  1.119008 S    
C88   C168  1.417350 A    
C120  C270  1.535077 S    
C17   N1    1.447822 S    
C295  H254  1.110075 S    
C263  H173  1.112883 S    
C262  H177  1.115325 S    
O15   C5    1.307600 A    
C141  C157  1.427510 A    
O9    Cu5   1.987527 S    
N18   O84   1.288593 A    
O16   C8    1.298950 A    
N16   O79   1.304721 A    
H1    C103  1.084484 S    
C203  H35   1.112302 S    
C239  H118  1.118220 S    
C228  H102  1.101847 S    
C103  C119  1.391496 A    
C258  H172  1.115792 S    
C293  H244  1.113313 S    
N25   O97   1.294305 A    
C105  C121  1.380450 A    
C86   C166  1.464815 A    
C72   C75   1.453214 A    
C292  H247  1.111104 S    
C276  C277  1.543259 S    
C288  H242  1.110767 S    
C142  C158  1.417673 A    
