data_mof_unit_28331.cif
_audit_creation_date              2012-12-11T15:09:08-0500
_audit_creation_method            fapswitch 2.2
_symmetry_space_group_name_H-M    P1
_symmetry_Int_Tables_number       1
_space_group_crystal_system       triclinic
_cell_length_a                    25.968979
_cell_length_b                    27.611914
_cell_length_c                    8.364925
_cell_angle_alpha                 89.999803
_cell_angle_beta                  96.211977
_cell_angle_gamma                 90.011621
_cell_volume                      5962.87761436

loop_
_atom_site_label
_atom_site_type_symbol
_atom_type_description
_atom_site_fract_x
_atom_site_fract_y
_atom_site_fract_z
_atom_type_partial_charge
Ba1   Ba    Ba6+2 0.999910 0.465960 0.844870 1.624904
Ba2   Ba    Ba6+2 0.999910 0.534040 0.344870 1.625386
Ba3   Ba    Ba6+2 0.499910 0.965960 0.844870 1.624897
Ba4   Ba    Ba6+2 0.499910 0.034040 0.344870 1.625408
C1    C     C_3   0.038011 0.239604 0.562383 -0.236530
C2    C     C_R   0.845935 0.642415 0.597557 -0.127832
C3    C     C_3   0.516987 0.210135 0.108800 0.367587
C4    C     C_R   0.913871 0.383643 0.299714 -0.285937
C5    C     C_R   0.914914 0.616914 0.797749 -0.284452
C6    C     C_R   0.413881 0.883636 0.299691 -0.285744
C7    C     C_R   0.414913 0.116926 0.797725 -0.284540
C8    C     C_3   0.051645 0.210810 0.718590 -0.185573
C9    C     C_3   0.105004 0.224531 0.803932 -0.181841
C10   C     C_3   0.116717 0.196845 0.961614 -0.412940
C11   C     C_3   0.021329 0.797018 0.001743 -0.208297
C12   C     C_3   0.963581 0.808655 0.005492 -0.149279
C13   C     C_R   0.344328 0.858522 0.100623 -0.126944
C14   C     C_3   0.947758 0.853927 0.907700 -0.461231
C15   C     C_3   0.552265 0.711322 0.721421 -0.186480
C16   C     C_3   0.606252 0.725024 0.801983 -0.181718
C17   C     C_3   0.618787 0.698620 0.961752 -0.413256
C18   C     C_3   0.521299 0.296971 0.001501 -0.208285
C19   C     C_3   0.463541 0.308621 0.005098 -0.149352
C20   C     C_3   0.447690 0.353797 0.906802 -0.461340
C21   C     C_R   0.345870 0.142385 0.597668 -0.127702
C22   C     C_R   0.833119 0.318624 0.197730 -0.013876
C23   C     C_R   0.835115 0.682698 0.693566 -0.012400
C24   C     C_R   0.333129 0.818616 0.197712 -0.013906
C25   C     C_R   0.335057 0.182665 0.693696 -0.012323
C26   C     C_R   0.862346 0.313121 0.349486 -0.139545
C27   C     C_R   0.864136 0.688070 0.845744 -0.143286
C28   C     C_R   0.362360 0.813110 0.349460 -0.139537
C29   C     C_3   0.042010 0.760231 0.131149 -0.205098
C30   C     C_R   0.364112 0.188059 0.845806 -0.143316
C31   C     C_R   0.901827 0.346113 0.401234 0.010016
C32   C     C_R   0.903191 0.654760 0.898362 0.007082
C33   C     C_R   0.401846 0.846098 0.401196 0.010032
C34   C     C_R   0.403185 0.154763 0.898372 0.006921
C35   C     C_R   0.794674 0.234160 0.179986 -0.078508
C36   C     C_R   0.796310 0.767146 0.679273 -0.080084
C37   C     C_R   0.294678 0.734154 0.179998 -0.078514
C38   C     C_R   0.296302 0.267122 0.679060 -0.080029
C39   C     C_R   0.254203 0.701722 0.132341 -0.074981
C40   C     C_3   0.537741 0.739282 0.563958 -0.236638
C41   C     C_R   0.255810 0.299552 0.631471 -0.075791
C42   C     C_R   0.754199 0.201728 0.132333 -0.075030
C43   C     C_R   0.755818 0.799575 0.631664 -0.075755
C44   C     C_R   0.207508 0.717981 0.047984 0.061896
C45   C     C_R   0.209774 0.283555 0.542458 0.058843
C46   C     C_R   0.707501 0.217987 0.048000 0.061894
C47   C     C_R   0.709860 0.783612 0.542136 0.058810
C48   C     C_R   0.202704 0.767802 0.012879 -0.080142
C49   C     C_R   0.205804 0.234058 0.501940 -0.093300
C50   C     C_R   0.702693 0.267808 0.012915 -0.080134
C51   C     C_3   0.541969 0.260250 0.131167 -0.205122
C52   C     C_R   0.705994 0.734154 0.501016 -0.093478
C53   C     C_R   0.743226 0.300244 0.060372 -0.076112
C54   C     C_R   0.746293 0.701678 0.549563 -0.076489
C55   C     C_R   0.243237 0.800237 0.060336 -0.076083
C56   C     C_R   0.246121 0.201586 0.550393 -0.076520
C57   C     C_3   0.981273 0.291292 0.087749 0.352064
C58   C     C_3   0.982305 0.710834 0.581102 0.353012
C59   C     C_3   0.481107 0.791426 0.087373 0.351143
C60   C     C_3   0.482397 0.210921 0.581472 0.352949
C61   C     C_R   0.789918 0.283960 0.144723 0.062414
C62   C     C_R   0.884463 0.391147 0.152023 0.063247
C63   C     C_R   0.792190 0.717582 0.639529 0.064109
C64   C     C_R   0.289926 0.783953 0.144710 0.062406
C65   C     C_R   0.292108 0.217531 0.639769 0.064089
C66   C     C_R   0.135127 0.688692 0.843131 -0.137544
C67   C     C_R   0.137220 0.312941 0.338473 -0.140488
C68   C     C_R   0.635121 0.188696 0.843141 -0.137525
C69   C     C_R   0.637241 0.812974 0.338333 -0.140375
C70   C     C_R   0.096089 0.655315 0.790732 0.007713
C71   C     C_R   0.097621 0.345860 0.287652 0.013418
C72   C     C_R   0.596090 0.155314 0.790729 0.007707
C73   C     C_R   0.885382 0.609303 0.650415 0.065935
C74   C     C_R   0.597609 0.845863 0.287614 0.013305
C75   C     C_R   0.114300 0.609763 0.038521 0.064705
C76   C     C_R   0.115117 0.390664 0.537148 0.065109
C77   C     C_R   0.614304 0.109760 0.038516 0.064535
C78   C     C_R   0.615107 0.890657 0.537129 0.065384
C79   C     C_R   0.153855 0.642863 0.090769 -0.129968
C80   C     C_R   0.155108 0.357873 0.588314 -0.137457
C81   C     C_R   0.653851 0.142866 0.090779 -0.129992
C82   C     C_R   0.655132 0.857889 0.588201 -0.137828
C83   C     C_R   0.164455 0.683183 0.994696 -0.015585
C84   C     C_R   0.384469 0.891143 0.152009 0.063144
C85   C     C_R   0.166438 0.318190 0.490348 -0.015680
C86   C     C_R   0.664449 0.183188 0.994709 -0.015570
C87   C     C_R   0.666486 0.818227 0.490162 -0.015686
C88   C     C_R   0.084636 0.617325 0.891326 -0.282497
C89   C     C_R   0.085759 0.383396 0.389331 -0.280037
C90   C     C_R   0.584649 0.117314 0.891303 -0.282503
C91   C     C_R   0.585720 0.883372 0.389364 -0.280218
C92   C     C_3   0.956125 0.241526 0.077342 -0.391159
C93   C     C_3   0.956427 0.759635 0.546442 -0.379744
C94   C     C_3   0.455990 0.741645 0.077945 -0.392254
C95   C     C_R   0.385358 0.109300 0.650433 0.065985
C96   C     C_3   0.456507 0.259701 0.546461 -0.379930
C97   C     C_3   0.148073 0.469686 0.221846 0.315408
C98   C     C_3   0.147038 0.530807 0.721371 0.314694
C99   C     C_3   0.648061 0.969677 0.221795 0.315314
C100  C     C_3   0.647078 0.030784 0.721555 0.314628
C101  C     C_3   0.197103 0.439149 0.241533 -0.397132
C102  C     C_3   0.195881 0.561542 0.745288 -0.397059
C103  C     C_3   0.697097 0.939149 0.241601 -0.397227
C104  C     C_3   0.695861 0.061642 0.744001 -0.396275
C105  C     C_3   0.852646 0.531317 0.968243 0.315443
C106  C     C_R   0.844321 0.358528 0.100638 -0.126792
C107  C     C_3   0.851694 0.469113 0.468131 0.315132
C108  C     C_3   0.352643 0.031316 0.968259 0.315469
C109  C     C_3   0.351706 0.969108 0.468121 0.315107
C110  C     C_3   0.803948 0.562330 0.949009 -0.395950
C111  C     C_3   0.802759 0.438410 0.450977 -0.396156
C112  C     C_3   0.303937 0.062313 0.948904 -0.396012
C113  C     C_3   0.302778 0.938392 0.451017 -0.396070
C114  C     C_3   0.017856 0.290736 0.590598 0.370505
C115  C     C_3   0.016985 0.710143 0.108592 0.367302
C116  C     C_3   0.517653 0.790542 0.590488 0.369875
H1    H     H_    0.045206 0.310450 0.678798 0.073073
H2    H     H_    0.186536 0.598776 0.781447 0.067156
H3    H     H_    0.481780 0.289106 0.600340 0.108472
H4    H     H_    0.132634 0.472685 0.339543 0.010689
H5    H     H_    0.130352 0.527921 0.837086 0.010655
H6    H     H_    0.632578 0.972657 0.339430 0.010910
H7    H     H_    0.630790 0.027832 0.837910 0.010780
H8    H     H_    0.119308 0.451662 0.133339 0.064011
H9    H     H_    0.119002 0.548641 0.630307 0.067886
H10   H     H_    0.619325 0.951657 0.133187 0.063923
H11   H     H_    0.618737 0.048568 0.631238 0.067536
H12   H     H_    0.830153 0.219992 0.242593 0.059652
H13   H     H_    0.688438 0.902138 0.281641 0.067549
H14   H     H_    0.831253 0.781160 0.745660 0.057160
H15   H     H_    0.330153 0.719986 0.242628 0.059643
H16   H     H_    0.331308 0.281153 0.745049 0.057197
H17   H     H_    0.737516 0.338335 0.033464 0.058534
H18   H     H_    0.740872 0.663796 0.519097 0.058445
H19   H     H_    0.237530 0.838326 0.033411 0.058536
H20   H     H_    0.240661 0.163681 0.520301 0.058490
H21   H     H_    0.086930 0.204654 0.043940 0.156640
H22   H     H_    0.117544 0.157267 0.938119 0.123448
H23   H     H_    0.155143 0.208089 0.021417 0.121211
H24   H     H_    0.686592 0.098737 0.781868 0.066990
H25   H     H_    0.135418 0.215878 0.724816 0.114020
H26   H     H_    0.106814 0.263860 0.829961 0.163924
H27   H     H_    0.021251 0.216130 0.800490 0.164718
H28   H     H_    0.052134 0.171647 0.687742 0.096435
H29   H     H_    0.968920 0.886052 0.960955 0.136383
H30   H     H_    0.956215 0.849569 0.781322 0.135174
H31   H     H_    0.905537 0.860189 0.908372 0.126967
H32   H     H_    0.939749 0.777815 0.954143 0.133894
H33   H     H_    0.955131 0.814632 0.131490 0.131633
H34   H     H_    0.044354 0.830817 0.022972 0.108742
H35   H     H_    0.213697 0.436546 0.124885 0.124349
H36   H     H_    0.027952 0.783153 0.880880 0.105547
H37   H     H_    0.590015 0.707845 0.045977 0.157879
H38   H     H_    0.618640 0.658820 0.942154 0.123439
H39   H     H_    0.657826 0.709623 0.017297 0.121288
H40   H     H_    0.635837 0.715116 0.721471 0.114384
H41   H     H_    0.608788 0.764561 0.823955 0.161500
H42   H     H_    0.522657 0.717493 0.805357 0.167027
H43   H     H_    0.552156 0.671957 0.693196 0.096360
H44   H     H_    0.468913 0.385954 0.959445 0.136473
H45   H     H_    0.456032 0.349251 0.780415 0.135206
H46   H     H_    0.214124 0.563454 0.631396 0.125481
H47   H     H_    0.405491 0.360130 0.907664 0.126960
H48   H     H_    0.439725 0.277740 0.954059 0.133948
H49   H     H_    0.455089 0.314719 0.131025 0.131588
H50   H     H_    0.544313 0.330784 0.022572 0.108711
H51   H     H_    0.527944 0.283041 0.880729 0.105608
H52   H     H_    0.713746 0.936584 0.125036 0.124271
H53   H     H_    0.713466 0.063953 0.628988 0.125262
H54   H     H_    0.867997 0.528182 0.850525 0.010733
H55   H     H_    0.866406 0.472255 0.349423 0.011418
H56   H     H_    0.368028 0.028187 0.850597 0.010700
H57   H     H_    0.041364 0.684206 0.185118 0.078189
H58   H     H_    0.366405 0.972254 0.349397 0.011387
H59   H     H_    0.881664 0.549005 0.056732 0.066627
H60   H     H_    0.880982 0.451204 0.555227 0.061943
H61   H     H_    0.381635 0.049011 0.056807 0.066641
H62   H     H_    0.381006 0.951206 0.555197 0.062059
H63   H     H_    0.774721 0.545903 0.858236 0.122161
H64   H     H_    0.773180 0.455159 0.362063 0.122578
H65   H     H_    0.274739 0.045878 0.858068 0.122168
H66   H     H_    0.273183 0.955140 0.362154 0.122540
H67   H     H_    0.812938 0.599252 0.908918 0.067050
H68   H     H_    0.545109 0.810504 0.677696 0.073085
H69   H     H_    0.811214 0.401524 0.409465 0.066565
H70   H     H_    0.312923 0.099239 0.908839 0.067077
H71   H     H_    0.311233 0.901510 0.409462 0.066615
H72   H     H_    0.787465 0.565073 0.065794 0.124571
H73   H     H_    0.786981 0.435553 0.568862 0.124548
H74   H     H_    0.287420 0.065049 0.065629 0.124576
H75   H     H_    0.287021 0.935521 0.568930 0.124574
H76   H     H_    0.016373 0.310005 0.473757 -0.081564
H77   H     H_    0.016493 0.699070 0.980736 -0.074118
H78   H     H_    0.515995 0.809439 0.472943 -0.082001
H79   H     H_    0.541358 0.184232 0.185507 0.078384
H80   H     H_    0.516543 0.199006 0.981009 -0.074323
H81   H     H_    0.007606 0.219666 0.484785 0.098060
H82   H     H_    0.084364 0.756154 0.125267 0.053138
H83   H     H_    0.507026 0.718944 0.488940 0.098906
H84   H     H_    0.584332 0.256190 0.125450 0.053123
H85   H     H_    0.072490 0.241896 0.494678 0.062482
H86   H     H_    0.036788 0.774444 0.252740 0.134678
H87   H     H_    0.571768 0.741247 0.494166 0.062388
H88   H     H_    0.536691 0.274516 0.252655 0.134669
H89   H     H_    0.918068 0.243169 0.126106 0.077088
H90   H     H_    0.226096 0.455862 0.332402 0.123353
H91   H     H_    0.918629 0.760582 0.597075 0.072171
H92   H     H_    0.417803 0.743430 0.125865 0.077519
H93   H     H_    0.418892 0.260814 0.598066 0.071972
H94   H     H_    0.176507 0.636780 0.205368 0.084161
H95   H     H_    0.177495 0.363722 0.703484 0.081598
H96   H     H_    0.676500 0.136787 0.205386 0.084159
H97   H     H_    0.677524 0.863745 0.703354 0.081415
H98   H     H_    0.259996 0.663635 0.159106 0.059318
H99   H     H_    0.261103 0.337441 0.662076 0.059114
H100  H     H_    0.759996 0.163640 0.159081 0.059309
H101  H     H_    0.223762 0.545447 0.840575 0.123186
H102  H     H_    0.761057 0.837440 0.662689 0.059094
H103  H     H_    0.821768 0.364588 0.985849 0.081722
H104  H     H_    0.823599 0.636348 0.482450 0.083605
H105  H     H_    0.321773 0.864585 0.985839 0.081812
H106  H     H_    0.323492 0.136304 0.482635 0.083496
H107  H     H_    0.167173 0.781951 0.950481 0.058391
H108  H     H_    0.170860 0.220013 0.435688 0.056951
H109  H     H_    0.667159 0.281958 0.950534 0.058382
H110  H     H_    0.671117 0.720121 0.434352 0.056753
H111  H     H_    0.143930 0.717592 0.762968 0.075090
H112  H     H_    0.726049 0.955845 0.332632 0.123457
H113  H     H_    0.146257 0.284439 0.257148 0.070544
H114  H     H_    0.643921 0.217599 0.762986 0.075041
H115  H     H_    0.646296 0.784508 0.256907 0.070261
H116  H     H_    0.853333 0.284366 0.429911 0.075335
H117  H     H_    0.855137 0.716808 0.926216 0.069332
H118  H     H_    0.353344 0.784359 0.429894 0.075329
H119  H     H_    0.355115 0.216802 0.926270 0.069384
H120  H     H_    0.054901 0.591432 0.849592 0.066573
H121  H     H_    0.055576 0.408957 0.348647 0.066170
H122  H     H_    0.554927 0.091411 0.849547 0.066522
H123  H     H_    0.724262 0.045378 0.837581 0.123156
H124  H     H_    0.555509 0.908912 0.348746 0.066223
H125  H     H_    0.944154 0.409088 0.340627 0.067381
H126  H     H_    0.944669 0.591084 0.839772 0.067062
H127  H     H_    0.444157 0.909086 0.340615 0.067322
H128  H     H_    0.444688 0.091110 0.839702 0.067077
H129  H     H_    0.956679 0.316367 0.008555 0.092996
H130  H     H_    0.957897 0.682735 0.514703 0.085019
H131  H     H_    0.456602 0.816330 0.007282 0.093909
H132  H     H_    0.457916 0.182765 0.515674 0.084475
H133  H     H_    0.982711 0.303743 0.214228 -0.054989
H134  H     H_    0.188455 0.402152 0.281734 0.067530
H135  H     H_    0.984319 0.703959 0.712441 -0.061386
H136  H     H_    0.482372 0.804171 0.213482 -0.054100
H137  H     H_    0.484552 0.204196 0.712901 -0.061395
H138  H     H_    0.949750 0.229475 0.950202 0.132340
H139  H     H_    0.949711 0.765824 0.414751 0.145310
H140  H     H_    0.449882 0.729245 0.951134 0.132323
H141  H     H_    0.449445 0.265652 0.414762 0.145396
H142  H     H_    0.981220 0.214952 0.148528 0.105855
H143  H     H_    0.981557 0.788982 0.601582 0.108242
H144  H     H_    0.480973 0.715264 0.150389 0.106331
O1    O     O_2   0.898940 0.431940 0.867860 -0.460921
O2    O     O_3   0.032115 0.711673 0.529979 -0.600527
O3    O     O_3   0.531096 0.788446 0.038005 -0.607987
O4    O     O_3   0.532134 0.211662 0.529831 -0.600436
O5    O     O_3   0.058810 0.523750 0.066650 -0.494358
O6    O     O_3   0.058810 0.476250 0.566650 -0.494936
O7    O     O_3   0.558810 0.023750 0.066650 -0.494425
O8    O     O_3   0.558810 0.976250 0.566650 -0.494846
O9    O     O_3   0.941140 0.476130 0.123050 -0.493771
O10   O     O_3   0.941140 0.523870 0.623050 -0.493872
O11   O     O_3   0.441140 0.976130 0.123050 -0.493797
O12   O     O_2   0.898940 0.568060 0.367860 -0.459014
O13   O     O_3   0.441140 0.023870 0.623050 -0.493890
O14   O     O_3   0.982430 0.389880 0.635700 -0.483546
O15   O     O_3   0.982430 0.610120 0.135700 -0.486770
O16   O     O_3   0.482430 0.889880 0.635700 -0.483540
O17   O     O_3   0.482430 0.110120 0.135700 -0.486764
O18   O     O_2   0.899062 0.348310 0.735977 -0.487358
O19   O     O_2   0.897051 0.649474 0.229421 -0.483301
O20   O     O_2   0.398967 0.848441 0.735765 -0.487387
O21   O     O_2   0.397045 0.149461 0.229426 -0.483117
O22   O     O_3   0.839406 0.485493 0.021636 -0.635914
O23   O     O_2   0.398940 0.931940 0.867860 -0.460785
O24   O     O_3   0.839057 0.514961 0.522626 -0.636029
O25   O     O_3   0.339404 0.985490 0.021629 -0.635904
O26   O     O_3   0.339062 0.014954 0.522617 -0.636045
O27   O     O_3   0.968680 0.288246 0.646972 -0.604103
O28   O     O_3   0.966861 0.711225 0.157523 -0.613468
O29   O     O_3   0.468586 0.788271 0.647589 -0.604055
O30   O     O_3   0.466845 0.211220 0.157582 -0.613421
O31   O     O_2   0.100770 0.431440 0.821660 -0.457075
O32   O     O_2   0.100770 0.568560 0.321660 -0.458796
O33   O     O_2   0.600770 0.931440 0.821660 -0.457445
O34   O     O_2   0.398940 0.068060 0.367860 -0.458973
O35   O     O_2   0.600770 0.068560 0.321660 -0.458571
O36   O     O_3   0.017130 0.389790 0.053700 -0.484925
O37   O     O_3   0.017130 0.610210 0.553700 -0.488101
O38   O     O_3   0.517130 0.889790 0.053700 -0.485026
O39   O     O_3   0.517130 0.110210 0.553700 -0.487986
O40   O     O_2   0.100891 0.349215 0.954651 -0.496190
O41   O     O_2   0.102260 0.649920 0.460352 -0.484469
O42   O     O_2   0.600817 0.849112 0.954467 -0.495537
O43   O     O_2   0.602279 0.149891 0.460388 -0.484456
O44   O     O_3   0.160473 0.484848 0.669398 -0.635421
O45   O     O_3   0.160809 0.515626 0.168063 -0.635540
O46   O     O_3   0.660470 0.984854 0.669202 -0.635448
O47   O     O_3   0.660809 0.015625 0.168111 -0.635523
O48   O     O_3   0.031180 0.288450 0.037691 -0.607474
P1    P     P_3+3 0.893960 0.447890 0.040050 0.983784
P2    P     P_3+3 0.062815 0.656778 0.584445 0.940674
P3    P     P_3+3 0.562894 0.843426 0.083620 0.936057
P4    P     P_3+3 0.562823 0.156771 0.584432 0.940735
P5    P     P_3+3 0.936309 0.656236 0.104699 0.937421
P6    P     P_3+3 0.936644 0.343413 0.605353 0.950886
P7    P     P_3+3 0.436304 0.156231 0.104712 0.937573
P8    P     P_3+3 0.436618 0.843437 0.605386 0.950685
P9    P     P_3+3 0.893960 0.552110 0.540050 0.983828
P10   P     P_3+3 0.393960 0.947890 0.040050 0.983770
P11   P     P_3+3 0.393960 0.052110 0.540050 0.983897
P12   P     P_3+3 0.105800 0.447360 0.649510 0.984753
P13   P     P_3+3 0.105800 0.552640 0.149510 0.983529
P14   P     P_3+3 0.605800 0.947360 0.649510 0.984697
P15   P     P_3+3 0.605800 0.052640 0.149510 0.983479
P16   P     P_3+3 0.062923 0.343443 0.083629 0.935461

loop_
_geom_bond_atom_site_label_1
_geom_bond_atom_site_label_2
_ccdc_geom_bond_type
Ba4   O8    S    
O23   P10   D    
O38   P3    S    
C59   H131  S    
C15   C16   S    
C3    C51   S    
C98   H5    S    
C51   H88   S    
C102  H46   S    
C59   C94   S    
Ba3   P10   S    
C32   P5    S    
C97   H8    S    
C38   H16   S    
C70   C88   A    
C99   H6    S    
C11   H34   S    
C72   C90   A    
O39   P4    S    
C46   C86   S    
C66   C70   A    
C40   H83   S    
C57   H133  S    
C50   H109  S    
O16   P8    S    
O13   P11   S    
C37   C39   A    
C20   H44   S    
Ba4   O34   S    
O3    P3    S    
C106  H103  S    
C116  H68   S    
C25   C65   S    
C21   C25   A    
O37   P2    S    
O32   P13   D    
C23   C27   A    
C24   C28   A    
C1    C8    S    
O41   P2    D    
Ba4   O39   S    
O14   P6    S    
C48   H107  S    
C104  H53   S    
C44   C83   S    
C5    C73   A    
C62   C106  A    
C5    H126  S    
C18   H50   S    
O20   P8    D    
C4    H125  S    
C114  O27   S    
C7    H128  S    
O28   P5    S    
C104  H24   S    
C15   C40   S    
C71   C89   A    
C62   P1    S    
Ba2   O5    S    
C92   H142  S    
C70   P2    S    
O26   P11   S    
C81   C86   A    
C112  H65   S    
C35   C61   A    
C20   H45   S    
C99   O47   S    
C38   C65   A    
C99   H10   S    
C93   H143  S    
C111  H69   S    
C94   H144  S    
C54   C63   A    
C44   C48   A    
C16   C17   S    
C16   H40   S    
C73   P9    S    
C18   C19   S    
C99   C103  S    
C115  H57   S    
C76   C89   A    
C14   H30   S    
C82   H97   S    
C110  H63   S    
O9    P1    S    
C10   H22   S    
Ba1   O36   S    
C9    H25   S    
C111  H64   S    
C57   C92   S    
C6    C84   A    
O5    P13   S    
C24   C64   S    
C113  H66   S    
C1    H81   S    
C45   C49   A    
Ba3   O13   S    
Ba1   O5    S    
C33   P8    S    
Ba3   O7    S    
C7    C95   A    
C34   P7    S    
O17   P7    S    
C66   H111  S    
Ba3   O33   S    
O19   P5    D    
C60   H132  S    
C13   H105  S    
C109  H62   S    
O48   P16   S    
C100  H11   S    
C19   H49   S    
C5    C32   A    
C100  O46   S    
C107  O24   S    
O44   P12   S    
C27   H117  S    
C112  H74   S    
C54   H18   S    
C9    C10   S    
C108  O25   S    
C66   C83   A    
C49   C56   A    
C31   P6    S    
C58   H135  S    
C97   H4    S    
C42   H100  S    
C20   H47   S    
C36   H14   S    
C40   H87   S    
O4    P4    S    
C113  H75   S    
C58   C93   S    
C68   C86   A    
C59   H136  S    
O46   P14   S    
C58   H130  S    
Ba2   P9    S    
C102  H2    S    
C75   C88   A    
C53   H17   S    
C15   H43   S    
C28   C33   A    
Ba1   O10   S    
C105  C110  S    
C56   H20   S    
C109  C113  S    
C105  O22   S    
C108  H56   S    
C22   C26   A    
C39   H98   S    
Ba3   Ba4   S    
C37   H15   S    
Ba1   P12   S    
C60   H137  S    
C88   H120  S    
C78   C91   A    
C93   H91   S    
C101  H35   S    
C27   C32   A    
Ba4   O11   S    
C108  H61   S    
C98   O44   S    
C1    C114  S    
O18   P6    D    
C89   H121  S    
C58   O2    S    
C77   C90   A    
C56   C65   A    
C76   P12   S    
C104  H123  S    
C52   C54   A    
C78   P14   S    
O27   P6    S    
O1    P1    D    
C67   H113  S    
C23   C63   S    
C38   C41   A    
C95   P11   S    
C96   H141  S    
C92   H138  S    
C6    H127  S    
C26   H116  S    
C71   P16   S    
O47   P15   S    
O24   P9    S    
C50   C53   A    
C77   P15   S    
C79   C83   A    
C17   H39   S    
C17   H38   S    
C108  C112  S    
C76   C80   A    
O45   P13   S    
C79   H94   S    
O10   P9    S    
Ba3   O23   S    
C46   C50   A    
O42   P3    D    
C8    H27   S    
C82   C87   A    
C102  H101  S    
C40   C116  S    
C29   H82   S    
C3    H80   S    
C113  H71   S    
C47   C87   S    
C21   C95   A    
Ba4   P11   S    
C116  H78   S    
C75   P13   S    
C114  H76   S    
Ba3   O38   S    
C2    H104  S    
C18   H51   S    
C80   H95   S    
C91   H124  S    
Ba4   O7    S    
C109  H58   S    
C103  H112  S    
C22   C61   S    
C101  H134  S    
O40   P16   D    
C3    O30   S    
C37   C64   A    
C103  H52   S    
Ba2   O6    S    
C96   H93   S    
Ba1   O31   S    
Ba2   O32   S    
C60   O4    S    
C81   H96   S    
C105  H54   S    
C57   O48   S    
C43   C47   A    
C109  O26   S    
C78   C82   A    
C94   H92   S    
C25   C30   A    
C115  O28   S    
C7    C34   A    
C72   P4    S    
C55   H19   S    
C74   C91   A    
C52   H110  S    
C12   H32   S    
C30   H119  S    
C107  H60   S    
C14   H31   S    
C84   P10   S    
C100  C104  S    
C10   H23   S    
O35   P15   D    
C74   P3    S    
C115  H77   S    
C53   C61   A    
C18   C51   S    
Ba2   P13   S    
C96   H3    S    
Ba1   O14   S    
C103  H13   S    
Ba2   O9    S    
C75   C79   A    
Ba3   O16   S    
C100  H7    S    
C28   H118  S    
C51   H84   S    
O36   P16   S    
Ba2   O37   S    
C69   H115  S    
C101  H90   S    
C19   H48   S    
C60   C96   S    
Ba3   P14   S    
C15   H42   S    
C36   C43   A    
O21   P7    D    
C4    C62   A    
Ba1   P1    S    
C13   C84   A    
O31   P12   D    
C4    C31   A    
C98   H9    S    
C68   C72   A    
C26   C31   A    
C6    C33   A    
C107  H55   S    
O2    P2    S    
C116  O29   S    
Ba1   Ba2   S    
C49   H108  S    
C35   H12   S    
C11   C12   S    
O22   P1    S    
C21   H106  S    
O11   P10   S    
C47   C52   A    
C69   C74   A    
Ba4   O35   S    
C41   C45   A    
C14   H29   S    
C39   C44   A    
C22   C106  A    
C111  H73   S    
C10   H21   S    
C9    H26   S    
O25   P10   S    
C97   C101  S    
C29   H86   S    
C110  H72   S    
O12   P9    D    
O8    P14   S    
C69   C87   A    
Ba2   O15   S    
C2    C73   A    
Ba1   O6    S    
Ba2   O12   S    
C36   C63   A    
Ba4   P15   S    
Ba3   O8    S    
C114  H1    S    
C48   C55   A    
C55   C64   A    
C105  H59   S    
C2    C23   A    
C67   C85   A    
C19   C20   S    
Ba4   O17   S    
C97   O45   S    
C8    C9    S    
C11   H36   S    
C35   C42   A    
C57   H129  S    
C43   H102  S    
C29   C115  S    
O34   P11   D    
C41   H99   S    
C80   C85   A    
C12   H33   S    
O29   P8    S    
C93   H139  S    
O30   P7    S    
C94   H140  S    
C112  H70   S    
C92   H89   S    
C30   C34   A    
C13   C24   A    
C17   H37   S    
C45   C85   S    
O7    P15   S    
C42   C46   A    
C8    H28   S    
C90   H122  S    
C67   C71   A    
C16   H41   S    
C68   H114  S    
C98   C102  S    
C3    H79   S    
C77   C81   A    
C1    H85   S    
O15   P5    S    
Ba1   O1    S    
C12   C14   S    
C110  H67   S    
O6    P12   S    
C107  C111  S    
O43   P4    D    
C59   O3    S    
C11   C29   S    
O33   P14   D    
