data_mof_unit_40836.cif
_audit_creation_date              2012-10-26T21:02:59-0400
_audit_creation_method            fapswitch 2.2
_symmetry_space_group_name_H-M    P1
_symmetry_Int_Tables_number       1
_space_group_crystal_system       triclinic
_cell_length_a                    12.311278
_cell_length_b                    13.298826
_cell_length_c                    23.43834
_cell_angle_alpha                 77.814551
_cell_angle_beta                  101.641055
_cell_angle_gamma                 116.61121
_cell_volume                      3328.29842166

loop_
_atom_site_label
_atom_site_type_symbol
_atom_type_description
_atom_site_fract_x
_atom_site_fract_y
_atom_site_fract_z
_atom_type_partial_charge
C1    C     C_R   0.854715 0.287972 0.501509 0.582485
C2    C     C_R   0.944101 0.554602 0.868842 0.430581
C3    C     C_R   0.110609 0.564343 0.763778 -0.070812
C4    C     C_R   0.999909 0.499877 0.608756 0.545811
C5    C     C_R   0.109964 0.562029 0.704598 -0.135913
C6    C     C_R   0.000594 0.500972 0.670942 -0.008297
C7    C     C_R   0.892268 0.440243 0.697051 -0.120610
C8    C     C_R   0.893187 0.438712 0.756916 0.155023
C9    C     C_R   0.002826 0.502717 0.790499 0.235452
C10   C     C_R   0.973279 0.404166 0.247226 0.142633
C11   C     C_R   0.971868 0.400956 0.307491 0.221093
C12   C     C_R   0.173149 0.434183 0.054288 0.266085
C13   C     C_R   0.006589 0.502875 0.329644 -0.000097
C14   C     C_R   0.053914 0.607213 0.293809 -0.206549
C15   C     C_R   0.063861 0.610657 0.235279 -0.091721
C16   C     C_R   0.145319 0.712755 0.493327 0.539739
C17   C     C_R   0.022654 0.509721 0.211445 0.199377
C18   C     C_R   0.265527 0.029877 0.473452 -0.100936
C19   C     C_R   0.228612 0.833134 0.489268 0.005642
C20   C     C_R   0.820373 0.087470 0.519710 -0.149423
C21   C     C_R   0.744239 0.972715 0.528146 -0.137366
C22   C     C_R   0.618300 0.935906 0.517099 -0.108634
C23   C     C_R   0.162464 0.426822 0.994421 -0.106066
C24   C     C_R   0.565410 0.013297 0.492688 -0.016090
C25   C     C_R   0.643597 0.129426 0.477617 0.018373
C26   C     C_R   0.437142 0.979431 0.484991 -0.002227
C27   C     C_R   0.390162 0.062679 0.470287 0.024590
C28   C     C_R   0.001238 0.500990 0.391380 0.589076
C29   C     C_R   0.466076 0.174303 0.448443 0.053462
C30   C     C_R   0.589549 0.201603 0.443594 0.288219
C31   C     C_R   0.353840 0.864987 0.491638 -0.118474
C32   C     C_R   0.185332 0.915939 0.482791 -0.133599
C33   C     C_R   0.771954 0.167499 0.497040 0.017247
C34   C     C_R   0.087024 0.466820 0.952507 -0.013514
C35   C     C_R   0.345604 0.327785 0.593292 0.063099
C36   C     C_R   0.759746 0.646251 0.421951 0.056504
C37   C     C_R   0.665818 0.681735 0.407214 -0.153552
C38   C     C_R   0.564379 0.629382 0.438169 -0.117295
C39   C     C_R   0.555442 0.540089 0.484561 0.018224
C40   C     C_R   0.952426 0.554469 0.109428 0.406067
C41   C     C_R   0.655090 0.507971 0.498600 0.206769
C42   C     C_R   0.450647 0.479766 0.516560 -0.007604
C43   C     C_R   0.449036 0.390553 0.562720 0.056928
C44   C     C_R   0.549593 0.364172 0.576774 -0.140689
C45   C     C_R   0.019208 0.513099 0.970780 -0.040553
C46   C     C_R   0.649233 0.420897 0.545447 -0.086468
C47   C     C_R   0.344686 0.501008 0.503302 0.046064
C48   C     C_R   0.245184 0.353806 0.577678 0.069009
C49   C     C_R   0.102530 0.479650 0.133253 0.444924
C50   C     C_R   0.100936 0.475982 0.073362 0.040278
C51   C     C_R   0.023991 0.515513 0.031210 -0.069046
C52   C     C_R   0.951190 0.557242 0.049261 0.036204
C53   C     C_3   0.371620 0.461560 0.089504 0.021101
C54   C     C_3   0.437058 0.387963 0.088183 -0.272878
C55   C     C_3   0.573884 0.459437 0.085220 -0.455472
C56   C     C_R   0.945927 0.556438 0.928669 0.044617
C57   C     C_3   0.992173 0.244333 0.363023 0.034392
C58   C     C_3   0.912505 0.116584 0.374477 -0.251758
C59   C     C_3   0.986614 0.051904 0.407793 -0.486864
C60   C     C_3   0.588990 0.289421 0.346094 0.018927
C61   C     C_3   0.669018 0.309048 0.299621 -0.243859
C62   C     C_3   0.601873 0.316102 0.237644 -0.479993
C63   C     C_R   0.876303 0.600305 0.947235 -0.110809
C64   C     C_R   0.877892 0.599580 0.006930 -0.122181
C65   C     C_R   0.077385 0.461365 0.892441 0.413404
Cu1   Cu    Cu3+1 0.098270 0.475410 0.513370 0.942087
Cu2   Cu    Cu3+1 0.901730 0.524590 0.486630 0.975593
H1    H     H_    0.084085 0.685898 0.311366 0.120319
H2    H     H_    0.165297 0.306509 0.600680 0.152035
H3    H     H_    0.552182 0.297606 0.611856 0.160170
H4    H     H_    0.337627 0.566266 0.468760 0.123304
H5    H     H_    0.838498 0.687979 0.397980 0.125549
H6    H     H_    0.494711 0.660601 0.424902 0.101183
H7    H     H_    0.671816 0.750307 0.371761 0.110356
H8    H     H_    0.719496 0.392314 0.559615 0.171504
H9    H     H_    0.819054 0.633883 0.915774 0.172614
H10   H     H_    0.821770 0.632642 0.019761 0.159413
H11   H     H_    0.195299 0.613604 0.789171 0.147225
H12   H     H_    0.101337 0.691925 0.207904 0.152056
H13   H     H_    0.194219 0.609453 0.684789 0.139464
H14   H     H_    0.807934 0.391225 0.671324 0.122350
H15   H     H_    0.411688 0.506205 0.128938 0.177056
H16   H     H_    0.389495 0.528151 0.050041 0.110425
H17   H     H_    0.423837 0.323982 0.128320 0.187265
H18   H     H_    0.396548 0.342173 0.049138 0.181652
H19   H     H_    0.589143 0.521523 0.044357 0.159237
H20   H     H_    0.618838 0.403378 0.085102 0.179956
H21   H     H_    0.616500 0.505833 0.123948 0.184126
H22   H     H_    0.046327 0.275100 0.404904 0.180444
H23   H     H_    0.089178 0.892712 0.483211 0.129523
H24   H     H_    0.056675 0.259656 0.331496 0.170917
H25   H     H_    0.838709 0.100463 0.400369 0.189369
H26   H     H_    0.868439 0.083824 0.331884 0.192184
H27   H     H_    0.061485 0.067133 0.382820 0.174395
H28   H     H_    0.926151 0.959505 0.413677 0.142989
H29   H     H_    0.025534 0.079248 0.451893 0.149363
H30   H     H_    0.561538 0.360734 0.336600 0.191711
H31   H     H_    0.506046 0.208064 0.340341 0.134990
H32   H     H_    0.750913 0.390522 0.303732 0.208682
H33   H     H_    0.695491 0.237467 0.306451 0.226429
H34   H     H_    0.227937 0.091018 0.467582 0.150731
H35   H     H_    0.519816 0.235043 0.231605 0.158971
H36   H     H_    0.663729 0.332352 0.204935 0.190413
H37   H     H_    0.573278 0.386656 0.229541 0.158247
H38   H     H_    0.384015 0.799035 0.495786 0.119109
H39   H     H_    0.917586 0.113656 0.533086 0.141185
H40   H     H_    0.565277 0.846715 0.530111 0.113201
H41   H     H_    0.782858 0.912253 0.546657 0.134536
H42   H     H_    0.214623 0.390169 0.981066 0.171833
I1    I     I_    0.389785 0.295885 0.415838 -0.478164
I2    I     I_    0.330397 0.191210 0.662298 -0.345344
I3    I     I_    0.728876 0.332506 0.794528 -0.243625
I4    I     I_    0.887034 0.250309 0.209313 -0.347348
N1    N     N_R   0.026301 0.515068 0.149956 -0.392248
N2    N     N_R   0.006787 0.504971 0.851954 -0.386673
N3    N     N_R   0.246280 0.438190 0.533650 -0.256649
N4    N     N_R   0.754320 0.561190 0.466710 -0.223296
O1    O     O_R   0.972510 0.318130 0.516820 -0.522217
O2    O     O_R   0.082990 0.479280 0.429170 -0.505777
O3    O     O_R   0.917010 0.520800 0.406580 -0.480115
O4    O     O_2   0.879437 0.589798 0.127438 -0.520671
O5    O     O_3   0.246086 0.390718 0.094328 -0.509088
O6    O     O_3   0.913548 0.298731 0.341886 -0.587533
O7    O     O_3   0.656013 0.291607 0.403361 -0.516271
O8    O     O_2   0.178647 0.447602 0.174721 -0.432022
O9    O     O_2   0.137940 0.412718 0.874589 -0.481419
O10   O     O_2   0.880619 0.602354 0.827846 -0.467296
O11   O     O_R   0.806530 0.359650 0.494230 -0.470946
O12   O     O_R   0.082990 0.479200 0.593420 -0.490794
O13   O     O_R   0.917010 0.520720 0.570830 -0.523789
O14   O     O_R   0.193470 0.640350 0.505770 -0.517719
O15   O     O_R   0.027490 0.681870 0.483180 -0.517209

loop_
_geom_bond_atom_site_label_1
_geom_bond_atom_site_label_2
_ccdc_geom_bond_type
C37   H7    S    
C27   C29   A    
C65   N2    A    
C64   H10   S    
Cu2   O15   S    
C1    O11   A    
C48   H2    S    
C19   C31   A    
C54   H17   S    
C1    C33   S    
C7    C8    A    
C39   C41   A    
C53   C54   S    
C40   O4    S    
C12   C23   A    
C26   C27   A    
C29   C30   A    
Cu1   N3    S    
C36   C37   A    
C58   H26   S    
C24   C26   A    
C62   H36   S    
C60   H31   S    
C53   O5    S    
C8    I3    S    
C38   C39   A    
C63   H9    S    
C45   C51   A    
C10   C17   A    
C22   H40   S    
C55   H21   S    
C60   O7    S    
C16   O14   A    
C40   N1    A    
C45   C56   A    
C8    C9    A    
C41   C46   A    
C13   C28   S    
C44   H3    S    
C59   H27   S    
C35   C43   A    
Cu2   O3    S    
C20   H39   S    
C48   N3    A    
Cu1   O12   S    
C2    O10   S    
C49   N1    A    
C26   C31   A    
C13   C14   A    
C31   H38   S    
C61   H32   S    
C59   H28   S    
C35   C48   A    
C34   C65   A    
C46   H8    S    
C44   C46   A    
C17   N1    S    
C39   C42   A    
C62   H37   S    
C47   N3    A    
C23   H42   S    
C32   H23   S    
C51   C52   A    
C9    N2    S    
C29   I1    S    
C24   C25   A    
C4    C6    S    
C60   H30   S    
C28   O3    A    
Cu1   O1    S    
C4    O13   A    
C58   C59   S    
C40   C52   A    
C60   C61   S    
C18   H34   S    
C43   C44   A    
C37   C38   A    
C3    C9    A    
C57   O6    S    
C2    N2    A    
C23   C34   A    
C19   C32   A    
C50   C51   A    
C56   C63   A    
C34   C45   A    
C5    H13   S    
C36   N4    A    
Cu2   N4    S    
C47   H4    S    
C6    C7    A    
C10   I4    S    
C57   H22   S    
C20   C33   A    
C7    H14   S    
C30   O7    S    
Cu1   O2    S    
C52   C64   A    
C22   C24   A    
C61   H33   S    
C18   C32   A    
C42   C43   A    
C35   I2    S    
Cu1   O14   S    
C25   C30   A    
C15   C17   A    
C54   C55   S    
C57   H24   S    
C11   O6    S    
C18   C27   A    
C3    C5    A    
C28   O2    A    
C54   H18   S    
C12   C50   A    
C4    O12   A    
C15   H12   S    
C49   O8    S    
C53   H16   S    
C65   O9    S    
C55   H19   S    
C2    C56   A    
Cu2   O11   S    
C11   C13   A    
C57   C58   S    
C5    C6    A    
C16   C19   S    
Cu1   Cu2   S    
C1    O1    A    
C55   H20   S    
C61   C62   S    
C16   O15   A    
C21   H41   S    
C10   C11   A    
C63   C64   A    
Cu2   O13   S    
C42   C47   A    
C12   O5    S    
C20   C21   A    
C49   C50   A    
C59   H29   S    
C14   H1    S    
C14   C15   A    
C53   H15   S    
C41   N4    A    
C21   C22   A    
C3    H11   S    
C58   H25   S    
C36   H5    S    
C25   C33   A    
C62   H35   S    
C38   H6    S    
