data_mof_unit_36103.cif
_audit_creation_date              2012-12-10T17:19:27-0500
_audit_creation_method            fapswitch 2.2
_symmetry_space_group_name_H-M    P1
_symmetry_Int_Tables_number       1
_space_group_crystal_system       triclinic
_cell_length_a                    15.084388
_cell_length_b                    10.819855
_cell_length_c                    9.615767
_cell_angle_alpha                 90.252217
_cell_angle_beta                  89.289153
_cell_angle_gamma                 95.105463
_cell_volume                      1563.04257329

loop_
_atom_site_label
_atom_site_type_symbol
_atom_type_description
_atom_site_fract_x
_atom_site_fract_y
_atom_site_fract_z
_atom_type_partial_charge
C1    C     C_R   0.504752 0.262630 0.500150 0.802748
C2    C     C_R   0.183382 0.486157 0.626369 -0.201419
C3    C     C_R   0.232417 0.505238 0.502173 -0.063512
C4    C     C_R   0.328857 0.500468 0.500792 0.828892
C5    C     C_R   0.189259 0.530953 0.378789 -0.200377
C6    C     C_R   0.553091 0.117527 0.749566 -0.167006
C7    C     C_R   0.541300 0.057906 0.877692 -0.001580
C8    C     C_R   0.488515 0.945810 0.886517 -0.215570
C9    C     C_R   0.456695 0.886092 0.765527 0.167196
C10   C     C_R   0.482412 0.936476 0.633216 0.056551
C11   C     C_R   0.515295 0.062199 0.628025 0.053936
C12   C     C_R   0.910721 0.525691 0.371789 0.009209
C13   C     C_R   0.507324 0.127545 0.501861 -0.090829
C14   C     C_R   0.487881 0.061246 0.378931 -0.146654
C15   C     C_R   0.479117 0.932977 0.379741 -0.197530
C16   C     C_R   0.490086 0.735736 0.501266 0.828968
C17   C     C_R   0.478487 0.868815 0.505921 -0.088262
C18   C     C_R   0.613397 0.670827 0.152502 -0.195344
C19   C     C_R   0.664995 0.767913 0.094653 -0.104923
C20   C     C_R   0.670598 0.777985 0.952636 0.089992
C21   C     C_R   0.622331 0.689005 0.867194 -0.111367
C22   C     C_R   0.558605 0.589678 0.926082 0.154358
C23   C     C_R   0.949167 0.470454 0.748599 -0.137287
C24   C     C_R   0.556888 0.585991 0.076310 0.188942
C25   C     C_R   0.445474 0.418596 0.073394 0.062213
C26   C     C_R   0.446004 0.418511 0.925969 -0.070163
C27   C     C_R   0.671012 0.493645 0.498439 0.838384
C28   C     C_R   0.817729 0.498775 0.368226 0.147938
C29   C     C_R   0.768524 0.492993 0.495098 -0.118885
C30   C     C_R   0.813254 0.488668 0.621757 -0.234757
C31   C     C_R   0.905403 0.489284 0.623697 0.115243
C32   C     C_R   0.954528 0.509777 0.499018 0.007973
C33   C     C_1   0.579234 0.115539 0.000952 0.246201
C34   C     C_R   0.041499 0.469726 0.750050 -0.173520
C35   C     C_1   0.384260 0.330030 0.144235 0.281851
C36   C     C_1   0.714356 0.855301 0.185533 0.350563
C37   C     C_1   0.651016 0.713710 0.726671 0.424133
C38   C     C_R   0.091109 0.489403 0.626784 0.109644
C39   C     C_R   0.047663 0.511720 0.501297 0.081206
C40   C     C_R   0.097288 0.534473 0.377736 0.069312
C41   C     C_R   0.054685 0.564581 0.255993 -0.221594
C42   C     C_R   0.962333 0.564674 0.253098 0.183198
Cu1   Cu    Cu3+1 0.499990 0.499990 0.640660 0.966993
Cu2   Cu    Cu3+1 0.500010 0.500010 0.359340 0.976955
H1    H     H_    0.593376 0.205379 0.745633 0.172333
H2    H     H_    0.227186 0.548648 0.283282 0.164086
H3    H     H_    0.093562 0.592372 0.163978 0.170714
H4    H     H_    0.480408 0.108276 0.281387 0.182727
H5    H     H_    0.470647 0.905971 0.987330 0.153892
H6    H     H_    0.472465 0.884156 0.281272 0.163874
H7    H     H_    0.620694 0.666482 0.260617 0.225699
H8    H     H_    0.776173 0.479704 0.719090 0.177967
H9    H     H_    0.401732 0.351961 0.870098 0.139017
H10   H     H_    0.911759 0.453878 0.844609 0.183377
H11   H     H_    0.074011 0.453283 0.847280 0.157085
H12   H     H_    0.216746 0.467501 0.722285 0.166481
I1    I     I_    0.761879 0.408701 0.185314 -0.291468
I2    I     I_    0.345403 0.753502 0.795464 -0.369034
I3    I     I_    0.760865 0.929318 0.871324 -0.274613
I4    I     I_    0.913029 0.660703 0.081504 -0.326488
N1    N     N_R   0.500860 0.501210 0.147910 -0.208295
N2    N     N_R   0.500890 0.501290 0.852040 -0.187998
N3    N     N_1   0.610278 0.161839 0.099699 -0.233904
N4    N     N_1   0.334702 0.258640 0.200563 -0.287346
N5    N     N_1   0.753598 0.925012 0.258629 -0.204380
N6    N     N_1   0.678023 0.742045 0.616781 -0.290686
O1    O     O_R   0.499990 0.319640 0.618810 -0.599221
O2    O     O_R   0.500000 0.319660 0.381240 -0.563097
O3    O     O_R   0.370250 0.499960 0.618800 -0.568246
O4    O     O_R   0.370260 0.499980 0.381230 -0.586526
O5    O     O_R   0.500000 0.680340 0.618760 -0.574336
O6    O     O_R   0.500010 0.680360 0.381190 -0.616520
O7    O     O_R   0.629740 0.500020 0.618770 -0.601190
O8    O     O_R   0.629750 0.500040 0.381200 -0.575928

loop_
_geom_bond_atom_site_label_1
_geom_bond_atom_site_label_2
_ccdc_geom_bond_type
Cu1   O7    S    
C24   N1    A    
C6    H1    S    
C27   C29   S    
C41   C42   A    
C19   C20   A    
C16   O6    A    
C4    O4    A    
C7    C8    A    
C28   I1    S    
C12   C28   A    
C18   C24   A    
C21   C22   A    
C28   C29   A    
C18   C19   A    
C19   C36   S    
C38   C39   A    
C32   C39   A    
C10   C17   A    
C1    O2    A    
C9    I2    S    
C15   H6    S    
C12   C42   A    
C8    C9    A    
Cu2   O4    S    
C35   N4    T    
C27   O8    A    
C9    C10   A    
C34   H11   S    
Cu1   O3    S    
C13   C14   A    
C12   C32   A    
C7    C33   S    
C16   O5    A    
C4    O3    A    
C18   H7    S    
C42   I4    S    
C6    C11   A    
C36   N5    T    
C16   C17   S    
C14   H4    S    
C25   C26   A    
C23   C31   A    
Cu1   Cu2   S    
C29   C30   A    
C22   N2    A    
C2    C38   A    
C31   C32   A    
C33   N3    T    
C23   C34   A    
C37   N6    T    
C41   H3    S    
C25   N1    A    
C20   I3    S    
Cu2   O8    S    
C25   C35   S    
C40   C41   A    
C22   C24   A    
Cu2   O2    S    
C1    C13   S    
C3    C4    S    
C26   H9    S    
C39   C40   A    
C23   H10   S    
C15   C17   A    
C30   H8    S    
Cu1   O5    S    
C34   C38   A    
C3    C5    A    
C6    C7    A    
Cu2   N1    S    
C5    H2    S    
C2    C3    A    
C26   N2    A    
C2    H12   S    
C11   C13   A    
C30   C31   A    
C1    O1    A    
Cu2   O6    S    
C10   C11   A    
C21   C37   S    
C20   C21   A    
Cu1   O1    S    
C5    C40   A    
C14   C15   A    
C27   O7    A    
C8    H5    S    
Cu1   N2    S    
