data_mof_unit_59209.cif
_audit_creation_date              2012-12-11T15:18:04-0500
_audit_creation_method            fapswitch 2.2
_symmetry_space_group_name_H-M    P1
_symmetry_Int_Tables_number       1
_space_group_crystal_system       triclinic
_cell_length_a                    15.663413
_cell_length_b                    15.663223
_cell_length_c                    34.375641
_cell_angle_alpha                 90.055275
_cell_angle_beta                  90.054248
_cell_angle_gamma                 119.435423
_cell_volume                      7344.98485447

loop_
_atom_site_label
_atom_site_type_symbol
_atom_type_description
_atom_site_fract_x
_atom_site_fract_y
_atom_site_fract_z
_atom_type_partial_charge
C1    C     C_R   0.577642 0.442230 0.554652 0.573510
C2    C     C_R   0.499283 0.978786 0.212617 0.360204
C3    C     C_2   0.630406 0.946521 0.086256 0.605132
C4    C     C_2   0.318107 0.370523 0.087276 0.600042
C5    C     C_2   0.059950 0.690303 0.088749 0.594603
C6    C     C_2   0.990433 0.336127 0.671379 0.617810
C7    C     C_2   0.668443 0.653795 0.670818 0.610215
C8    C     C_2   0.304320 0.934432 0.651050 0.613373
C9    C     C_2   0.335909 0.989934 0.171466 0.617730
C10   C     C_2   0.653709 0.668526 0.170842 0.610193
C11   C     C_2   0.934555 0.304354 0.151079 0.613386
C12   C     C_R   0.485032 0.503369 0.212270 0.364696
C13   C     C_R   0.930210 0.462257 0.199708 0.363617
C14   C     C_R   0.007284 0.434095 0.852835 0.242963
C15   C     C_R   0.568026 0.571350 0.853658 0.241590
C16   C     C_R   0.333876 0.832867 0.836260 0.245118
C17   C     C_R   0.434148 0.007242 0.352832 0.242977
C18   C     C_R   0.571321 0.568046 0.353668 0.241594
C19   C     C_R   0.832887 0.333892 0.336259 0.245122
C20   C     C_R   0.042584 0.447165 0.890853 -0.083377
C21   C     C_R   0.558078 0.135094 0.554619 0.568803
C22   C     C_R   0.554347 0.592416 0.891798 -0.088327
C23   C     C_R   0.326150 0.819637 0.876384 -0.089076
C24   C     C_R   0.447197 0.042571 0.390846 -0.083389
C25   C     C_R   0.592409 0.554358 0.391804 -0.088333
C26   C     C_R   0.819652 0.326159 0.376383 -0.089077
C27   C     C_R   0.065623 0.611701 0.891814 -0.130857
C28   C     C_R   0.386470 0.459736 0.890406 -0.126685
C29   C     C_R   0.487561 0.834964 0.878945 -0.129591
C30   C     C_R   0.611734 0.065618 0.391827 -0.130859
C31   C     C_R   0.459710 0.386489 0.390416 -0.126681
C32   C     C_R   0.864762 0.422488 0.554688 0.593307
C33   C     C_R   0.834953 0.487562 0.378947 -0.129591
C34   C     C_R   0.030624 0.599437 0.853781 -0.115231
C35   C     C_R   0.399332 0.438214 0.852314 -0.138678
C36   C     C_R   0.496231 0.848999 0.838665 -0.136529
C37   C     C_R   0.599493 0.030598 0.353799 -0.115250
C38   C     C_R   0.438166 0.399359 0.352329 -0.138680
C39   C     C_R   0.848992 0.496238 0.338668 -0.136536
C40   C     C_R   0.004838 0.512387 0.833395 0.040866
C41   C     C_R   0.488540 0.495829 0.833036 0.039413
C42   C     C_R   0.420843 0.850872 0.817147 0.043369
C43   C     C_R   0.442227 0.577644 0.054654 0.573507
C44   C     C_R   0.512450 0.004785 0.333407 0.040886
C45   C     C_R   0.495779 0.488568 0.333051 0.039422
C46   C     C_R   0.850881 0.420858 0.317148 0.043374
C47   C     C_R   0.076446 0.537354 0.909875 -0.021188
C48   C     C_R   0.462546 0.539925 0.909736 -0.017779
C49   C     C_R   0.403491 0.823227 0.898234 -0.024887
C50   C     C_R   0.537374 0.076443 0.409876 -0.021189
C51   C     C_R   0.539918 0.462556 0.409741 -0.017777
C52   C     C_R   0.823228 0.403493 0.398234 -0.024883
C53   C     C_R   0.577886 0.442242 0.445535 0.549609
C54   C     C_R   0.135089 0.558075 0.054617 0.568837
C55   C     C_R   0.557862 0.135329 0.445527 0.548487
C56   C     C_R   0.809208 0.391750 0.440659 0.558719
C57   C     C_R   0.442241 0.577885 0.945535 0.549615
C58   C     C_R   0.135327 0.557858 0.945528 0.548502
C59   C     C_R   0.391751 0.809208 0.940659 0.558721
C60   C     C_R   0.922031 0.457456 0.591217 -0.024420
C61   C     C_R   0.543135 0.465452 0.591121 -0.028436
C62   C     C_R   0.530174 0.065845 0.587839 -0.030595
C63   C     C_R   0.457420 0.921993 0.091227 -0.024402
C64   C     C_R   0.465435 0.543153 0.091129 -0.028411
C65   C     C_R   0.422483 0.864760 0.054688 0.593421
C66   C     C_R   0.065840 0.530165 0.087838 -0.030593
C67   C     C_R   0.939678 0.390724 0.612233 -0.134798
C68   C     C_R   0.610461 0.549175 0.611852 -0.137168
C69   C     C_R   0.435744 0.029905 0.603488 -0.132326
C70   C     C_R   0.390604 0.939443 0.112278 -0.134889
C71   C     C_R   0.549137 0.610497 0.111865 -0.137214
C72   C     C_R   0.029960 0.435758 0.103501 -0.132334
C73   C     C_R   0.968340 0.407210 0.651277 0.042592
C74   C     C_R   0.595254 0.562491 0.650866 0.038921
C75   C     C_R   0.407749 0.976079 0.638030 0.043877
C76   C     C_R   0.978940 0.499253 0.712599 0.360221
C77   C     C_R   0.407092 0.968052 0.151327 0.042545
C78   C     C_R   0.562429 0.595310 0.150884 0.038908
C79   C     C_R   0.976142 0.407766 0.138045 0.043863
C80   C     C_R   0.975557 0.490875 0.670040 -0.010944
C81   C     C_R   0.511412 0.488609 0.669774 -0.012546
C82   C     C_R   0.478029 0.962203 0.658775 -0.013621
C83   C     C_R   0.490851 0.975415 0.170060 -0.010972
C84   C     C_R   0.488549 0.511461 0.169790 -0.012546
C85   C     C_R   0.962217 0.478032 0.158778 -0.013632
C86   C     C_R   0.969773 0.563145 0.648138 -0.118885
C87   C     C_R   0.503326 0.485103 0.712254 0.364699
C88   C     C_R   0.438567 0.411227 0.648166 -0.124194
C89   C     C_R   0.569381 0.990418 0.641773 -0.121663
C90   C     C_R   0.563183 0.969825 0.148126 -0.118862
C91   C     C_R   0.411186 0.438602 0.148179 -0.124190
C92   C     C_R   0.990364 0.569355 0.141760 -0.121648
C93   C     C_R   0.945751 0.548841 0.608489 0.036019
C94   C     C_R   0.452174 0.399737 0.608659 0.038202
C95   C     C_R   0.595386 0.039335 0.605926 0.038909
C96   C     C_R   0.548870 0.945859 0.108471 0.036009
C97   C     C_R   0.399715 0.452196 0.108669 0.038210
C98   C     C_R   0.462235 0.930184 0.699704 0.363614
C99   C     C_R   0.039268 0.595349 0.105908 0.038910
C100  C     C_R   0.988661 0.509839 0.791172 0.368809
C101  C     C_R   0.492161 0.484242 0.790751 0.366213
C102  C     C_R   0.435977 0.878019 0.775737 0.374199
C103  C     C_R   0.509913 0.988571 0.291188 0.368861
C104  C     C_R   0.484175 0.492191 0.290767 0.366224
C105  C     C_R   0.878039 0.436002 0.275740 0.374213
C106  C     C_2   0.946169 0.630310 0.586315 0.605124
C107  C     C_2   0.370509 0.318117 0.587267 0.600048
C108  C     C_2   0.690389 0.060111 0.588789 0.594589
Cl1   Cl    Cl    0.978985 0.322568 0.829818 -0.491891
Cl2   Cl    Cl    0.682430 0.649824 0.832123 -0.503854
Cl3   Cl    Cl    0.230967 0.822618 0.811182 -0.520837
Cl4   Cl    Cl    0.322638 0.978918 0.329796 -0.491846
Cl5   Cl    Cl    0.649793 0.682448 0.332131 -0.503871
Cl6   Cl    Cl    0.822658 0.230993 0.311177 -0.520813
Cr1   Cr    Cr6+3 0.522350 0.263930 0.500020 1.081553
Cr2   Cr    Cr6+3 0.736070 0.258420 0.500020 1.088446
Cr3   Cr    Cr6+3 0.741580 0.477650 0.500020 1.075417
Cr4   Cr    Cr6+3 0.263930 0.522350 0.000020 1.081533
Cr5   Cr    Cr6+3 0.258420 0.736070 0.000020 1.088449
Cr6   Cr    Cr6+3 0.477650 0.741580 0.000020 1.075429
H1    H     H_    0.927451 0.323313 0.598508 0.192922
H2    H     H_    0.388622 0.049502 0.404552 0.173170
H3    H     H_    0.654158 0.614002 0.406521 0.172554
H4    H     H_    0.806599 0.259129 0.390570 0.153435
H5    H     H_    0.980811 0.629628 0.662388 0.188327
H6    H     H_    0.372281 0.357475 0.662612 0.187400
H7    H     H_    0.621719 0.976159 0.657019 0.186447
H8    H     H_    0.629731 0.980983 0.162355 0.188397
H9    H     H_    0.357433 0.372315 0.162624 0.187391
H10   H     H_    0.976059 0.621675 0.156995 0.186477
H11   H     H_    0.089690 0.681442 0.906148 0.153253
H12   H     H_    0.677717 0.602831 0.598001 0.202758
H13   H     H_    0.314969 0.417704 0.903697 0.160072
H14   H     H_    0.547095 0.834961 0.894989 0.161734
H15   H     H_    0.681469 0.089696 0.406167 0.153248
H16   H     H_    0.417676 0.314987 0.403708 0.160066
H17   H     H_    0.834939 0.547090 0.394992 0.161732
H18   H     H_    0.027966 0.659824 0.839605 0.196786
H19   H     H_    0.337727 0.379424 0.837192 0.167860
H20   H     H_    0.563175 0.861573 0.824505 0.174135
H21   H     H_    0.659889 0.027941 0.339630 0.196739
H22   H     H_    0.379362 0.337760 0.337209 0.167838
H23   H     H_    0.383060 0.044427 0.588719 0.193553
H24   H     H_    0.861559 0.563181 0.324508 0.174119
H25   H     H_    0.976719 0.705704 0.535944 0.344136
H26   H     H_    0.257284 0.179620 0.588778 0.358409
H27   H     H_    0.833251 0.103704 0.597745 0.361903
H28   H     H_    0.705640 0.977165 0.035842 0.344161
H29   H     H_    0.179603 0.257313 0.088778 0.358410
H30   H     H_    0.103354 0.833136 0.097676 0.361808
H31   H     H_    0.970297 0.198660 0.673606 0.368548
H32   H     H_    0.808025 0.764890 0.673305 0.368937
H33   H     H_    0.180977 0.945003 0.650917 0.366642
H34   H     H_    0.323129 0.927101 0.098578 0.192959
H35   H     H_    0.198316 0.969433 0.173762 0.368587
H36   H     H_    0.764761 0.808133 0.173333 0.368950
H37   H     H_    0.945220 0.181061 0.150969 0.366677
H38   H     H_    0.602794 0.677754 0.098016 0.202652
H39   H     H_    0.044525 0.383087 0.088744 0.193573
H40   H     H_    0.049506 0.388596 0.904570 0.173184
H41   H     H_    0.613997 0.654150 0.906519 0.172563
H42   H     H_    0.259120 0.806577 0.890573 0.153436
N1    N     N_R   0.923887 0.425606 0.773150 -0.119790
N2    N     N_R   0.420573 0.918676 0.234598 -0.161315
N3    N     N_R   0.501651 0.581766 0.234427 -0.163343
N4    N     N_R   0.962624 0.416094 0.223940 -0.156077
N5    N     N_R   0.040697 0.584969 0.730515 -0.159609
N6    N     N_R   0.417794 0.463661 0.729918 -0.180676
N7    N     N_R   0.498233 0.873731 0.714463 -0.183919
N8    N     N_R   0.584970 0.040669 0.230522 -0.159609
N9    N     N_R   0.463606 0.417837 0.229932 -0.180715
N10   N     N_R   0.873712 0.498211 0.214461 -0.183945
N11   N     N_R   0.045748 0.589967 0.769175 -0.156986
N12   N     N_R   0.576315 0.501563 0.772971 -0.118980
N13   N     N_R   0.412519 0.463713 0.768538 -0.197733
N14   N     N_R   0.485240 0.847987 0.751878 -0.186174
N15   N     N_R   0.589990 0.045750 0.269181 -0.156926
N16   N     N_R   0.463659 0.412556 0.268551 -0.197740
N17   N     N_R   0.847966 0.485219 0.251876 -0.186174
N18   N     N_R   0.403030 0.936858 0.761142 -0.121041
N19   N     N_R   0.425719 0.923673 0.273178 -0.119840
N20   N     N_R   0.501479 0.576344 0.272990 -0.118981
N21   N     N_R   0.936924 0.403103 0.261151 -0.121066
N22   N     N_R   0.918922 0.420481 0.734569 -0.161283
N23   N     N_R   0.581731 0.501738 0.734408 -0.163355
N24   N     N_R   0.416022 0.962555 0.723930 -0.156070
O1    O     O_R   0.498680 0.159540 0.541860 -0.509165
O2    O     O_R   0.358060 0.532760 0.040030 -0.460703
O3    O     O_R   0.174700 0.641940 0.040030 -0.459911
O4    O     O_R   0.467240 0.825300 0.040030 -0.460523
O5    O     O_R   0.498590 0.161190 0.456930 -0.515964
O6    O     O_R   0.838810 0.337400 0.456930 -0.494069
O7    O     O_R   0.662600 0.501410 0.456930 -0.529973
O8    O     O_R   0.161190 0.498590 0.956930 -0.515986
O9    O     O_R   0.337400 0.838810 0.956930 -0.494046
O10   O     O_R   0.501410 0.662600 0.956930 -0.529956
O11   O     O_R   0.532680 0.359580 0.461300 -0.492816
O12   O     O_R   0.840460 0.339140 0.541860 -0.503587
O13   O     O_R   0.640420 0.173100 0.461300 -0.514947
O14   O     O_R   0.826900 0.467320 0.461300 -0.476479
O15   O     O_R   0.359580 0.532680 0.961300 -0.492820
O16   O     O_R   0.173100 0.640420 0.961300 -0.514917
O17   O     O_R   0.467320 0.826900 0.961300 -0.476453
O18   O     O_3   0.666667 0.333333 0.499990 -0.301248
O19   O     O_3   0.333333 0.666667 0.999990 -0.301258
O20   O     O_2   0.920923 0.684399 0.602073 -0.478073
O21   O     O_R   0.979208 0.647748 0.547827 -0.660826
O22   O     O_2   0.353054 0.329332 0.553553 -0.487925
O23   O     O_R   0.660860 0.501320 0.541860 -0.511033
O24   O     O_R   0.310892 0.229391 0.606242 -0.667589
O25   O     O_2   0.695483 0.043287 0.554377 -0.486906
O26   O     O_R   0.773125 0.093692 0.612595 -0.657405
O27   O     O_2   0.684761 0.921588 0.101993 -0.478102
O28   O     O_R   0.647603 0.979447 0.047751 -0.660854
O29   O     O_2   0.329345 0.353049 0.053566 -0.487919
O30   O     O_R   0.229365 0.310925 0.106243 -0.667559
O31   O     O_2   0.043167 0.695343 0.054328 -0.486929
O32   O     O_R   0.093390 0.773048 0.112542 -0.657367
O33   O     O_2   0.047061 0.362303 0.698994 -0.441277
O34   O     O_R   0.159540 0.498680 0.041860 -0.509183
O35   O     O_R   0.949037 0.239676 0.657838 -0.664795
O36   O     O_2   0.643788 0.687227 0.698020 -0.442626
O37   O     O_R   0.765387 0.703459 0.657656 -0.652746
O38   O     O_2   0.264834 0.858068 0.669633 -0.450409
O39   O     O_R   0.250737 0.980853 0.640807 -0.666639
O40   O     O_2   0.362041 0.046583 0.199075 -0.441211
O41   O     O_R   0.239403 0.948307 0.157971 -0.664573
O42   O     O_2   0.687148 0.643893 0.198047 -0.442587
O43   O     O_R   0.703344 0.765474 0.157681 -0.652958
O44   O     O_2   0.858192 0.264842 0.169662 -0.450382
O45   O     O_R   0.339140 0.840460 0.041860 -0.503624
O46   O     O_R   0.981032 0.250814 0.140850 -0.666589
O47   O     O_R   0.501320 0.660860 0.041860 -0.511057
O48   O     O_R   0.532760 0.358060 0.540030 -0.460690
O49   O     O_R   0.641940 0.174700 0.540030 -0.459903
O50   O     O_R   0.825300 0.467240 0.540030 -0.460534

loop_
_geom_bond_atom_site_label_1
_geom_bond_atom_site_label_2
_ccdc_geom_bond_type
C14   Cl1   S    
C104  N20   A    
C63   C65   S    
C11   O46   S    
C4    O30   S    
C54   O3    A    
N6    N13   A    
C27   H11   S    
C7    O37   S    
C68   C74   A    
C36   C42   A    
H25   O21   S    
C56   O6    A    
C10   C78   S    
C19   C46   A    
C48   C57   S    
C87   N23   A    
C107  O24   S    
C29   C49   A    
C3    O28   S    
Cr1   O11   S    
C29   C36   A    
H35   O41   S    
C54   C66   S    
C33   C39   A    
C72   H39   S    
C37   H21   S    
C34   C40   A    
Cr6   O19   S    
H33   O39   S    
C86   C93   A    
C83   C90   A    
C72   C79   A    
Cr6   O4    S    
N12   N23   A    
C89   H7    S    
Cr6   O47   S    
C23   C49   A    
C77   C83   A    
C102  N14   A    
C46   C105  S    
C67   H1    S    
N7    N14   A    
C53   O7    A    
C12   C84   S    
C76   N5    A    
C64   C71   A    
C68   H12   S    
C19   C26   A    
C38   C45   A    
C88   H6    S    
N2    N19   A    
C108  O26   S    
Cr2   O12   S    
C98   N7    A    
H36   O43   S    
C44   C103  S    
C15   C22   A    
C5    O31   D    
C5    C99   S    
C28   C35   A    
C33   H17   S    
C76   N22   A    
C80   C86   A    
C76   C80   S    
N9    N16   A    
C69   C75   A    
C3    C96   S    
Cr5   O19   S    
C84   C91   A    
C12   N9    A    
Cr3   O18   S    
H37   O46   S    
C34   H18   S    
C8    O38   D    
Cr5   O45   S    
C49   C59   S    
N5    N11   A    
C6    O35   S    
Cr1   O5    S    
C60   C93   A    
C103  N15   A    
C29   H14   S    
Cr2   O6    S    
C5    O32   S    
C4    O29   D    
C70   H34   S    
C4    C97   S    
C86   H5    S    
C10   O42   D    
C39   H24   S    
C82   C98   S    
C15   Cl2   S    
C2    C83   S    
C21   O49   A    
Cr5   O16   S    
C26   H4    S    
C105  N17   A    
C35   C41   A    
C42   C102  S    
C18   Cl5   S    
H26   O24   S    
C85   C92   A    
C43   C64   S    
C21   O1    A    
C7    C74   S    
C88   C94   A    
C13   N10   A    
C27   C34   A    
C24   C50   A    
C66   C72   A    
C94   C107  S    
C17   C24   A    
C65   O45   A    
N8    N15   A    
C1    O23   A    
C28   H13   S    
C81   C88   A    
C14   C20   A    
Cr4   O19   S    
C60   C67   A    
C43   O47   A    
C2    N2    A    
C106  O21   S    
Cr2   O13   S    
Cr4   O2    S    
C61   C94   A    
C9    C77   S    
C57   O10   A    
Cr3   O50   S    
C59   O9    A    
C63   C96   A    
C58   O8    A    
C10   O43   S    
C105  N21   A    
H31   O35   S    
C62   C69   A    
H28   O28   S    
C33   C52   A    
C55   O5    A    
C66   C99   A    
C89   C95   A    
C92   H10   S    
C25   C51   A    
C40   C100  S    
C45   C104  S    
C26   C52   A    
C93   C106  S    
Cr1   O1    S    
C87   N6    A    
C63   C70   A    
C1    O48   A    
Cr1   O18   S    
C24   H2    S    
C21   C62   S    
C9    O41   S    
Cr6   O10   S    
C91   C97   A    
C56   O14   A    
C90   C96   A    
C25   H3    S    
C15   C41   A    
C107  O22   D    
C9    O40   D    
Cr3   O14   S    
C11   C79   S    
C2    N8    A    
C39   C46   A    
C67   C73   A    
N10   N17   A    
C64   C97   A    
C17   Cl4   S    
C22   C48   A    
C16   C23   A    
Cr4   O34   S    
C35   H19   S    
C101  N13   A    
Cr4   O15   S    
C69   H23   S    
C32   C60   S    
C74   C81   A    
C57   O15   A    
H27   O26   S    
C12   N3    A    
C18   C45   A    
C16   C42   A    
C79   C85   A    
C108  O25   D    
C101  N12   A    
H30   O32   S    
C6    C73   S    
C32   O50   A    
C27   C47   A    
C22   H41   S    
C71   H38   S    
C28   C48   A    
C90   H8    S    
N1    N22   A    
C103  N19   A    
C32   O12   A    
N3    N20   A    
N4    N21   A    
Cr5   O3    S    
C31   C51   A    
C31   H16   S    
C1    C61   S    
C106  O20   D    
C8    O39   S    
C75   C82   A    
C54   O34   A    
C91   H9    S    
C11   O44   D    
C50   C55   S    
C19   Cl6   S    
C31   C38   A    
C102  N18   A    
N18   N24   A    
C53   O11   A    
C23   H42   S    
C37   C44   A    
Cr3   O23   S    
C17   C44   A    
C98   N24   A    
C59   O17   A    
C18   C25   A    
Cr1   O48   S    
C47   C58   S    
C81   C87   S    
C61   C68   A    
C13   N4    A    
Cr2   O18   S    
C82   C89   A    
C43   O2    A    
Cr2   O49   S    
C7    O36   D    
C73   C80   A    
C41   C101  S    
C38   H22   S    
C100  N1    A    
Cr5   O9    S    
C36   H20   S    
C30   C50   A    
Cr4   O8    S    
H29   O30   S    
C20   C47   A    
Cr3   O7    S    
C95   C108  S    
C8    C75   S    
C14   C40   A    
C6    O33   D    
C78   C84   A    
C3    O27   D    
C65   O4    A    
C16   Cl3   S    
C30   H15   S    
C20   H40   S    
H32   O37   S    
C13   C85   S    
C100  N11   A    
Cr6   O17   S    
C30   C37   A    
C104  N16   A    
C51   C53   S    
C62   C95   A    
C58   O16   A    
C71   C78   A    
C52   C56   S    
C92   C99   A    
C55   O13   A    
C70   C77   A    
