data_mof_unit_47265.cif
_audit_creation_date              2012-12-10T18:33:43-0500
_audit_creation_method            fapswitch 2.2
_symmetry_space_group_name_H-M    P1
_symmetry_Int_Tables_number       1
_space_group_crystal_system       triclinic
_cell_length_a                    10.48185
_cell_length_b                    15.184331
_cell_length_c                    15.36996
_cell_angle_alpha                 80.784718
_cell_angle_beta                  91.89428
_cell_angle_gamma                 103.986603
_cell_volume                      2343.07686972

loop_
_atom_site_label
_atom_site_type_symbol
_atom_type_description
_atom_site_fract_x
_atom_site_fract_y
_atom_site_fract_z
_atom_type_partial_charge
C1    C     C_R   0.475980 0.441287 0.662088 0.871154
C2    C     C_R   0.519295 0.558874 0.337651 0.866135
C3    C     C_R   0.475784 0.467227 0.813541 -0.277389
C4    C     C_R   0.460602 0.538422 0.186043 -0.275824
C5    C     C_R   0.414780 0.454051 0.895387 0.060144
C6    C     C_R   0.462835 0.565897 0.094792 0.063534
C7    C     C_R   0.328798 0.367928 0.926031 0.102229
C8    C     C_R   0.532958 0.656343 0.059716 0.102105
C9    C     C_R   0.442078 0.524406 0.948138 0.027113
C10   C     C_R   0.406549 0.502383 0.037740 0.026361
C11   C     C_R   0.317951 0.417201 0.067423 -0.206324
C12   C     C_R   0.501685 0.616532 0.913191 -0.207218
C13   C     C_R   0.277021 0.350750 0.012368 0.178873
C14   C     C_R   0.545064 0.682935 0.967569 0.180598
C15   C     C_R   0.756066 0.855617 0.578542 0.353211
C16   C     C_R   0.243734 0.144349 0.421705 0.353720
C17   C     C_R   0.695410 0.761300 0.589048 0.394505
C18   C     C_R   0.304476 0.238668 0.411062 0.399553
C19   C     C_R   0.500737 0.792469 0.518639 0.130167
C20   C     C_R   0.499007 0.207458 0.481654 0.133160
C21   C     C_R   0.547133 0.886862 0.525922 -0.084517
C22   C     C_R   0.452589 0.113073 0.474396 -0.083684
C23   C     C_R   0.741857 0.500960 0.500312 0.931486
C24   C     C_R   0.258155 0.498991 0.499799 0.927851
C25   C     C_R   0.682315 0.918207 0.543432 -0.001400
C26   C     C_R   0.317425 0.081748 0.456884 -0.000432
C27   C     C_R   0.468743 0.952418 0.508936 0.131424
C28   C     C_R   0.530966 0.047520 0.491437 0.131316
C29   C     C_R   0.669275 0.073646 0.487959 -0.270546
C30   C     C_R   0.330432 0.926331 0.512493 -0.270589
C31   C     C_R   0.743139 0.011480 0.520719 -0.104908
C32   C     C_R   0.256571 0.988493 0.479698 -0.104379
C33   C     C_3   0.938697 0.437271 0.563649 0.478978
C34   C     C_3   0.061372 0.562586 0.436633 0.478122
C35   C     C_3   0.053474 0.517533 0.578944 -0.289687
C36   C     C_3   0.946614 0.482324 0.421339 -0.291451
C37   C     C_3   0.122319 0.497102 0.500258 -0.069589
C38   C     C_3   0.877730 0.502764 0.500016 -0.070933
C39   C     C_3   0.008490 0.415209 0.486552 -0.260089
C40   C     C_3   0.991590 0.584654 0.513731 -0.258809
C41   C     C_R   0.436320 0.405602 0.754497 -0.067931
C42   C     C_R   0.524823 0.597116 0.243195 -0.063747
C43   C     C_R   0.296373 0.301713 0.869129 -0.193843
C44   C     C_R   0.592593 0.717131 0.117558 -0.190017
C45   C     C_R   0.345720 0.320552 0.782581 0.169505
C46   C     C_R   0.591347 0.688425 0.208787 0.175625
H1    H     H_    0.099917 0.529521 0.643343 0.167134
H2    H     H_    0.900256 0.470294 0.356930 0.165862
H3    H     H_    0.721913 0.142690 0.462064 0.166834
H4    H     H_    0.277772 0.857349 0.538542 0.166948
H5    H     H_    0.018218 0.346041 0.477439 0.191005
H6    H     H_    0.981913 0.653828 0.522862 0.191774
H7    H     H_    0.414858 0.468705 0.214027 0.162218
H8    H     H_    0.554422 0.527210 0.793651 0.164611
H9    H     H_    0.229346 0.235958 0.890612 0.157552
H10   H     H_    0.644926 0.786621 0.092031 0.156975
H11   H     H_    0.275175 0.402264 0.132619 0.158085
H12   H     H_    0.512417 0.638597 0.842851 0.153548
H13   H     H_    0.848847 0.036293 0.524587 0.213932
H14   H     H_    0.150853 0.963702 0.475889 0.214097
N1    N     N_R   0.574200 0.731700 0.552740 -0.167125
N2    N     N_R   0.425800 0.268300 0.447260 -0.165706
O1    O     O_R   0.462600 0.383110 0.605620 -0.621153
O2    O     O_R   0.537400 0.616890 0.394380 -0.619090
O3    O     O_R   0.510210 0.531900 0.639510 -0.640656
O4    O     O_R   0.489790 0.468100 0.360490 -0.639776
O5    O     O_R   0.662240 0.425610 0.483080 -0.611183
O6    O     O_R   0.337760 0.574390 0.516920 -0.612436
O7    O     O_R   0.709860 0.574400 0.516970 -0.599406
O8    O     O_R   0.290140 0.425600 0.483030 -0.603682
Zn1   Zn    Zn3+2 0.468210 0.400660 0.477370 0.939834
Zn2   Zn    Zn3+2 0.531790 0.599340 0.522630 0.940578
C47   C     C_3   0.610377 0.237107 0.543617 -0.710825
H15   H     H_    0.628228 0.178667 0.591668 0.207236
H16   H     H_    0.701989 0.272324 0.506169 0.246311
H17   H     H_    0.586021 0.282083 0.586191 0.284911
C48   C     C_3   0.388804 0.762656 0.457132 -0.712859
H18   H     H_    0.297404 0.727770 0.494952 0.246125
H19   H     H_    0.371019 0.820956 0.408859 0.208383
H20   H     H_    0.412362 0.717137 0.414844 0.285088
O9    O     O_3   0.235015 0.299821 0.370731 -0.793149
H21   H     H_    0.298880 0.357093 0.347532 0.373010
O10   O     O_3   0.764767 0.700099 0.629414 -0.785915
H22   H     H_    0.700767 0.642992 0.652954 0.375081
O11   O     O_3   0.885300 0.888473 0.602479 -0.775385
H23   H     H_    0.926713 0.836674 0.622282 0.377286
O12   O     O_3   0.114468 0.111498 0.397823 -0.776285
H24   H     H_    0.073144 0.163299 0.377812 0.375675
O13   O     O_3   0.868063 0.372193 0.630576 -0.779216
H25   H     H_    0.932106 0.338435 0.659282 0.330052
O14   O     O_3   0.132122 0.627622 0.369720 -0.778236
H26   H     H_    0.068232 0.661552 0.341086 0.329769
C49   C     C_3   0.180987 0.261774 0.048073 -0.903447
H27   H     H_    0.150360 0.260449 0.116871 0.255081
H28   H     H_    0.091152 0.252607 0.006855 0.242485
H29   H     H_    0.227025 0.203183 0.047891 0.243356
C50   C     C_3   0.608973 0.780024 0.925710 -0.906208
H30   H     H_    0.606146 0.788661 0.852565 0.247360
H31   H     H_    0.556535 0.828521 0.946769 0.242945
H32   H     H_    0.713715 0.798260 0.945514 0.244885
C51   C     C_3   0.666863 0.755208 0.266055 -0.851204
H33   H     H_    0.738402 0.723971 0.307316 0.241039
H34   H     H_    0.723553 0.819568 0.226282 0.227650
H35   H     H_    0.598090 0.774802 0.308465 0.256177
C52   C     C_3   0.297261 0.250207 0.722403 -0.851699
H36   H     H_    0.245518 0.280033 0.665141 0.247870
H37   H     H_    0.381230 0.227080 0.699422 0.254361
H38   H     H_    0.226720 0.188354 0.756328 0.227953

loop_
_geom_bond_atom_site_label_1
_geom_bond_atom_site_label_2
_ccdc_geom_bond_type
C25   C31   A    
C39   H5    S    
O12   H24   S    
C26   C32   A    
C49   H27   S    
C4    H7    S    
C34   C37   S    
C47   H15   S    
C23   O7    A    
C35   H1    S    
C50   H30   S    
C24   O8    A    
C29   H3    S    
C48   H18   S    
C52   H37   S    
C51   H33   S    
C34   C40   S    
C28   C29   A    
C35   C37   S    
C19   N1    A    
C20   C22   A    
O11   H23   S    
C3    H8    S    
C15   C25   A    
C31   H13   S    
C18   O9    S    
C42   C46   A    
C23   O5    A    
C19   C48   S    
C34   O14   S    
C17   N1    A    
O10   H22   S    
C44   C46   A    
C20   C47   S    
C16   O12   S    
C1    O3    A    
O8    Zn1   S    
C7    C43   A    
C9    C10   A    
O5    Zn1   S    
C45   C52   S    
C15   O11   S    
C12   H12   S    
C30   H4    S    
C51   H34   S    
C38   C40   S    
C22   C28   A    
C27   C30   A    
C20   N2    A    
C47   H16   S    
C1    O1    A    
C50   H31   S    
C2    O2    A    
O9    H21   S    
C48   H19   S    
C16   C26   A    
C52   H38   S    
C4    C6    A    
O14   H26   S    
C5    C7    A    
C18   N2    A    
C6    C8    A    
C3    C5    A    
C40   H6    S    
C13   C49   S    
C17   O10   S    
O7    Zn2   S    
C5    C9    A    
C33   O13   S    
C44   H10   S    
O4    Zn1   S    
O6    Zn2   S    
C24   C37   S    
C16   C18   A    
C33   C39   S    
C43   C45   A    
N1    Zn2   S    
C1    C41   S    
C12   C14   A    
C49   H29   S    
C47   H17   S    
C32   H14   S    
O3    Zn2   S    
C50   H32   S    
C14   C50   S    
C48   H20   S    
C43   H9    S    
C15   C17   A    
C21   C25   A    
C3    C41   A    
C8    C14   A    
C19   C21   A    
C36   C39   S    
C8    C44   A    
O1    Zn1   S    
C2    O4    A    
C46   C51   S    
C6    C10   A    
C51   H35   S    
C23   C38   S    
C52   H36   S    
C33   C38   S    
C36   C38   S    
C35   C40   S    
C37   C39   S    
C30   C32   A    
C11   C13   A    
C49   H28   S    
C4    C42   A    
C2    C42   S    
C33   C35   S    
N2    Zn1   S    
C36   H2    S    
C34   C36   S    
O2    Zn2   S    
C21   C27   A    
C9    C12   A    
C10   C11   A    
C24   O6    A    
C7    C13   A    
C29   C31   A    
C22   C26   A    
C27   C28   A    
C41   C45   A    
O13   H25   S    
C11   H11   S    
