data_mof_unit_8387.cif
_audit_creation_date              2013-03-05T15:40:15-0500
_audit_creation_method            fapswitch 2.2
_symmetry_space_group_name_H-M    P1
_symmetry_Int_Tables_number       1
_space_group_crystal_system       triclinic
_cell_length_a                    29.319264
_cell_length_b                    17.651194
_cell_length_c                    18.879802
_cell_angle_alpha                 89.999938
_cell_angle_beta                  140.081039
_cell_angle_gamma                 90.000063
_cell_volume                      6269.87639649

loop_
_atom_site_label
_atom_site_type_symbol
_atom_site_description
_atom_site_fract_x
_atom_site_fract_y
_atom_site_fract_z
_atom_type_partial_charge
C1    C     C_R   0.164889 0.429582 0.810773 -0.217327
C2    C     C_R   0.835111 0.429582 0.189227 -0.217322
C3    C     C_R   0.666225 0.928887 0.811334 -0.188769
C4    C     C_R   0.333783 0.928893 0.188670 -0.188390
H1    H     H_    0.208295 0.466669 0.874117 0.160507
H2    H     H_    0.791705 0.466667 0.125882 0.160508
H3    H     H_    0.710067 0.965805 0.874327 0.159160
H4    H     H_    0.289952 0.965824 0.125681 0.158879
N1    N     N_R   0.126390 0.429310 0.705280 -0.063862
N2    N     N_R   0.873610 0.429310 0.294720 -0.063861
N3    N     N_R   0.626390 0.929310 0.705280 -0.060108
N4    N     N_R   0.373610 0.929310 0.294720 -0.059924
C5    C     C_R   0.863634 0.574890 0.488443 -0.166281
C6    C     C_R   0.136374 0.574896 0.511571 -0.166332
C7    C     C_R   0.362255 0.075092 0.485988 -0.145380
C8    C     C_R   0.637752 0.075097 0.514025 -0.145303
H5    H     H_    0.827148 0.533966 0.466227 0.098292
H6    H     H_    0.172851 0.533965 0.533775 0.098305
H7    H     H_    0.323643 0.035168 0.459295 0.094352
H8    H     H_    0.676374 0.035178 0.540735 0.094398
N5    N     N_R   0.889410 0.573560 0.453390 -0.050820
N6    N     N_R   0.110590 0.573560 0.546610 -0.050817
N7    N     N_R   0.389410 0.073560 0.453390 -0.046988
N8    N     N_R   0.610590 0.073560 0.546610 -0.046959
C9    C     C_R   0.913461 0.307855 0.501572 -0.078207
C10   C     C_R   0.086538 0.307855 0.498427 -0.078214
C11   C     C_R   0.413207 0.807943 0.500974 -0.073618
C12   C     C_R   0.586792 0.807948 0.499009 -0.073899
H9    H     H_    0.936035 0.252790 0.518593 0.186714
H10   H     H_    0.063965 0.252790 0.481404 0.186715
H11   H     H_    0.435581 0.752829 0.517506 0.186492
H12   H     H_    0.564420 0.752831 0.482466 0.186518
N9    N     N_R   0.940610 0.372370 0.507810 -0.073597
N10   N     N_R   0.059390 0.372370 0.492190 -0.073597
N11   N     N_R   0.440610 0.872370 0.507810 -0.073816
N12   N     N_R   0.559390 0.872370 0.492190 -0.073843
C13   C     C_R   0.103185 0.691496 0.715657 -0.133000
C14   C     C_R   0.896816 0.691493 0.284338 -0.132990
C15   C     C_R   0.603314 0.191499 0.715734 -0.133039
C16   C     C_R   0.396688 0.191498 0.284265 -0.133033
H13   H     H_    0.077845 0.746279 0.689535 0.130958
H14   H     H_    0.922157 0.746276 0.310456 0.130943
H15   H     H_    0.577931 0.246242 0.689799 0.130994
H16   H     H_    0.422072 0.246241 0.310200 0.130988
N13   N     N_R   0.075190 0.630500 0.650860 -0.052911
N14   N     N_R   0.924810 0.630500 0.349140 -0.052909
N15   N     N_R   0.575190 0.130500 0.650860 -0.054452
N16   N     N_R   0.424810 0.130500 0.349140 -0.054455
C17   C     C_R   0.830307 0.395596 0.409120 0.147367
C18   C     C_R   0.169693 0.395596 0.590879 0.147375
C19   C     C_R   0.330055 0.896248 0.408562 0.132693
C20   C     C_R   0.669940 0.896261 0.591410 0.132333
N17   N     N_R   0.889410 0.427540 0.453390 -0.073764
N18   N     N_R   0.110590 0.427540 0.546610 -0.073764
N19   N     N_R   0.389410 0.927540 0.453390 -0.064012
N20   N     N_R   0.610590 0.927540 0.546610 -0.064013
C21   C     C_R   0.187475 0.604477 0.803273 0.146122
C22   C     C_R   0.812526 0.604474 0.196724 0.146109
C23   C     C_R   0.687630 0.104596 0.802755 0.149821
C24   C     C_R   0.312370 0.104599 0.197247 0.149717
N21   N     N_R   0.126390 0.575330 0.705280 -0.067272
N22   N     N_R   0.873610 0.575330 0.294720 -0.067273
N23   N     N_R   0.626390 0.075330 0.705280 -0.067108
N24   N     N_R   0.373610 0.075330 0.294720 -0.067154
C25   C     C_R   0.942406 0.668471 0.571020 -0.104803
C26   C     C_R   0.057605 0.668481 0.428998 -0.104772
C27   C     C_R   0.442352 0.167892 0.571241 -0.108290
C28   C     C_R   0.557651 0.167893 0.428763 -0.108300
H17   H     H_    0.974227 0.718122 0.618159 0.125231
H18   H     H_    0.025787 0.718134 0.381859 0.125202
H19   H     H_    0.474575 0.217125 0.619398 0.127499
H20   H     H_    0.525428 0.217126 0.380605 0.127503
N25   N     N_R   0.940610 0.629500 0.507810 -0.045586
N26   N     N_R   0.059390 0.629500 0.492190 -0.045584
N27   N     N_R   0.440610 0.129500 0.507810 -0.047684
N28   N     N_R   0.559390 0.129500 0.492190 -0.047690
C29   C     C_R   0.086339 0.335931 0.725325 0.363398
C30   C     C_R   0.913661 0.335930 0.274675 0.363396
C31   C     C_R   0.586752 0.835979 0.725767 0.357845
C32   C     C_R   0.413249 0.835979 0.274235 0.357916
N29   N     N_R   0.075190 0.373370 0.650860 -0.085957
N30   N     N_R   0.924810 0.373370 0.349140 -0.085956
N31   N     N_R   0.575190 0.873370 0.650860 -0.091093
N32   N     N_R   0.424810 0.873370 0.349140 -0.091009
C33   C     C_R   0.141187 0.373005 0.826784 0.006172
C34   C     C_R   0.858813 0.373004 0.173217 0.006170
C35   C     C_R   0.642333 0.872674 0.827465 -0.005889
C36   C     C_R   0.357673 0.872678 0.172539 -0.005858
C37   C     C_R   0.895868 0.633701 0.563128 0.099207
C38   C     C_R   0.104154 0.633718 0.436907 0.099245
C39   C     C_R   0.395172 0.133067 0.562097 0.089065
C40   C     C_R   0.604834 0.133070 0.437913 0.089010
C41   C     C_R   0.844982 0.320757 0.444036 0.000979
C42   C     C_R   0.155017 0.320758 0.555962 0.000981
C43   C     C_R   0.344640 0.821114 0.442933 -0.018069
C44   C     C_R   0.655355 0.821129 0.557029 -0.017475
C45   C     C_R   0.173358 0.676077 0.812981 -0.051626
C46   C     C_R   0.826644 0.676071 0.187012 -0.051604
C47   C     C_R   0.673621 0.176122 0.812779 -0.052746
C48   C     C_R   0.326381 0.176121 0.187221 -0.052703
Ni1   Ni    Ni4+2 0.118300 0.501760 0.624810 0.191916
Ni2   Ni    Ni4+2 0.881700 0.501760 0.375190 0.191917
Ni3   Ni    Ni4+2 0.618300 0.001760 0.624810 0.203771
Ni4   Ni    Ni4+2 0.381700 0.001760 0.375190 0.203796
Ni5   Ni    Ni4+2 0.000000 0.373470 0.500000 0.293012
Ni6   Ni    Ni4+2 0.500000 0.873470 0.500000 0.287528
Ni7   Ni    Ni4+2 1.000000 0.628290 0.500000 0.207425
Ni8   Ni    Ni4+2 0.500000 0.128290 0.500000 0.206009
C49   C     C_2   0.836944 0.297510 0.039184 -0.057200
C50   C     C_2   0.163058 0.297510 0.960817 -0.057196
C51   C     C_2   0.336356 0.797687 0.038869 -0.059124
C52   C     C_2   0.663650 0.797684 0.961133 -0.059113
C53   C     C_2   0.818088 0.351905 0.061787 -0.100441
C54   C     C_2   0.181913 0.351905 0.938214 -0.100448
C55   C     C_2   0.317392 0.852129 0.061234 -0.098025
C56   C     C_2   0.682617 0.852122 0.938769 -0.097961
H21   H     H_    0.891781 0.282395 0.096168 0.188236
H22   H     H_    0.108221 0.282394 0.903834 0.188238
H23   H     H_    0.391151 0.782261 0.096190 0.189317
H24   H     H_    0.608855 0.782260 0.903814 0.189322
H25   H     H_    0.764253 0.374206 0.994951 0.164843
H26   H     H_    0.235748 0.374206 0.005049 0.164841
H27   H     H_    0.263680 0.874699 0.994197 0.165928
H28   H     H_    0.736332 0.874686 0.005805 0.165895
C57   C     C_2   0.281391 0.751320 0.939257 -0.318823
C58   C     C_2   0.718615 0.751316 0.060742 -0.318851
C59   C     C_2   0.781860 0.251257 0.939390 -0.317405
C60   C     C_2   0.218142 0.251258 0.060611 -0.317399
C61   C     C_2   0.222668 0.728447 0.904513 0.379390
C62   C     C_2   0.777333 0.728437 0.095476 0.379362
C63   C     C_2   0.723183 0.228234 0.904732 0.377436
C64   C     C_2   0.276818 0.228233 0.095268 0.377433
H29   H     H_    0.792223 0.230609 0.898529 0.153745
H30   H     H_    0.207780 0.230612 0.101475 0.153748
H31   H     H_    0.292006 0.730160 0.898915 0.153424
H32   H     H_    0.708006 0.730165 0.101096 0.153431
C65   C     C_R   0.201820 0.264990 0.576488 0.114209
C66   C     C_R   0.798180 0.264988 0.423509 0.114208
C67   C     C_R   0.702699 0.765069 0.579338 0.132844
C68   C     C_R   0.297300 0.765036 0.420606 0.132470
C69   C     C_R   0.877021 0.658270 0.612973 0.061089
C70   C     C_R   0.123020 0.658289 0.387091 0.061056
C71   C     C_R   0.376703 0.156872 0.612564 0.063969
C72   C     C_R   0.623301 0.156874 0.387444 0.063978
C73   C     C_R   0.882146 0.757758 0.708000 0.069544
C74   C     C_R   0.117825 0.757659 0.291861 0.069618
C75   C     C_R   0.381792 0.256493 0.707177 0.067228
C76   C     C_R   0.618209 0.256490 0.292821 0.067220
C77   C     C_R   0.916428 0.714292 0.696009 0.075476
C78   C     C_R   0.083581 0.714246 0.303961 0.075471
C79   C     C_R   0.416260 0.212642 0.695912 0.075765
C80   C     C_R   0.583743 0.212640 0.304091 0.075774
C81   C     C_R   0.813420 0.631693 0.566832 -0.303923
C82   C     C_R   0.186655 0.631748 0.433316 -0.303912
C83   C     C_R   0.313113 0.130248 0.566346 -0.306248
C84   C     C_R   0.686891 0.130248 0.433659 -0.306260
C85   C     C_R   0.781101 0.670797 0.583036 0.150522
C86   C     C_R   0.218946 0.670807 0.417039 0.150535
C87   C     C_R   0.280433 0.169892 0.581495 0.153779
C88   C     C_R   0.719569 0.169890 0.418506 0.153784
C89   C     C_R   0.311647 0.237201 0.643717 0.095060
C90   C     C_R   0.688353 0.237198 0.356281 0.095060
C91   C     C_R   0.812303 0.737985 0.645555 0.092648
C92   C     C_R   0.187683 0.737918 0.354343 0.092473
C93   C     C_R   0.270909 0.285077 0.637441 -0.252489
C94   C     C_R   0.729090 0.285074 0.362554 -0.252495
C95   C     C_R   0.771707 0.785347 0.640288 -0.240038
C96   C     C_R   0.228239 0.785248 0.359488 -0.239399
C97   C     C_R   0.174781 0.193886 0.524522 -0.121115
C98   C     C_R   0.825220 0.193884 0.475477 -0.121110
C99   C     C_R   0.675869 0.693896 0.527503 -0.126829
C100  C     C_R   0.324191 0.693924 0.472621 -0.126834
C101  C     C_R   0.213558 0.146973 0.526122 -0.186684
C102  C     C_R   0.786444 0.146971 0.473879 -0.186690
C103  C     C_R   0.714535 0.647406 0.528478 -0.186819
C104  C     C_R   0.285543 0.647452 0.471693 -0.186827
H33   H     H_    0.292372 0.339712 0.674871 0.188858
H34   H     H_    0.707626 0.339708 0.325122 0.188861
H35   H     H_    0.792661 0.840123 0.677120 0.161087
H36   H     H_    0.207217 0.839961 0.322442 0.161381
H37   H     H_    0.121939 0.175967 0.476477 0.157644
H38   H     H_    0.878062 0.175967 0.523523 0.157647
H39   H     H_    0.623104 0.675739 0.479553 0.157761
H40   H     H_    0.376992 0.675815 0.520687 0.157864
H41   H     H_    0.690763 0.595042 0.481734 0.134942
H42   H     H_    0.309360 0.595143 0.518571 0.134942
H43   H     H_    0.189751 0.094563 0.479496 0.133629
H44   H     H_    0.810252 0.094563 0.520508 0.133630
H45   H     H_    0.784781 0.584775 0.509633 0.135645
H46   H     H_    0.215339 0.584898 0.490634 0.135641
H47   H     H_    0.284707 0.083050 0.509638 0.132670
H48   H     H_    0.715298 0.083051 0.490369 0.132664
N33   N     N_R   0.209465 0.748202 0.961379 0.228367
O1    O     O_R   0.153189 0.787138 0.910945 -0.457564
O2    O     O_R   0.249897 0.721313 0.059479 -0.381137
N34   N     N_R   0.790525 0.748174 0.038590 0.228368
O3    O     O_R   0.846815 0.787077 0.089020 -0.457550
O4    O     O_R   0.750068 0.721295 0.940475 -0.381120
N35   N     N_R   0.710426 0.247292 0.962378 0.229074
O5    O     O_R   0.653574 0.284834 0.912083 -0.456234
O6    O     O_R   0.751638 0.220562 0.060846 -0.374300
N36   N     N_R   0.289572 0.247290 0.037617 0.229074
O7    O     O_R   0.346425 0.284831 0.087909 -0.456235
O8    O     O_R   0.248358 0.220558 0.939149 -0.374288
N37   N     N_2   0.417090 0.318401 0.782589 -0.114780
H49   H     H_    0.467762 0.306284 0.860373 0.180078
C105  C     C_3   0.412503 0.389444 0.739047 -0.921004
H50   H     H_    0.441397 0.385814 0.722291 0.252701
H51   H     H_    0.436588 0.435234 0.800122 0.257441
H52   H     H_    0.356180 0.404519 0.661371 0.252839
N38   N     N_2   0.582909 0.318395 0.217405 -0.114782
H53   H     H_    0.532237 0.306276 0.139622 0.180078
C106  C     C_3   0.587495 0.389440 0.260944 -0.920990
H54   H     H_    0.558601 0.385811 0.277699 0.252698
H55   H     H_    0.563409 0.435228 0.199865 0.257445
H56   H     H_    0.643818 0.404517 0.338619 0.252834
N39   N     N_2   0.917430 0.819704 0.783336 -0.116832
H57   H     H_    0.968398 0.807869 0.860773 0.180073
C107  C     C_3   0.911909 0.890947 0.739137 -0.934627
H58   H     H_    0.940212 0.887845 0.721320 0.256292
H59   H     H_    0.936077 0.936716 0.800276 0.258305
H60   H     H_    0.855361 0.905663 0.661958 0.250446
N40   N     N_2   0.082490 0.819529 0.216392 -0.116857
H61   H     H_    0.031517 0.807639 0.139001 0.180110
C108  C     C_3   0.088002 0.890840 0.260467 -0.934821
H62   H     H_    0.059732 0.887813 0.278347 0.256314
H63   H     H_    0.063792 0.936540 0.199223 0.258317
H64   H     H_    0.144548 0.905604 0.337587 0.250460
N41   N     N_2   0.989864 0.724851 0.767538 -0.119992
H65   H     H_    0.010634 0.777668 0.802461 0.209022
C109  C     C_3   0.035104 0.663871 0.845862 -0.814056
H66   H     H_    0.090417 0.673423 0.893712 0.295768
H67   H     H_    0.017129 0.608700 0.802515 0.241404
H68   H     H_    0.034581 0.661313 0.904055 0.234405
N42   N     N_2   0.010147 0.724792 0.232448 -0.119983
H69   H     H_    0.989367 0.777604 0.197506 0.209023
C110  C     C_3   0.964913 0.663797 0.154149 -0.814052
H70   H     H_    0.909607 0.673330 0.106335 0.295746
H71   H     H_    0.982918 0.608629 0.197517 0.241400
H72   H     H_    0.965410 0.661246 0.095922 0.234386
N43   N     N_2   0.489847 0.222811 0.768016 -0.119860
H73   H     H_    0.510997 0.275321 0.803967 0.208776
C111  C     C_3   0.534647 0.161176 0.845174 -0.813986
H74   H     H_    0.590099 0.170698 0.893562 0.294897
H75   H     H_    0.516482 0.106465 0.800771 0.241285
H76   H     H_    0.533843 0.157709 0.902988 0.234934
N44   N     N_2   0.510155 0.222808 0.231987 -0.119860
H77   H     H_    0.489004 0.275316 0.196033 0.208776
C112  C     C_3   0.465357 0.161170 0.154834 -0.813999
H78   H     H_    0.409905 0.170691 0.106448 0.294895
H79   H     H_    0.483524 0.106461 0.199241 0.241282
H80   H     H_    0.466160 0.157701 0.097019 0.234937
N45   N     N_2   0.761507 0.425130 0.311507 -0.137165
H81   H     H_    0.760231 0.482897 0.303180 0.155030
C113  C     C_3   0.721630 0.386404 0.209012 -0.869629
H82   H     H_    0.665387 0.405323 0.143768 0.247448
H83   H     H_    0.722756 0.324022 0.217027 0.273645
H84   H     H_    0.743267 0.400029 0.182012 0.261736
N46   N     N_2   0.238493 0.425130 0.688493 -0.137167
H85   H     H_    0.239769 0.482896 0.696823 0.155025
C114  C     C_3   0.278369 0.386401 0.790987 -0.869624
H86   H     H_    0.334612 0.405321 0.856232 0.247447
H87   H     H_    0.277245 0.324020 0.782970 0.273644
H88   H     H_    0.256732 0.400023 0.817985 0.261738
N47   N     N_2   0.262719 0.922986 0.304726 -0.134066
H89   H     H_    0.232259 0.953529 0.303684 0.141640
C115  C     C_3   0.226061 0.880133 0.206383 -0.815803
H90   H     H_    0.208619 0.918676 0.142822 0.240679
H91   H     H_    0.177880 0.852590 0.170961 0.240951
H92   H     H_    0.260854 0.836091 0.223929 0.278550
N48   N     N_2   0.737281 0.922984 0.695253 -0.134083
H93   H     H_    0.767818 0.953359 0.696325 0.141695
C116  C     C_3   0.773848 0.880136 0.793548 -0.815274
H94   H     H_    0.792283 0.918887 0.857744 0.240275
H95   H     H_    0.821418 0.851532 0.828065 0.241221
H96   H     H_    0.738614 0.836942 0.776228 0.278582
N49   N     N_2   0.255988 0.578081 0.864565 -0.135750
H97   H     H_    0.256307 0.535297 0.828025 0.167634
C117  C     C_3   0.309891 0.571761 0.983402 -0.868690
H98   H     H_    0.328618 0.512209 0.009618 0.247398
H99   H     H_    0.289546 0.589165 0.012002 0.278295
H100  H     H_    0.356035 0.607818 0.024165 0.271306
N50   N     N_2   0.744013 0.578080 0.135433 -0.135748
H101  H     H_    0.743692 0.535300 0.171976 0.167634
C118  C     C_3   0.690109 0.571757 0.016596 -0.868683
H102  H     H_    0.671380 0.512205 0.990384 0.247396
H103  H     H_    0.710455 0.589155 0.987995 0.278297
H104  H     H_    0.643966 0.607817 0.975831 0.271306
N51   N     N_2   0.755640 0.079830 0.860538 -0.135405
H105  H     H_    0.755451 0.040392 0.820216 0.176414
C119  C     C_3   0.811157 0.071309 0.979358 -0.880583
H106  H     H_    0.829114 0.011414 0.002832 0.245219
H107  H     H_    0.792769 0.087938 0.011220 0.280347
H108  H     H_    0.857321 0.106996 0.019408 0.271639
N52   N     N_2   0.244359 0.079856 0.139485 -0.135417
H109  H     H_    0.244529 0.040483 0.179840 0.176333
C120  C     C_3   0.188835 0.071301 0.020669 -0.880447
H110  H     H_    0.170889 0.011402 0.997235 0.245226
H111  H     H_    0.207213 0.087912 0.988786 0.280310
H112  H     H_    0.142668 0.106986 0.980609 0.271630
N53   N     N_R   0.066302 0.258395 0.710923 0.229372
O9    O     O_R   0.070573 0.212151 0.662531 -0.373699
O10   O     O_R   0.032312 0.236979 0.726929 -0.466070
N54   N     N_R   0.933697 0.258394 0.289077 0.229373
O11   O     O_R   0.929427 0.212151 0.337472 -0.373703
O12   O     O_R   0.967686 0.236977 0.273070 -0.466070
N55   N     N_R   0.565952 0.758776 0.711080 0.229267
O13   O     O_R   0.570399 0.711842 0.663441 -0.377066
O14   O     O_R   0.531025 0.738470 0.725765 -0.466040
N56   N     N_R   0.434041 0.758771 0.288920 0.229267
O15   O     O_R   0.429600 0.711846 0.336571 -0.377076
O16   O     O_R   0.468960 0.738455 0.274222 -0.466008

loop_
_geom_bond_atom_site_label_1
_geom_bond_atom_site_label_2
_geom_bond_distance
_ccdc_geom_bond_type
C113  H83   1.108504 S    
C9    C41   1.384756 A    
C11   C43   1.384626 A    
C119  H106  1.110593 S    
C50   H22   1.077198 S    
C44   C67   1.478693 S    
C31   C35   1.400796 A    
N53   O9    1.300843 A    
C30   N54   1.430771 S    
N14   N22   1.375351 A    
C99   H39   1.080438 S    
C33   C54   1.461904 S    
N4    Ni4   1.856624 S    
N48   H93   1.030377 S    
C116  H96   1.112307 S    
N4    N32   1.385011 A    
N30   Ni5   1.827815 S    
C75   N37   1.425509 S    
C6    C38   1.383804 A    
C74   C78   1.413956 A    
C49   C59   1.468732 S    
N40   H61   1.030995 S    
C51   C57   1.467941 S    
C105  H52   1.110739 S    
C87   C89   1.407135 A    
C67   C99   1.404978 A    
C4    N4    1.336475 A    
C57   H31   1.086321 S    
C71   C79   1.411005 A    
C58   H32   1.086321 S    
N35   O5    1.300544 A    
N9    N17   1.375353 A    
C106  H55   1.110207 S    
C9    H9    1.076917 S    
N56   O16   1.299800 A    
C55   H27   1.087788 S    
N36   O7    1.300544 A    
N12   Ni6   1.856875 S    
C92   C96   1.394307 A    
C52   H24   1.076765 S    
N8    N28   1.385008 A    
C11   N11   1.340280 A    
C96   H36   1.067950 S    
N11   N19   1.375353 A    
N2    N30   1.385011 A    
C25   C37   1.396001 A    
N41   H65   1.028988 S    
C32   N56   1.430547 S    
C30   N30   1.347280 A    
N17   Ni2   1.853431 S    
C28   H20   1.075560 S    
C21   C45   1.385100 A    
C5    N5    1.332979 A    
C67   C95   1.405227 A    
N10   N18   1.375352 A    
C13   N13   1.337635 A    
C15   N15   1.337995 A    
C98   C102  1.387987 A    
C16   N16   1.337995 A    
C23   N23   1.344979 A    
N20   Ni3   1.853433 S    
N34   O3    1.300579 A    
N46   C114  1.452052 S    
C16   C48   1.373512 A    
C15   H15   1.080897 S    
C48   C64   1.449823 S    
C21   N21   1.346318 A    
C23   N51   1.421477 S    
C62   N34   1.435838 S    
C12   C44   1.384668 A    
C24   N24   1.344990 A    
C76   C90   1.414714 A    
C32   C36   1.400797 A    
C26   H18   1.075617 S    
C17   N17   1.340778 A    
C19   N47   1.423680 S    
C28   C40   1.398154 A    
C109  H68   1.111404 S    
C19   N19   1.338126 A    
C117  H99   1.111672 S    
C59   C63   1.351387 D    
N16   N24   1.375352 A    
C7    C39   1.384259 A    
C57   C61   1.351015 D    
C118  H103  1.111670 S    
N33   O1    1.300577 A    
C82   C86   1.382906 A    
N55   O14   1.299805 A    
C89   C93   1.392029 A    
C111  H74   1.108069 S    
C19   C43   1.391822 A    
C93   H33   1.069236 S    
N18   Ni1   1.853433 S    
C63   N35   1.435952 S    
C22   C46   1.385093 A    
C14   C46   1.372773 A    
C108  H64   1.110756 S    
N52   C120  1.450337 S    
C81   H45   1.079908 S    
C112  H78   1.108070 S    
C119  H107  1.111803 S    
C114  H86   1.110103 S    
C115  H92   1.111905 S    
C26   N26   1.343058 A    
N5    N25   1.385007 A    
C51   H23   1.076765 S    
N43   H73   1.028922 S    
C80   N44   1.426579 S    
N26   Ni7   1.856896 S    
C15   C47   1.373519 A    
C50   C54   1.330967 D    
N54   O12   1.299723 A    
C29   C33   1.399457 A    
C110  H70   1.107833 S    
C98   H38   1.080501 S    
C120  H111  1.111805 S    
C12   H12   1.077063 S    
C116  H94   1.106401 S    
C39   C71   1.472752 S    
N37   C105  1.448039 S    
N29   Ni5   1.827814 S    
C83   C87   1.381970 A    
C84   C88   1.381970 A    
C3    N3    1.336468 A    
C18   C42   1.389112 A    
C73   C91   1.414882 A    
N39   H57   1.030994 S    
C74   C92   1.414910 A    
N19   Ni4   1.853431 S    
C24   C48   1.384790 A    
C88   C90   1.407135 A    
C72   C84   1.401039 A    
N21   Ni1   1.870300 S    
C60   H30   1.086202 S    
C79   N43   1.426579 S    
C71   C83   1.401041 A    
C117  H98   1.111099 S    
C111  H76   1.111387 S    
N51   H105  1.028422 S    
C8    H8    1.075696 S    
C70   C82   1.401572 A    
N47   C115  1.453837 S    
N5    Ni2   1.823493 S    
C10   H10   1.076918 S    
C27   N27   1.342447 A    
N6    N26   1.385008 A    
C52   C56   1.330786 D    
N24   Ni4   1.870297 S    
C101  H43   1.084169 S    
C112  H80   1.111387 S    
C76   C80   1.412546 A    
C114  H88   1.102770 S    
C115  H90   1.105937 S    
N40   C108  1.447996 S    
C4    C36   1.376658 A    
C28   N28   1.342448 A    
C64   N36   1.435952 S    
C5    H5    1.074155 S    
C66   C94   1.406270 A    
N8    Ni3   1.823491 S    
C77   N41   1.426258 S    
C6    N6    1.332947 A    
C36   C55   1.461319 S    
N49   C117  1.450857 S    
C72   C80   1.411006 A    
C107  H60   1.110758 S    
C69   C81   1.401603 A    
C75   C79   1.412550 A    
N2    Ni2   1.856624 S    
C108  H63   1.110206 S    
C13   H13   1.080852 S    
C14   N14   1.337635 A    
C16   H16   1.080895 S    
C53   H25   1.087877 S    
N15   Ni8   1.828230 S    
C110  H72   1.111427 S    
C50   C60   1.468730 S    
N50   H101  1.027730 S    
C105  H51   1.110206 S    
C97   C101  1.387988 A    
C100  C104  1.388059 A    
C9    N9    1.341803 A    
N22   Ni2   1.870297 S    
C22   N22   1.346306 A    
C95   H35   1.067951 S    
C32   N32   1.347286 A    
C65   C93   1.406272 A    
C49   H21   1.077196 S    
C26   C38   1.396003 A    
C106  H54   1.110370 S    
C7    H7    1.075683 S    
C17   C41   1.389114 A    
C18   N18   1.340777 A    
N6    Ni1   1.823491 S    
N36   O8    1.301188 A    
C34   C53   1.461906 S    
C1    H1    1.069481 S    
C3    H3    1.070708 S    
N15   N23   1.375352 A    
N25   Ni7   1.856898 S    
C24   N52   1.421480 S    
C66   C98   1.404718 A    
C22   N50   1.423262 S    
C58   C62   1.351016 D    
C78   N42   1.426244 S    
C41   C66   1.478661 S    
C90   C94   1.392025 A    
N32   Ni6   1.827815 S    
N42   H69   1.029003 S    
C94   H34   1.069235 S    
C52   C58   1.467927 S    
N53   O10   1.299725 A    
C82   H46   1.079908 S    
C113  H84   1.102767 S    
N27   Ni8   1.856898 S    
N28   Ni8   1.856896 S    
N44   C112  1.447736 S    
C105  H50   1.110370 S    
C1    N1    1.338838 A    
N23   Ni3   1.870300 S    
C75   C89   1.414713 A    
C76   N38   1.425508 S    
C107  H58   1.110405 S    
N3    N31   1.385009 A    
C11   H11   1.077070 S    
N55   O13   1.300805 A    
C8    N8    1.328513 A    
C118  H102  1.111099 S    
N12   N20   1.375352 A    
C103  H41   1.084170 S    
C51   C55   1.330791 D    
N38   H53   1.030996 S    
C29   N29   1.347281 A    
C46   C62   1.448685 S    
C27   C39   1.398146 A    
N9    Ni5   1.856876 S    
C109  H67   1.110972 S    
C97   H37   1.080503 S    
C35   C56   1.461307 S    
C38   C70   1.475347 S    
N34   O4    1.301184 A    
C8    C40   1.384263 A    
N16   Ni8   1.828231 S    
N52   H109  1.028420 S    
C106  H56   1.110740 S    
N56   O15   1.300807 A    
C56   H28   1.087789 S    
N10   Ni5   1.856875 S    
C88   C102  1.398858 A    
C59   H29   1.086204 S    
N7    N27   1.385007 A    
C42   C65   1.478667 S    
N31   Ni6   1.827814 S    
C70   C78   1.411428 A    
N41   C109  1.447763 S    
C31   N31   1.347289 A    
C115  H91   1.109064 S    
N45   H81   1.028006 S    
C25   H17   1.075604 S    
N13   N21   1.375352 A    
C27   H19   1.075562 S    
C81   C85   1.382952 A    
C73   N39   1.425417 S    
C12   N12   1.340313 A    
N35   O6    1.301189 A    
C73   C77   1.413906 A    
C21   N49   1.423261 S    
C68   C96   1.405259 A    
N50   C118  1.450858 S    
C23   C47   1.384799 A    
C120  H110  1.110587 S    
C6    H6    1.074158 S    
C4    H4    1.070726 S    
C13   C45   1.372766 A    
C69   C77   1.411415 A    
N37   H49   1.030996 S    
C43   C68   1.478673 S    
C14   H14   1.080851 S    
C118  H104  1.109325 S    
C20   N48   1.423685 S    
C18   N46   1.426473 S    
C113  H82   1.110103 S    
C25   N25   1.343026 A    
C117  H100  1.109323 S    
C116  H95   1.109362 S    
C10   N10   1.341806 A    
N7    Ni4   1.823493 S    
C111  H75   1.110934 S    
C2    C34   1.376161 A    
N47   H89   1.030368 S    
C85   C91   1.407211 A    
C65   C97   1.404716 A    
C86   C92   1.407226 A    
C102  H44   1.084169 S    
C30   C34   1.399456 A    
C7    N7    1.328522 A    
C68   C100  1.404963 A    
N42   C110  1.447772 S    
C2    H2    1.069479 S    
C60   C64   1.351391 D    
C1    C33   1.376160 A    
C112  H79   1.110934 S    
C3    C35   1.376649 A    
C119  H108  1.109348 S    
C114  H87   1.108505 S    
C29   N53   1.430770 S    
N33   O2    1.301176 A    
C99   C103  1.388129 A    
N43   C111  1.447735 S    
C91   C95   1.394234 A    
C107  H59   1.110204 S    
C17   N45   1.426471 S    
C100  H40   1.080441 S    
N45   C113  1.452051 S    
N14   Ni7   1.828231 S    
C108  H62   1.110404 S    
C83   H47   1.079904 S    
C85   C103  1.398859 A    
C84   H48   1.079903 S    
C86   C104  1.398828 A    
N54   O11   1.300846 A    
N38   C106  1.448041 S    
C10   C42   1.384758 A    
C110  H71   1.110999 S    
C120  H112  1.109348 S    
N46   H85   1.028005 S    
C2    N2    1.338841 A    
N48   C116  1.453789 S    
C5    C37   1.383812 A    
C61   N33   1.435830 S    
N44   H77   1.028921 S    
C104  H42   1.084175 S    
C49   C53   1.330968 D    
N39   C107  1.447991 S    
C47   C63   1.449820 S    
C45   C61   1.448701 S    
N11   Ni6   1.856876 S    
C74   N40   1.425420 S    
C37   C69   1.475339 S    
N51   C119  1.450349 S    
C20   C44   1.391820 A    
C40   C72   1.472746 S    
C31   N55   1.430540 S    
C54   H26   1.087877 S    
N13   Ni7   1.828230 S    
N1    Ni1   1.856624 S    
C87   C101  1.398859 A    
C109  H66   1.107825 S    
N3    Ni3   1.856624 S    
N49   H97   1.027729 S    
C20   N20   1.338109 A    
N1    N29   1.385009 A    
