data_mof_unit_32598.cif
_audit_creation_date              2012-12-10T19:04:14-0500
_audit_creation_method            fapswitch 2.2
_symmetry_space_group_name_H-M    P1
_symmetry_Int_Tables_number       1
_space_group_crystal_system       triclinic
_cell_length_a                    10.63874
_cell_length_b                    10.808475
_cell_length_c                    9.584712
_cell_angle_alpha                 89.664036
_cell_angle_beta                  90.326883
_cell_angle_gamma                 90.875225
_cell_volume                      1101.9672762

loop_
_atom_site_label
_atom_site_type_symbol
_atom_type_description
_atom_site_fract_x
_atom_site_fract_y
_atom_site_fract_z
_atom_type_partial_charge
C1    C     C_R   0.504738 0.262472 0.500222 0.846131
C2    C     C_3   0.960346 0.599820 0.437936 0.420228
C3    C     C_3   0.039996 0.502408 0.365597 -0.204188
C4    C     C_3   0.122909 0.499890 0.497831 -0.032236
C5    C     C_R   0.496237 0.062218 0.621871 -0.096654
C6    C     C_R   0.522905 0.129616 0.501201 -0.202397
C7    C     C_R   0.576249 0.068002 0.386087 0.399915
C8    C     C_R   0.582323 0.936951 0.387861 0.280378
C9    C     C_R   0.527514 0.870445 0.501163 -0.186722
C10   C     C_R   0.495428 0.935452 0.620354 -0.018961
C11   C     C_3   0.385165 0.924030 0.715977 0.182435
C12   C     C_R   0.259546 0.499862 0.499406 0.816365
C13   C     C_3   0.385913 0.065285 0.718714 0.207542
C14   C     C_R   0.585646 0.570306 0.073498 0.256945
C15   C     C_R   0.407720 0.441897 0.075748 -0.035232
C16   C     C_R   0.407434 0.440002 0.928119 0.489324
C17   C     C_R   0.585684 0.570224 0.926309 0.191661
C18   C     C_3   0.724896 0.557881 0.922435 -0.502131
C19   C     C_3   0.725055 0.559449 0.080362 -0.444380
C20   C     C_R   0.507374 0.737364 0.499735 0.879483
C21   C     C_R   0.740585 0.499860 0.500470 0.812329
C22   C     C_3   0.041912 0.396187 0.562663 -0.138088
C23   C     C_3   0.956293 0.399008 0.431243 -0.223985
C24   C     C_3   0.877491 0.498811 0.501463 -0.006219
C25   C     C_3   0.961309 0.496143 0.632746 -0.186161
C26   C     C_3   0.044755 0.600016 0.568139 -0.195404
Cu1   Cu    Cu3+1 0.499990 0.499980 0.640670 0.966496
Cu2   Cu    Cu3+1 0.500010 0.500020 0.359330 0.984036
H1    H     H_    0.753356 0.467062 0.880176 0.216326
H2    H     H_    0.756046 0.470483 0.127038 0.224545
H3    H     H_    0.771076 0.643594 0.124571 0.231191
H4    H     H_    0.930082 0.492666 0.742603 0.156035
H5    H     H_    0.073879 0.506927 0.256310 0.155595
N1    N     N_R   0.500800 0.500930 0.147930 -0.230135
N2    N     N_R   0.500800 0.500890 0.852020 -0.246325
O1    O     O_R   0.500000 0.319640 0.618810 -0.602101
O2    O     O_R   0.500010 0.319680 0.381230 -0.526021
O3    O     O_R   0.316850 0.499950 0.618770 -0.572482
O4    O     O_R   0.316860 0.499990 0.381190 -0.601521
O5    O     O_R   0.499990 0.680320 0.618770 -0.571105
O6    O     O_R   0.500000 0.680360 0.381190 -0.569194
O7    O     O_R   0.683140 0.500010 0.618810 -0.600696
O8    O     O_R   0.683150 0.500050 0.381230 -0.575019
H6    H     H_    0.917293 0.316749 0.376205 0.167637
H7    H     H_    0.407789 0.877065 0.816592 0.127536
H8    H     H_    0.301456 0.108959 0.671836 0.145281
O9    O     O_3   0.416962 0.113750 0.850788 -0.706351
H9    H     H_    0.497499 0.077491 0.882780 0.334790
H10   H     H_    0.335255 0.391712 0.132307 0.167544
O10   O     O_3   0.311175 0.373881 0.866370 -0.717216
H11   H     H_    0.342377 0.340169 0.778657 0.383147
H12   H     H_    0.772136 0.640276 0.875099 0.203246
H13   H     H_    0.079031 0.311964 0.614282 0.150643
H14   H     H_    0.082752 0.683080 0.622322 0.164677
O11   O     O_3   0.913531 0.705974 0.373387 -0.763483
H15   H     H_    0.988595 0.753319 0.341366 0.331566
O12   O     O_3   0.621759 0.137497 0.275062 -0.710832
H16   H     H_    0.653098 0.082563 0.201182 0.367294
O13   O     O_3   0.639089 0.878018 0.278002 -0.734844
H17   H     H_    0.678705 0.801927 0.314215 0.358928
O14   O     O_3   0.278991 0.875287 0.647349 -0.740527
H18   H     H_    0.210769 0.874555 0.717467 0.321361

loop_
_geom_bond_atom_site_label_1
_geom_bond_atom_site_label_2
_ccdc_geom_bond_type
C14   N1    A    
C4    C26   S    
C23   C24   S    
C11   O14   S    
C6    C7    A    
Cu1   O1    S    
C4    C12   S    
C4    C22   S    
C9    C10   A    
C15   N1    A    
C5    C13   S    
O9    H9    S    
Cu1   O7    S    
C1    O2    A    
Cu1   O5    S    
O11   H15   S    
C19   H3    S    
Cu1   N2    S    
C25   H4    S    
C17   C18   S    
Cu2   N1    S    
O13   H17   S    
C2    C26   S    
C18   H1    S    
C12   O3    A    
C11   C13   S    
C14   C17   A    
O12   H16   S    
C13   H8    S    
Cu2   O2    S    
C12   O4    A    
C5    C6    A    
C26   H14   S    
C17   N2    A    
C16   O10   S    
C20   O6    A    
C22   H13   S    
C2    C3    S    
C2    O11   S    
C15   H10   S    
C16   N2    A    
C2    C24   S    
O14   H18   S    
C20   O5    A    
C9    C20   S    
C11   H7    S    
C10   C11   S    
C3    H5    S    
Cu1   O3    S    
C18   H12   S    
C1    C6    S    
Cu2   O6    S    
C7    C8    A    
C24   C25   S    
C18   C19   S    
C21   C24   S    
C8    O13   S    
Cu1   Cu2   S    
C13   O9    S    
O10   H11   S    
C22   C23   S    
C21   O7    A    
Cu2   O8    S    
Cu2   O4    S    
C5    C10   A    
C25   C26   S    
C21   O8    A    
C19   H2    S    
C3    C23   S    
C14   C19   S    
C7    O12   S    
C3    C4    S    
C15   C16   A    
C1    O1    A    
C8    C9    A    
C23   H6    S    
C22   C25   S    
