data_mof_unit_27876.cif
_audit_creation_date              2012-10-26T19:15:53-0400
_audit_creation_method            fapswitch 2.2
_symmetry_space_group_name_H-M    P1
_symmetry_Int_Tables_number       1
_space_group_crystal_system       triclinic
_cell_length_a                    7.776541
_cell_length_b                    9.08358
_cell_length_c                    16.928919
_cell_angle_alpha                 89.840434
_cell_angle_beta                  93.974307
_cell_angle_gamma                 90.043136
_cell_volume                      1192.95853896

loop_
_atom_site_label
_atom_site_type_symbol
_atom_type_description
_atom_site_fract_x
_atom_site_fract_y
_atom_site_fract_z
_atom_type_partial_charge
C1    C     C_R   0.499942 0.220002 0.500000 0.553676
C2    C     C_R   0.590561 0.403390 0.141454 0.011651
C3    C     C_R   0.551891 0.544613 0.903344 0.182060
C4    C     C_R   0.450967 0.468011 0.095949 0.184439
C5    C     C_R   0.681508 0.469111 0.867052 -0.108787
C6    C     C_R   0.317217 0.535780 0.133152 -0.109043
C7    C     C_R   0.676580 0.455772 0.784414 0.242542
C8    C     C_R   0.321540 0.545128 0.215902 0.243777
C9    C     C_1   0.499944 0.065384 0.500023 -0.041670
C10   C     C_1   0.500062 0.934615 0.500036 -0.041829
C11   C     C_3   0.732327 0.319806 0.103705 -0.230428
C12   C     C_R   0.500062 0.779997 0.500034 0.553170
C13   C     C_3   0.664708 0.176102 0.065374 -0.282676
C14   C     C_3   0.808066 0.093026 0.027340 -0.457309
C15   C     C_3   0.280918 0.706691 0.892925 -0.237073
C16   C     C_3   0.304922 0.869675 0.872240 -0.299507
C17   C     C_3   0.172945 0.966167 0.910236 -0.453830
C18   C     C_3   0.962790 0.438284 0.762196 -0.100620
C19   C     C_3   0.036669 0.548608 0.240743 -0.098816
C20   C     C_R   0.521413 0.500190 0.651773 0.569047
C21   C     C_R   0.478581 0.500083 0.348187 0.569083
C22   C     C_R   0.534338 0.513520 0.738406 0.005815
C23   C     C_R   0.465846 0.489566 0.261361 0.006728
C24   C     C_R   0.406559 0.592372 0.774872 -0.206325
C25   C     C_R   0.597350 0.417341 0.223950 -0.207249
C26   C     C_R   0.415740 0.612143 0.857014 0.010796
Cu1   Cu    Cu3+1 0.669080 0.500010 0.500000 1.032307
Cu2   Cu    Cu3+1 0.330920 0.499990 0.500000 1.031539
H1    H     H_    0.704454 0.369484 0.259502 0.121470
H2    H     H_    0.791190 0.390432 0.059280 0.163393
H3    H     H_    0.837806 0.291793 0.148976 0.117364
H4    H     H_    0.040002 0.933263 0.889177 0.158257
H5    H     H_    0.187928 0.956145 0.975771 0.151863
H6    H     H_    0.192850 0.083122 0.893860 0.154002
H7    H     H_    0.436598 0.905883 0.893696 0.170961
H8    H     H_    0.290276 0.885455 0.806988 0.167190
H9    H     H_    0.150510 0.669262 0.870485 0.120560
H10   H     H_    0.287020 0.696144 0.958296 0.182743
H11   H     H_    0.016610 0.417934 0.823761 0.100703
H12   H     H_    0.300615 0.641365 0.738997 0.125048
H13   H     H_    0.959702 0.558517 0.748855 0.112265
H14   H     H_    0.051841 0.386834 0.721909 0.162658
H15   H     H_    0.048367 0.429915 0.257043 0.111283
H16   H     H_    0.981234 0.561292 0.178832 0.102306
H17   H     H_    0.944467 0.598865 0.279933 0.164500
H18   H     H_    0.783636 0.416589 0.903618 0.110727
H19   H     H_    0.212197 0.585889 0.097293 0.110092
H20   H     H_    0.861518 0.161280 0.980291 0.153686
H21   H     H_    0.913124 0.064333 0.072561 0.157385
H22   H     H_    0.755536 0.989750 0.000220 0.149407
H23   H     H_    0.611289 0.104692 0.111188 0.165990
H24   H     H_    0.560248 0.199300 0.018951 0.191156
N1    N     N_1   0.076820 0.499970 0.500010 -0.082517
N2    N     N_1   0.923180 0.500030 0.499990 -0.082689
N3    N     N_2   0.558602 0.546739 0.986680 -0.261297
N4    N     N_2   0.443510 0.468347 0.012540 -0.268141
O1    O     O_R   0.642760 0.288400 0.500000 -0.491063
O2    O     O_3   0.195816 0.622853 0.252246 -0.548211
O3    O     O_R   0.357240 0.711600 0.500000 -0.491432
O4    O     O_R   0.357190 0.288380 0.500000 -0.500583
O5    O     O_R   0.642810 0.711620 0.500000 -0.499976
O6    O     O_R   0.658410 0.498660 0.613920 -0.459371
O7    O     O_R   0.341590 0.501340 0.386080 -0.459051
O8    O     O_R   0.372840 0.498650 0.613930 -0.525909
O9    O     O_R   0.627160 0.501350 0.386070 -0.525468
O10   O     O_3   0.798837 0.372635 0.748728 -0.550768

loop_
_geom_bond_atom_site_label_1
_geom_bond_atom_site_label_2
_ccdc_geom_bond_type
C20   O8    A    
C2    C4    A    
Cu2   N1    S    
C19   H17   S    
C15   H10   S    
Cu1   O9    S    
Cu1   O6    S    
C1    O1    A    
C18   O10   S    
C13   H24   S    
C9    C10   T    
N3    N4    D    
C21   O9    A    
Cu1   O1    S    
C18   H14   S    
Cu1   N2    S    
C11   H3    S    
C16   H7    S    
C13   H23   S    
C13   C14   S    
C16   H8    S    
C7    O10   S    
C20   O6    A    
C12   O5    A    
C11   C13   S    
C24   C26   A    
C14   H22   S    
C17   H5    S    
Cu2   O3    S    
C6    C8    A    
C2    C11   S    
Cu2   O8    S    
C6    H19   S    
C24   H12   S    
C19   H15   S    
C2    C25   A    
C10   C12   S    
Cu2   O4    S    
C19   O2    S    
C25   H1    S    
C17   H4    S    
C22   C24   A    
C21   O7    A    
C14   H21   S    
C17   H6    S    
C15   C16   S    
C7    C22   A    
Cu2   O7    S    
C8    C23   A    
C1    C9    S    
C19   H16   S    
C4    C6    A    
C23   C25   A    
C5    H18   S    
C1    O4    A    
Cu1   Cu2   S    
C5    C7    A    
C18   H11   S    
C15   H9    S    
C15   C26   S    
C14   H20   S    
Cu1   O5    S    
C8    O2    S    
N1    N2    T    
C12   O3    A    
C3    N3    S    
C21   C23   S    
C3    C26   A    
C4    N4    S    
C18   H13   S    
C11   H2    S    
C20   C22   S    
C16   C17   S    
C3    C5    A    
