data_mof_unit_48270.cif
_audit_creation_date              2012-12-11T16:25:28-0500
_audit_creation_method            fapswitch 2.2
_symmetry_space_group_name_H-M    P1
_symmetry_Int_Tables_number       1
_space_group_crystal_system       triclinic
_cell_length_a                    20.348955
_cell_length_b                    7.272272
_cell_length_c                    13.335418
_cell_angle_alpha                 89.999615
_cell_angle_beta                  103.431414
_cell_angle_gamma                 89.998958
_cell_volume                      1919.44139152

loop_
_atom_site_label
_atom_site_type_symbol
_atom_type_description
_atom_site_fract_x
_atom_site_fract_y
_atom_site_fract_z
_atom_type_partial_charge
O1    O     O_R   0.449520 0.506760 0.599710 -0.538517
O2    O     O_R   0.550480 0.006760 0.400290 -0.538516
O3    O     O_R   0.587930 0.180200 0.595790 -0.541856
O4    O     O_R   0.412070 0.680200 0.404210 -0.541854
C1    C     C_R   0.613877 0.343775 0.618844 0.694156
C2    C     C_R   0.386124 0.843780 0.381154 0.694152
O5    O     O_R   0.452350 0.177380 0.611700 -0.538718
O6    O     O_R   0.547650 0.677380 0.388300 -0.538713
O7    O     O_R   0.413930 0.001760 0.416320 -0.532931
O8    O     O_R   0.586070 0.501760 0.583680 -0.532928
C3    C     C_R   0.436108 0.345844 0.637771 0.678361
C4    C     C_R   0.563892 0.845841 0.362227 0.678352
O9    O     O_3   0.487550 0.337460 0.435880 -0.377329
O10   O     O_3   0.512450 0.837460 0.564120 -0.377331
V1    V     V_3+5 0.502310 0.064670 0.511900 1.416589
V2    V     V_3+5 0.497690 0.564670 0.488100 1.416596
C5    C     C_R   0.610276 0.910341 0.107672 -0.181606
C6    C     C_R   0.389721 0.410646 0.892321 -0.181564
H1    H     H_    0.517515 0.898776 0.157089 0.100519
H2    H     H_    0.482494 0.399203 0.842927 0.100517
H3    H     H_    0.692852 0.946599 0.981812 0.136979
H4    H     H_    0.307136 0.446922 0.018164 0.136977
H5    H     H_    0.584536 0.935241 0.028112 0.119809
H6    H     H_    0.415465 0.435713 0.971888 0.119771
C7    C     C_R   0.603706 0.856905 0.283903 -0.025230
C8    C     C_R   0.396289 0.356923 0.716089 -0.025234
C9    C     C_R   0.928122 0.805926 0.314665 -0.181190
C10   C     C_R   0.071872 0.305862 0.685339 -0.181172
C11   C     C_R   0.892912 0.787854 0.391543 -0.129230
C12   C     C_R   0.107077 0.287736 0.608454 -0.129229
C13   C     C_R   0.823259 0.813182 0.369440 -0.163691
C14   C     C_R   0.176728 0.313061 0.630549 -0.163679
C15   C     C_R   0.786589 0.855142 0.268163 0.081994
C16   C     C_R   0.213400 0.355086 0.731823 0.081998
C17   C     C_R   0.823407 0.877665 0.189888 0.045483
C18   C     C_R   0.176584 0.377673 0.810099 0.045478
C19   C     C_R   0.714544 0.868582 0.241291 0.061098
C20   C     C_R   0.285446 0.368565 0.758691 0.061053
C21   C     C_R   0.681031 0.900602 0.136692 0.111172
C22   C     C_R   0.318960 0.400759 0.863290 0.111189
C23   C     C_R   0.718178 0.921771 0.061584 -0.180696
C24   C     C_R   0.281811 0.421973 0.938395 -0.180664
C25   C     C_R   0.788190 0.911911 0.087671 -0.194585
C26   C     C_R   0.211799 0.412024 0.912310 -0.194608
C27   C     C_R   0.674237 0.847867 0.314078 -0.225861
C28   C     C_R   0.325752 0.347734 0.685904 -0.225858
C29   C     C_R   0.571940 0.888825 0.180845 -0.178593
C30   C     C_R   0.428062 0.389093 0.819157 -0.178569
C31   C     C_R   0.894674 0.856637 0.214770 -0.080130
C32   C     C_R   0.105320 0.356624 0.785227 -0.080139
H7    H     H_    0.695780 0.827050 0.395010 0.104089
H8    H     H_    0.304209 0.326717 0.604963 0.104096
H9    H     H_    0.981687 0.776907 0.333065 0.100703
H10   H     H_    0.018308 0.276833 0.666946 0.100708
H11   H     H_    0.799595 0.793696 0.432881 0.117638
H12   H     H_    0.200385 0.293543 0.567101 0.117643
H13   H     H_    0.919799 0.750739 0.468718 0.124170
H14   H     H_    0.080189 0.250573 0.531278 0.124150
H15   H     H_    0.814494 0.929063 0.026441 0.129267
H16   H     H_    0.185495 0.429225 0.973541 0.129277
H17   H     H_    0.115555 0.850268 0.503696 0.115229
H18   H     H_    0.884452 0.350246 0.496310 0.115230
C33   C     C_R   0.229315 0.874595 0.035323 -0.134332
C34   C     C_R   0.770687 0.374567 0.964675 -0.134319
C35   C     C_R   0.284529 0.885820 0.988713 0.194971
C36   C     C_R   0.715474 0.385756 0.011287 0.194993
C37   C     C_R   0.349810 0.888079 0.051705 -0.191735
C38   C     C_R   0.650192 0.388001 0.948295 -0.191711
C39   C     C_R   0.360292 0.877747 0.158551 -0.172473
C40   C     C_R   0.639710 0.377690 0.841449 -0.172482
C41   C     C_R   0.305487 0.865864 0.206383 0.065900
C42   C     C_R   0.694515 0.365837 0.793616 0.065900
C43   C     C_R   0.238557 0.866903 0.143960 0.016849
C44   C     C_R   0.761445 0.366889 0.856038 0.016851
C45   C     C_R   0.316567 0.846980 0.314570 -0.159074
C46   C     C_R   0.683436 0.346967 0.685428 -0.159081
C47   C     C_R   0.260800 0.827487 0.360002 0.044608
C48   C     C_R   0.739203 0.327481 0.639997 0.044616
C49   C     C_R   0.194008 0.862203 0.301021 0.054028
C50   C     C_R   0.805994 0.362203 0.698977 0.054033
C51   C     C_R   0.182226 0.865015 0.190476 -0.170629
C52   C     C_R   0.817776 0.365019 0.809521 -0.170633
C53   C     C_R   0.270737 0.776413 0.464767 -0.155227
C54   C     C_R   0.729269 0.276400 0.535234 -0.155230
C55   C     C_R   0.217008 0.769959 0.512196 -0.162474
C56   C     C_R   0.782999 0.269939 0.487808 -0.162481
C57   C     C_R   0.154385 0.835755 0.460724 -0.140817
C58   C     C_R   0.845620 0.335738 0.539279 -0.140800
C59   C     C_R   0.143339 0.895522 0.357866 0.113882
C60   C     C_R   0.856663 0.395517 0.642134 0.113879
H19   H     H_    0.178963 0.872485 0.986727 0.123810
H20   H     H_    0.821039 0.372469 0.013270 0.123810
H21   H     H_    0.393168 0.896729 0.017674 0.116306
H22   H     H_    0.606835 0.396623 0.982328 0.116305
H23   H     H_    0.411881 0.877730 0.203437 0.095259
H24   H     H_    0.588123 0.377653 0.796563 0.095260
H25   H     H_    0.319912 0.738139 0.510821 0.125726
H26   H     H_    0.680096 0.238121 0.489180 0.125715
H27   H     H_    0.225205 0.725472 0.591548 0.135506
H28   H     H_    0.774806 0.225443 0.408459 0.135499
O11   O     O_R   0.913760 0.203480 0.916370 -0.534172
O12   O     O_R   0.086240 0.703480 0.083630 -0.534176
O13   O     O_R   0.047590 0.535230 0.888250 -0.541097
O14   O     O_R   0.952410 0.035230 0.111750 -0.541095
C61   C     C_R   0.065501 0.368128 0.864003 0.664129
C62   C     C_R   0.934499 0.868130 0.135997 0.664121
O15   O     O_R   0.912020 0.532880 0.904260 -0.535457
O16   O     O_R   0.087980 0.032880 0.095740 -0.535452
O17   O     O_R   0.949590 0.708460 0.099750 -0.535030
O18   O     O_R   0.050410 0.208460 0.900250 -0.535031
C63   C     C_R   0.887229 0.365476 0.878345 0.685864
C64   C     C_R   0.112771 0.865473 0.121653 0.685861
O19   O     O_3   0.012370 0.375360 0.064120 -0.376055
O20   O     O_3   0.987630 0.875360 0.935880 -0.376050
V3    V     V_3+5 0.997700 0.648160 0.988110 1.388356
V4    V     V_3+5 0.002300 0.148160 0.011890 1.388358
C65   C     C_3   0.277088 0.896793 0.872885 -0.358324
C66   C     C_3   0.204629 0.894862 0.807280 -0.741497
H29   H     H_    0.179932 0.761482 0.814751 0.230961
H30   H     H_    0.174522 0.007084 0.830437 0.236093
H31   H     H_    0.205176 0.916021 0.725166 0.220995
H32   H     H_    0.301903 0.024443 0.855401 0.194425
H33   H     H_    0.304843 0.780557 0.848036 0.189853
C67   C     C_3   0.722915 0.396687 0.127117 -0.358355
C68   C     C_3   0.795374 0.394825 0.192716 -0.741516
H34   H     H_    0.820093 0.261481 0.185238 0.230956
H35   H     H_    0.825459 0.507090 0.169560 0.236103
H36   H     H_    0.794826 0.415952 0.274833 0.220995
H37   H     H_    0.698079 0.524293 0.144613 0.194430
H38   H     H_    0.695183 0.280405 0.151960 0.189869
C69   C     C_3   0.084819 0.026155 0.322313 -0.382565
C70   C     C_3   0.109183 0.221445 0.308128 -0.655144
H39   H     H_    0.138955 0.275606 0.382703 0.198959
H40   H     H_    0.141474 0.225424 0.251661 0.230133
H41   H     H_    0.064952 0.312730 0.280452 0.213375
H42   H     H_    0.050737 0.974758 0.252402 0.179924
H43   H     H_    0.053292 0.035297 0.379924 0.159082
C71   C     C_3   0.915176 0.526162 0.677681 -0.382559
C72   C     C_3   0.890798 0.721438 0.691858 -0.655198
H44   H     H_    0.861016 0.775569 0.617283 0.198977
H45   H     H_    0.858513 0.725407 0.748331 0.230135
H46   H     H_    0.935017 0.812752 0.719522 0.213372
H47   H     H_    0.949263 0.474779 0.747593 0.179926
H48   H     H_    0.946701 0.535314 0.620067 0.159098

loop_
_geom_bond_atom_site_label_1
_geom_bond_atom_site_label_2
_ccdc_geom_bond_type
C36   C38   A    
C61   O18   A    
C33   C35   A    
C7    C27   A    
C9    C11   A    
O12   C64   A    
O1    C3    A    
C42   C46   A    
O2    C4    A    
C2    O7    A    
O14   C62   A    
O20   V3    S    
O3    V1    S    
C2    C45   S    
C21   C23   A    
O5    C3    A    
C5    H5    S    
C55   H27   S    
C20   C22   A    
C46   C48   A    
O17   V3    S    
C71   H47   S    
C72   H46   S    
C48   C50   A    
C27   H7    S    
C28   H8    S    
C5    C21   A    
C39   C41   A    
C6    C22   A    
C66   H29   S    
O12   V3    S    
H17   C57   S    
O14   V4    S    
C10   C32   A    
C40   H24   S    
C70   H39   S    
C35   C37   A    
C17   C31   A    
C32   C61   S    
C13   C15   A    
C12   C14   A    
C17   C25   A    
C7    C29   A    
C16   C18   A    
C8    C30   A    
O19   V4    S    
C22   C24   A    
O6    V2    S    
C11   C13   A    
C23   C25   A    
C24   C26   A    
C44   C52   A    
C35   C65   S    
C43   C51   A    
C60   C71   S    
C47   C49   A    
C49   C59   A    
C55   C57   A    
C42   C44   A    
C69   H42   S    
C49   C51   A    
C10   H10   S    
C33   C43   A    
C3    C8    S    
O3    C1    A    
H18   C58   S    
C15   C19   A    
O16   C64   A    
C37   C39   A    
C66   H31   S    
C14   C16   A    
O4    V2    S    
O13   V3    S    
C65   H32   S    
C69   H43   S    
C68   H36   S    
C51   C64   S    
O6    C4    A    
C67   H38   S    
O13   C61   A    
O1    V2    S    
O2    V1    S    
C45   C47   A    
O15   V3    S    
H2    C30   S    
H3    C23   S    
O4    C2    A    
C53   C55   A    
C58   C60   A    
C57   C59   A    
C68   H34   S    
C36   C67   S    
C6    H6    S    
C18   C26   A    
C34   H20   S    
C19   C27   A    
C69   C70   S    
O18   V4    S    
C18   C32   A    
C41   C43   A    
O11   V4    S    
C34   C44   A    
C16   C20   A    
O15   C63   A    
C5    C29   A    
C11   H13   S    
C39   H23   S    
C6    C30   A    
C40   C42   A    
C72   H44   S    
C9    H9    S    
C31   C62   S    
C25   H15   S    
O11   C63   A    
C38   H22   S    
C59   C69   S    
C4    C7    S    
C54   H26   S    
C52   C63   S    
O16   V4    S    
C1    C46   S    
C10   C12   A    
C65   H33   S    
C1    O8    A    
C19   C21   A    
O8    V2    S    
C65   C66   S    
C41   C45   A    
C56   H28   S    
C72   H45   S    
H4    C24   S    
C26   H16   S    
C70   H41   S    
C12   H14   S    
O5    V1    S    
C15   C17   A    
C50   C52   A    
C67   H37   S    
H1    C29   S    
C56   C58   A    
C50   C60   A    
C66   H30   S    
C20   C28   A    
C71   C72   S    
C8    C28   A    
C48   C54   A    
C70   H40   S    
C37   H21   S    
C53   H25   S    
O9    V2    S    
C33   H19   S    
C68   H35   S    
C38   C40   A    
C47   C53   A    
O10   V1    S    
C54   C56   A    
C71   H48   S    
C13   H11   S    
C14   H12   S    
C9    C31   A    
O7    V1    S    
C34   C36   A    
C67   C68   S    
C62   O17   A    
