data_mof_unit_38704.cif
_audit_creation_date              2012-12-10T17:32:18-0500
_audit_creation_method            fapswitch 2.2
_symmetry_space_group_name_H-M    P1
_symmetry_Int_Tables_number       1
_space_group_crystal_system       triclinic
_cell_length_a                    12.466771
_cell_length_b                    13.295891
_cell_length_c                    14.973745
_cell_angle_alpha                 75.303077
_cell_angle_beta                  101.806249
_cell_angle_gamma                 117.613872
_cell_volume                      2116.33240268

loop_
_atom_site_label
_atom_site_type_symbol
_atom_type_description
_atom_site_fract_x
_atom_site_fract_y
_atom_site_fract_z
_atom_type_partial_charge
C1    C     C_R   0.854921 0.286833 0.507524 0.828170
C2    C     C_R   0.988777 0.587998 0.072077 0.063731
C3    C     C_R   0.928854 0.282634 0.086278 -0.112565
C4    C     C_R   0.915375 0.279122 0.991180 0.264262
C5    C     C_R   0.951606 0.383537 0.924475 -0.018529
C6    C     C_R   0.969989 0.486155 0.951125 -0.101550
C7    C     C_R   0.987238 0.588835 0.884220 -0.004284
C8    C     C_R   0.984951 0.682613 0.911714 0.324193
C9    C     C_R   0.990451 0.682675 0.005226 -0.215696
C10   C     C_R   0.969483 0.389811 0.832487 0.234221
C11   C     C_R   0.995078 0.493931 0.768448 -0.199868
C12   C     C_R   0.998865 0.497499 0.671106 0.937197
C13   C     C_R   0.007287 0.593540 0.793790 0.201838
C14   C     C_R   0.279761 0.027252 0.374813 -0.141860
C15   C     C_R   0.228538 0.837418 0.469652 -0.044922
C16   C     C_R   0.812338 0.082210 0.565492 -0.135011
C17   C     C_R   0.736191 0.965047 0.574492 -0.136953
C18   C     C_R   0.615376 0.926032 0.534789 -0.026840
C19   C     C_R   0.567799 0.007640 0.490250 0.030946
C20   C     C_R   0.651566 0.125057 0.466932 0.083360
C21   C     C_R   0.441165 0.977832 0.466007 0.105451
C22   C     C_R   0.403733 0.057639 0.402568 0.139909
C23   C     C_R   0.145251 0.713850 0.487532 0.843523
C24   C     C_R   0.490429 0.166296 0.366966 -0.187124
C25   C     C_R   0.612508 0.199870 0.398829 -0.139823
C26   C     C_R   0.350272 0.872770 0.505560 -0.145390
C27   C     C_R   0.192764 0.916817 0.406793 -0.140949
C28   C     C_R   0.772437 0.163321 0.510855 -0.090694
C29   C     C_R   0.388660 0.416106 0.680873 -0.223555
C30   C     C_R   0.750132 0.635647 0.365647 0.450787
C31   C     C_R   0.647326 0.653957 0.332423 -0.228762
C32   C     C_R   0.547515 0.599308 0.382020 -0.196039
C33   C     C_R   0.547966 0.526003 0.467434 -0.035728
C34   C     C_R   0.999501 0.500262 0.329218 0.809818
C35   C     C_R   0.655965 0.508920 0.501703 0.183382
C36   C     C_R   0.449493 0.479698 0.524225 -0.053492
C37   C     C_R   0.475920 0.450488 0.620609 0.147188
C38   C     C_R   0.585247 0.444854 0.655883 -0.197339
C39   C     C_R   0.660717 0.450580 0.596201 0.270400
C40   C     C_R   0.326719 0.462057 0.490924 0.088612
C41   C     C_R   0.275610 0.412377 0.645961 0.108301
C42   C     C_R   0.998312 0.591818 0.165394 -0.166070
C43   C     C_R   0.994706 0.496968 0.232703 -0.043863
C44   C     C_R   0.977746 0.396127 0.207760 -0.205659
C45   C     C_R   0.960931 0.387809 0.113706 0.003223
C46   C     C_R   0.972387 0.486870 0.045448 0.087951
Cu1   Cu    Cu3+1 0.098270 0.475420 0.521130 1.010579
Cu2   Cu    Cu3+1 0.901730 0.524580 0.478870 1.028848
H1    H     H_    0.010816 0.669342 0.185917 0.181689
H2    H     H_    0.463590 0.226657 0.315787 0.161342
H3    H     H_    0.250501 0.087567 0.326012 0.177631
H4    H     H_    0.372712 0.815216 0.562774 0.159800
H5    H     H_    0.904119 0.109218 0.599747 0.201747
H6    H     H_    0.773149 0.904420 0.610469 0.208494
H7    H     H_    0.675730 0.284061 0.367046 0.169948
H8    H     H_    0.211322 0.388359 0.694512 0.180563
H9    H     H_    0.598518 0.411549 0.729353 0.182093
H10   H     H_    0.407810 0.392456 0.755123 0.158912
H11   H     H_    0.975075 0.324230 0.262530 0.174740
H12   H     H_    0.476235 0.625796 0.356449 0.221943
H13   H     H_    0.646099 0.714473 0.268709 0.199941
H14   H     H_    0.992438 0.756194 0.025691 0.199365
H15   H     H_    0.098575 0.892887 0.380229 0.207755
N1    N     N_R   0.246280 0.438190 0.553160 -0.226089
N2    N     N_R   0.754320 0.561190 0.447410 -0.224810
O1    O     O_R   0.972510 0.318130 0.526570 -0.572739
O2    O     O_R   0.806530 0.359650 0.490890 -0.561623
O3    O     O_R   0.082980 0.479210 0.647590 -0.584334
O4    O     O_R   0.917000 0.520730 0.611900 -0.540911
O5    O     O_R   0.193470 0.640350 0.509110 -0.582858
O6    O     O_R   0.027490 0.681870 0.473430 -0.541389
O7    O     O_R   0.083000 0.479270 0.388100 -0.560111
O8    O     O_R   0.917020 0.520790 0.352410 -0.566717
C47   C     C_2   0.549368 0.802776 0.526832 0.812366
O9    O     O_2   0.563020 0.728697 0.589238 -0.577169
O10   O     O_R   0.471230 0.771907 0.446976 -0.755578
H16   H     H_    0.414795 0.686846 0.455706 0.339189
C48   C     C_2   0.276885 0.431713 0.397851 0.861220
O11   O     O_2   0.237840 0.331278 0.389412 -0.589708
O12   O     O_R   0.273790 0.515319 0.320178 -0.772398
H17   H     H_    0.240643 0.482675 0.260844 0.339763
Br1   Br    Br    0.884876 0.728931 0.293750 -0.515293
Br2   Br    Br    0.693208 0.317872 0.643346 -0.453518
C49   C     C_2   0.901267 0.173967 0.155712 0.910613
O13   O     O_2   0.952047 0.113821 0.157165 -0.529953
O14   O     O_R   0.815815 0.139643 0.218117 -0.759223
H18   H     H_    0.804929 0.064250 0.261756 0.345769
Br3   Br    Br    0.812894 0.129591 0.955942 -0.310524
Br4   Br    Br    0.983985 0.267712 0.794698 -0.415473
Br5   Br    Br    0.083855 0.738594 0.709657 -0.434173
Br6   Br    Br    0.948962 0.802778 0.829406 -0.373616

loop_
_geom_bond_atom_site_label_1
_geom_bond_atom_site_label_2
_ccdc_geom_bond_type
C16   C28   A    
C21   C26   A    
C13   Br5   S    
C31   H13   S    
C19   C20   A    
Cu2   O4    S    
C12   O4    A    
C7    C8    A    
C41   H8    S    
C45   C46   A    
C2    C46   A    
C12   O3    A    
C47   O10   S    
C5    C6    A    
C36   C37   A    
C19   C21   A    
C49   O14   S    
C14   H3    S    
C38   C39   A    
C48   O12   S    
C20   C25   A    
C35   N2    A    
C44   H11   S    
C33   C36   A    
C18   C19   A    
C16   H5    S    
C1    O2    A    
C49   O13   D    
C31   C32   A    
C10   Br4   S    
C8    C9    A    
C1    C28   S    
C14   C27   A    
Cu1   O1    S    
C15   C23   S    
C18   C47   S    
C21   C22   A    
C23   O5    A    
C17   C18   A    
C24   H2    S    
C47   O9    D    
C9    H14   S    
C23   O6    A    
C36   C40   A    
O10   H16   S    
Cu1   N1    S    
C48   O11   D    
C16   C17   A    
C15   C26   A    
C20   C28   A    
C34   O8    A    
C3    C45   A    
C30   Br1   S    
C35   C39   A    
C43   C44   A    
Cu1   O5    S    
C37   C38   A    
C26   H4    S    
C38   H9    S    
C15   C27   A    
Cu1   Cu2   S    
C7    C13   A    
C1    O1    A    
C8    Br6   S    
C24   C25   A    
C27   H15   S    
Cu2   N2    S    
C22   C24   A    
C42   C43   A    
C32   H12   S    
Cu2   O6    S    
C3    C4    A    
C34   O7    A    
Cu1   O3    S    
C44   C45   A    
C6    C46   A    
C29   C41   A    
O14   H18   S    
Cu2   O8    S    
C34   C43   S    
C25   H7    S    
O12   H17   S    
C11   C12   S    
C6    C7    A    
C4    Br3   S    
C40   N1    A    
C32   C33   A    
C14   C22   A    
C39   Br2   S    
C5    C10   A    
C11   C13   A    
C30   C31   A    
C2    C42   A    
C33   C35   A    
C40   C48   S    
Cu2   O2    S    
Cu1   O7    S    
C30   N2    A    
C10   C11   A    
C42   H1    S    
C4    C5    A    
C29   H10   S    
C29   C37   A    
C3    C49   S    
C41   N1    A    
C2    C9    A    
C17   H6    S    
