data_mof_unit_11204.cif
_audit_creation_date              2012-12-10T18:19:56-0500
_audit_creation_method            fapswitch 2.2
_symmetry_space_group_name_H-M    P1
_symmetry_Int_Tables_number       1
_space_group_crystal_system       triclinic
_cell_length_a                    10.629779
_cell_length_b                    10.624442
_cell_length_c                    9.447036
_cell_angle_alpha                 90.442879
_cell_angle_beta                  90.984956
_cell_angle_gamma                 89.765463
_cell_volume                      1066.70757522

loop_
_atom_site_label
_atom_site_type_symbol
_atom_type_description
_atom_site_fract_x
_atom_site_fract_y
_atom_site_fract_z
_atom_type_partial_charge
C1    C     C_R   0.501204 0.259706 0.499535 0.847374
C2    C     C_R   0.498817 0.740294 0.500463 0.847496
C3    C     C_3   0.502424 0.959842 0.635239 -0.207785
C4    C     C_3   0.497630 0.040159 0.364742 -0.207827
C5    C     C_3   0.558638 0.598206 0.052989 -0.095418
C6    C     C_3   0.441362 0.401795 0.947012 -0.095297
C7    C     C_3   0.445414 0.597414 0.951237 0.396498
C8    C     C_3   0.554587 0.402587 0.048765 0.396606
C9    C     C_3   0.614556 0.498419 0.951505 -0.137131
C10   C     C_3   0.385445 0.501582 0.048496 -0.137238
C11   C     C_R   0.259737 0.498398 0.498893 0.827711
C12   C     C_R   0.740262 0.501591 0.501108 0.827564
C13   C     C_3   0.044518 0.420106 0.600485 -0.222272
C14   C     C_3   0.955479 0.579871 0.399526 -0.222207
C15   C     C_3   0.955844 0.382383 0.474519 -0.228776
C16   C     C_3   0.044151 0.617593 0.525494 -0.228662
C17   C     C_3   0.876825 0.501746 0.502600 -0.078088
C18   C     C_3   0.123173 0.498230 0.497409 -0.078123
C19   C     C_3   0.964482 0.538708 0.625461 0.332785
C20   C     C_3   0.035514 0.461267 0.374549 0.332778
C21   C     C_3   0.604510 0.039442 0.565094 0.051946
C22   C     C_3   0.395544 0.960558 0.434882 0.051964
C23   C     C_3   0.601282 0.954969 0.431752 -0.251544
C24   C     C_3   0.398765 0.045028 0.568225 -0.251486
C25   C     C_3   0.497897 0.876973 0.500993 -0.041719
C26   C     C_3   0.502151 0.123027 0.498991 -0.041721
Cu1   Cu    Cu3+1 0.500030 0.499990 0.643150 0.960738
Cu2   Cu    Cu3+1 0.499970 0.500010 0.356850 0.960664
H1    H     H_    0.918254 0.287099 0.450704 0.172295
H2    H     H_    0.081735 0.712874 0.549338 0.172489
H3    H     H_    0.082607 0.356330 0.683474 0.143350
H4    H     H_    0.917390 0.643653 0.316542 0.143346
H5    H     H_    0.684361 0.915807 0.376671 0.147416
H6    H     H_    0.315681 0.084186 0.623302 0.147330
H7    H     H_    0.505084 0.925557 0.745985 0.179136
H8    H     H_    0.494969 0.074442 0.253997 0.179232
H9    H     H_    0.606711 0.680699 0.101970 0.127914
H10   H     H_    0.393286 0.319302 0.898034 0.127934
H11   H     H_    0.710428 0.494242 0.907155 0.161799
H12   H     H_    0.289573 0.505757 0.092847 0.161776
N1    N     N_3   0.500090 0.499970 0.858290 -0.193300
N2    N     N_3   0.499910 0.500030 0.141710 -0.193317
O1    O     O_R   0.500060 0.316850 0.620870 -0.564731
O2    O     O_R   0.499940 0.683150 0.379130 -0.564856
O3    O     O_R   0.500000 0.316860 0.379090 -0.578831
O4    O     O_R   0.500000 0.683140 0.620910 -0.578777
O5    O     O_R   0.316880 0.499960 0.620870 -0.607642
O6    O     O_R   0.683120 0.500040 0.379130 -0.607669
O7    O     O_R   0.316830 0.499970 0.379090 -0.559771
O8    O     O_R   0.683170 0.500030 0.620910 -0.559746
N3    N     N_2   0.922790 0.582319 0.762436 -0.429367
H13   H     H_    0.854232 0.650999 0.755181 0.265680
C27   C     C_3   0.022952 0.615548 0.861103 -0.700019
H14   H     H_    0.982629 0.637855 0.965986 0.232558
H15   H     H_    0.073726 0.699754 0.823384 0.229381
H16   H     H_    0.090330 0.536097 0.873808 0.235905
N4    N     N_2   0.077192 0.417655 0.237568 -0.429367
H17   H     H_    0.145736 0.348963 0.244815 0.265699
C28   C     C_3   0.977023 0.384456 0.138887 -0.699963
H18   H     H_    0.017338 0.362150 0.033999 0.232555
H19   H     H_    0.909661 0.463925 0.126189 0.235893
H20   H     H_    0.926230 0.300259 0.176596 0.229362
C29   C     C_2   0.723650 0.080361 0.638698 0.794388
O9    O     O_2   0.795654 0.001036 0.687071 -0.606024
O10   O     O_R   0.752115 0.208138 0.651709 -0.780605
H21   H     H_    0.835120 0.223400 0.703329 0.324633
C30   C     C_2   0.276449 0.919630 0.361187 0.794516
O11   O     O_2   0.204718 0.998931 0.312213 -0.605998
O12   O     O_R   0.247747 0.791890 0.348701 -0.780778
H22   H     H_    0.164862 0.776619 0.296857 0.324661
N5    N     N_2   0.383159 0.706445 0.891233 -0.425058
H23   H     H_    0.315416 0.683191 0.816345 0.269014
C31   C     C_3   0.339192 0.797856 0.993171 -0.709943
H24   H     H_    0.302120 0.881814 0.936704 0.231163
H25   H     H_    0.417464 0.828504 0.064681 0.242390
H26   H     H_    0.262470 0.757001 0.056282 0.243808
N6    N     N_2   0.616827 0.293550 0.108773 -0.425059
H27   H     H_    0.684527 0.316789 0.183720 0.269023
C32   C     C_3   0.660866 0.202163 0.006840 -0.710120
H28   H     H_    0.697754 0.118143 0.063301 0.231076
H29   H     H_    0.737734 0.242973 0.943921 0.243850
H30   H     H_    0.582687 0.171623 0.935155 0.242540

loop_
_geom_bond_atom_site_label_1
_geom_bond_atom_site_label_2
_ccdc_geom_bond_type
C7    C10   S    
C21   C26   S    
C4    H8    S    
C11   C18   S    
C5    H9    S    
C10   N2    S    
C31   H24   S    
C11   O5    A    
C12   O6    A    
C29   O10   S    
C27   H14   S    
C2    O4    A    
C13   C18   S    
C8    N2    S    
C7    N5    S    
N4    C28   S    
C16   H2    S    
C9    H11   S    
C22   C25   S    
C10   H12   S    
C1    O1    A    
C2    O2    A    
C8    C9    S    
C23   H5    S    
C6    N1    S    
C12   C17   S    
C6    H10   S    
C18   C20   S    
Cu1   O8    S    
N6    C32   S    
C28   H18   S    
C31   H25   S    
C14   C17   S    
C3    C24   S    
C15   H1    S    
C27   H15   S    
C15   C20   S    
Cu2   O3    S    
C28   H19   S    
C13   C19   S    
N3    H13   S    
C14   C20   S    
C3    C25   S    
C14   H4    S    
C32   H29   S    
C4    C23   S    
C6    C8    S    
N6    H27   S    
Cu2   O2    S    
C24   H6    S    
C30   O11   D    
N3    C27   S    
C5    C9    S    
C11   O7    A    
Cu1   O1    S    
C4    C22   S    
Cu2   O7    S    
Cu1   N1    S    
C4    C26   S    
C3    H7    S    
Cu1   O4    S    
C13   C15   S    
C8    N6    S    
C31   H26   S    
C14   C16   S    
C3    C21   S    
C5    N2    S    
C5    C7    S    
C27   H16   S    
Cu1   O5    S    
C15   C17   S    
Cu2   O6    S    
C28   H20   S    
C13   H3    S    
C24   C26   S    
C29   O9    D    
C6    C10   S    
C32   H30   S    
C12   O8    A    
C9    N1    S    
C21   C23   S    
N5    H23   S    
C1    O3    A    
N4    H17   S    
C1    C26   S    
C16   C19   S    
Cu2   N2    S    
C17   C19   S    
C2    C25   S    
C22   C24   S    
C7    N1    S    
O12   H22   S    
C22   C30   S    
C21   C29   S    
C32   H28   S    
C19   N3    S    
C23   C25   S    
C16   C18   S    
O10   H21   S    
N5    C31   S    
Cu1   Cu2   S    
C30   O12   S    
C20   N4    S    
