data_mof_unit_13667.cif
_audit_creation_date              2013-03-05T15:44:21-0500
_audit_creation_method            fapswitch 2.2
_symmetry_space_group_name_H-M    P1
_symmetry_Int_Tables_number       1
_space_group_crystal_system       triclinic
_cell_length_a                    10.687223
_cell_length_b                    10.738116
_cell_length_c                    10.032416
_cell_angle_alpha                 90.149405
_cell_angle_beta                  90.911322
_cell_angle_gamma                 89.993635
_cell_volume                      1151.17693492

loop_
_atom_site_label
_atom_site_type_symbol
_atom_site_description
_atom_site_fract_x
_atom_site_fract_y
_atom_site_fract_z
_atom_type_partial_charge
O1    O     O_R   0.499980 0.319060 0.613040 -0.599256
O2    O     O_R   0.500020 0.319100 0.386900 -0.590137
C1    C     C_R   0.502021 0.262706 0.499717 0.949241
O3    O     O_R   0.314770 0.499960 0.613070 -0.617549
O4    O     O_R   0.314820 0.500000 0.386930 -0.550701
C2    C     C_R   0.257788 0.496612 0.499472 0.920269
Zn1   Zn    Zn3+2 0.499970 0.499970 0.650990 1.064233
Zn2   Zn    Zn3+2 0.500030 0.500030 0.349010 1.081317
O5    O     O_R   0.499980 0.680900 0.613100 -0.621210
O6    O     O_R   0.500020 0.680940 0.386960 -0.626177
O7    O     O_R   0.685180 0.500000 0.613070 -0.560033
O8    O     O_R   0.685230 0.500040 0.386930 -0.643259
C3    C     C_R   0.496508 0.737274 0.500033 0.948176
C4    C     C_R   0.742052 0.496301 0.501911 0.899213
C5    C     C_3   0.075463 0.499227 0.648086 -0.461029
H1    H     H_    0.100735 0.589970 0.693817 0.265251
C6    C     C_3   0.933017 0.475986 0.655729 0.496736
C7    C     C_3   0.068139 0.609617 0.422894 0.162838
C8    C     C_3   0.068664 0.371018 0.436641 0.066759
C9    C     C_3   0.121144 0.494749 0.500219 -0.198274
H2    H     H_    0.089807 0.294341 0.508000 0.184037
C10   C     C_3   0.878309 0.492878 0.507382 -0.134241
C11   C     C_3   0.925711 0.615046 0.440505 -0.469975
C12   C     C_3   0.924783 0.381285 0.421865 -0.465605
H3    H     H_    0.880686 0.292388 0.453152 0.203776
H4    H     H_    0.896389 0.395377 0.315788 0.249425
H5    H     H_    0.085479 0.594975 0.315144 0.201385
C13   C     C_2   0.493717 0.932898 0.387247 -0.106658
C14   C     C_2   0.482480 0.868698 0.500166 -0.235286
H6    H     H_    0.508297 0.887211 0.291959 0.181998
C15   C     C_2   0.486288 0.066860 0.387979 -0.090437
C16   C     C_2   0.511705 0.131043 0.499233 -0.301225
H7    H     H_    0.543062 0.088210 0.591596 0.170212
C17   C     C_2   0.536610 0.594324 0.925530 0.009390
N1    N     N_2   0.501360 0.501330 0.852150 -0.163966
C18   C     C_2   0.553993 0.585094 0.074258 -0.036979
N2    N     N_2   0.501390 0.501360 0.147810 -0.023450
H8    H     H_    0.615248 0.652689 0.122413 0.132203
H9    H     H_    0.881589 0.626480 0.339897 0.193228
H10   H     H_    0.459319 0.911444 0.594626 0.164234
H11   H     H_    0.461880 0.112784 0.294725 0.226038
H12   H     H_    0.559472 0.681755 0.877860 0.164501
H13   H     H_    0.501038 0.414732 0.895601 0.219651
H14   H     H_    0.128046 0.432309 0.711560 0.240447
N3    N     N_R   0.393338 0.445493 0.096407 0.287876
O9    O     O_R   0.374302 0.327830 0.118317 -0.305385
O10   O     O_R   0.301017 0.513695 0.051748 -0.319838
N4    N     N_R   0.906634 0.347035 0.703886 0.206031
O11   O     O_R   0.791918 0.309451 0.718329 -0.348031
O12   O     O_R   0.995474 0.269673 0.737495 -0.353403
N5    N     N_R   0.880886 0.566375 0.752077 0.216221
O13   O     O_R   0.888327 0.685767 0.732044 -0.373080
O14   O     O_R   0.837846 0.528219 0.865619 -0.321076
N6    N     N_R   0.128737 0.728019 0.460396 0.206087
O15   O     O_R   0.108988 0.780983 0.574935 -0.332297
O16   O     O_R   0.196434 0.786091 0.373623 -0.352516
H15   H     H_    0.897024 0.698635 0.497098 0.253478
N7    N     N_R   0.125475 0.336570 0.309373 0.246398
O17   O     O_R   0.100697 0.398237 0.200646 -0.293600
O18   O     O_R   0.190931 0.234678 0.301918 -0.315979

loop_
_geom_bond_atom_site_label_1
_geom_bond_atom_site_label_2
_geom_bond_distance
_ccdc_geom_bond_type
O4    Zn2   2.021541 S    
N6    O16   1.301192 A    
C5    C6    1.545834 S    
C6    C10   1.601076 S    
C2    C9    1.460622 S    
C7    C9    1.560446 S    
C8    C9    1.571959 S    
C17   H12   1.084411 S    
C6    N4    1.496061 S    
Zn2   O8    2.009552 S    
C16   H7    1.083883 S    
C4    C10   1.456836 S    
C13   H6    1.086791 S    
C8    C12   1.546422 S    
O1    Zn1   1.978616 S    
N3    O9    1.299629 A    
C18   H8    1.084907 S    
Zn1   O7    2.021542 S    
C6    N5    1.482864 S    
O4    C2    1.292186 A    
Zn1   N1    2.017953 S    
C18   N2    1.298380 D    
O3    Zn1   2.009552 S    
C11   H15   1.106722 S    
C14   H10   1.084064 S    
N4    O12   1.302446 A    
N4    O11   1.301152 A    
C8    H2    1.113276 S    
O8    C4    1.295760 A    
C5    H14   1.108417 S    
O2    C1    1.284911 A    
C17   C18   1.504204 S    
N3    O10   1.303097 A    
C8    N7    1.468957 S    
C1    C16   1.417591 S    
O7    C4    1.279052 A    
C10   C12   1.557792 S    
O3    C2    1.284010 A    
C5    H1    1.107563 S    
C7    N6    1.472207 S    
N2    N3    1.392454 S    
N5    O13   1.300859 A    
C15   C16   1.334521 D    
N1    H13   1.028062 S    
C12   H3    1.112765 S    
Zn2   O6    1.978616 S    
C17   N1    1.291697 D    
Zn2   N2    2.018893 S    
C3    C14   1.419171 S    
Zn1   O5    1.980659 S    
O5    C3    1.287159 A    
N6    O15   1.301043 A    
C13   C14   1.334711 D    
C15   H11   1.086796 S    
N5    O14   1.302362 A    
N7    O17   1.301149 A    
C10   C11   1.563111 S    
N7    O18   1.301204 A    
C11   H9    1.114314 S    
C13   C15   1.440683 S    
O2    Zn2   1.980657 S    
C7    H5    1.110448 S    
C7    C11   1.536246 S    
C12   H4    1.112686 S    
C5    C9    1.569708 S    
O1    C1    1.287015 A    
O6    C3    1.285283 A    
