data_mof_unit_43108.cif
_audit_creation_date              2013-03-05T16:06:55-0500
_audit_creation_method            fapswitch 2.2
_symmetry_space_group_name_H-M    P1
_symmetry_Int_Tables_number       1
_space_group_crystal_system       triclinic
_cell_length_a                    14.452395
_cell_length_b                    16.315631
_cell_length_c                    6.913583
_cell_angle_alpha                 89.999377
_cell_angle_beta                  98.554527
_cell_angle_gamma                 89.999612
_cell_volume                      1612.08584881

loop_
_atom_site_label
_atom_site_type_symbol
_atom_site_description
_atom_site_fract_x
_atom_site_fract_y
_atom_site_fract_z
_atom_type_partial_charge
O1    O     O_R   0.584990 0.413650 0.534420 -0.596887
O2    O     O_R   0.584990 0.586350 0.534420 -0.596873
O3    O     O_R   0.596190 0.585230 0.208380 -0.601337
O4    O     O_R   0.596190 0.414770 0.208380 -0.601321
O5    O     O_R   0.415010 0.586420 0.976930 -0.566770
O6    O     O_R   0.415010 0.413580 0.976930 -0.566778
C1    C     C_R   0.620150 0.613089 0.384650 1.011387
C2    C     C_R   0.620149 0.386910 0.384654 1.011411
O7    O     O_3   0.440560 0.500000 0.319140 -0.229068
V1    V     V_3+5 0.511030 0.500000 0.068070 1.226981
O8    O     O_R   0.403810 0.414840 0.643540 -0.577433
O9    O     O_R   0.403810 0.585160 0.643540 -0.577435
C3    C     C_R   0.384947 0.383703 0.807923 1.065986
C4    C     C_R   0.384947 0.616298 0.807922 1.065993
V2    V     V_3+5 0.488970 0.500000 0.560620 1.245625
O10   O     O_3   0.559440 0.500000 0.859420 -0.305180
C5    C     C_2   0.319857 0.686627 0.805796 -0.466767
C6    C     C_2   0.319854 0.313376 0.805797 -0.466778
C7    C     C_2   0.312142 0.734084 0.965779 0.307401
C8    C     C_2   0.312136 0.265919 0.965780 0.307536
H1    H     H_    0.212407 0.786744 0.238470 0.188366
H2    H     H_    0.212399 0.213258 0.238465 0.188457
C9    C     C_2   0.199302 0.822640 0.104933 -0.423078
C10   C     C_2   0.199296 0.177364 0.104929 -0.423269
C11   C     C_2   0.244862 0.803273 0.951358 0.331120
C12   C     C_2   0.244856 0.196732 0.951355 0.330837
H3    H     H_    0.275566 0.699364 0.667974 0.190205
H4    H     H_    0.275565 0.300642 0.667974 0.190217
C13   C     C_R   0.764385 0.681381 0.571413 0.109166
C14   C     C_R   0.764371 0.318611 0.571465 0.109568
C15   C     C_R   0.691407 0.679542 0.413490 -0.223635
C16   C     C_R   0.691407 0.320456 0.413508 -0.223897
C17   C     C_R   0.690586 0.742809 0.274931 -0.180960
C18   C     C_R   0.690586 0.257192 0.274947 -0.180942
H5    H     H_    0.637518 0.742719 0.146507 0.171664
H6    H     H_    0.637514 0.257281 0.146530 0.171634
C19   C     C_R   0.752585 0.810301 0.307463 0.353533
C20   C     C_R   0.752579 0.189698 0.307483 0.353869
C21   C     C_R   0.820448 0.815359 0.479179 -0.334104
C22   C     C_R   0.820451 0.184644 0.479177 -0.334154
C23   C     C_R   0.827835 0.746047 0.600930 0.108204
C24   C     C_R   0.827838 0.253947 0.600954 0.108561
C25   C     C_3   0.837935 0.736730 0.818192 0.192143
C26   C     C_3   0.837835 0.263179 0.818221 0.191668
C27   C     C_3   0.767908 0.665926 0.784899 -0.562826
C28   C     C_3   0.767798 0.333967 0.784976 -0.562737
H7    H     H_    0.813072 0.790615 0.892163 0.122361
H8    H     H_    0.812958 0.209225 0.891920 0.122493
H9    H     H_    0.700319 0.679679 0.836557 0.198845
H10   H     H_    0.700182 0.320168 0.836468 0.198808
H11   H     H_    0.798167 0.604819 0.828376 0.222837
H12   H     H_    0.798031 0.395062 0.828664 0.222762
O11   O     O_R   0.921430 0.915960 0.371040 -0.566817
O12   O     O_R   0.921430 0.084040 0.371040 -0.566638
O13   O     O_R   0.910450 0.087500 0.697310 -0.601015
O14   O     O_R   0.910450 0.912500 0.697310 -0.600733
O15   O     O_R   0.091710 0.087460 0.928430 -0.570103
O16   O     O_R   0.091710 0.912540 0.928430 -0.569802
C29   C     C_R   0.887283 0.114150 0.518803 1.038531
C30   C     C_R   0.887283 0.885851 0.518805 1.038865
O17   O     O_3   0.065970 1.000000 0.586140 -0.226018
V3    V     V_3+5 0.995640 0.000000 0.837400 1.310399
O18   O     O_R   0.103020 0.915700 0.261710 -0.579648
O19   O     O_R   0.103020 0.084300 0.261710 -0.579543
C31   C     C_R   0.128156 0.888404 0.099204 1.075600
C32   C     C_R   0.128153 0.111599 0.099203 1.075458
V4    V     V_3+5 0.017940 0.000000 0.344880 1.317351
O20   O     O_3   0.947330 0.000000 0.046180 -0.254583
Br1   Br    Br    0.237559 0.868768 0.716002 -0.425188
Br2   Br    Br    0.237555 0.131239 0.715999 -0.425300
Br3   Br    Br    0.394222 0.724390 0.213422 -0.498178
Br4   Br    Br    0.394215 0.275610 0.213426 -0.498160
Br5   Br    Br    0.731095 0.897419 0.122606 -0.450861
Br6   Br    Br    0.731047 0.102553 0.122715 -0.450842
N1    N     N_R   0.931266 0.709737 0.906411 0.255137
O21   O     O_R   0.945118 0.686860 0.088663 -0.375498
O22   O     O_R   0.002610 0.716780 0.812594 -0.384921
N2    N     N_R   0.931125 0.290162 0.906746 0.255159
O23   O     O_R   0.002329 0.284193 0.812255 -0.384321
O24   O     O_R   0.945048 0.312311 0.089486 -0.375739

loop_
_geom_bond_atom_site_label_1
_geom_bond_atom_site_label_2
_geom_bond_distance
_ccdc_geom_bond_type
O16   V3    2.024863 S    
C14   C16   1.401030 A    
O18   C31   1.309194 A    
O13   C29   1.304327 A    
O1    C2    1.295056 A    
C7    Br3   1.938890 S    
O2    C1    1.295068 A    
O15   C32   1.281195 A    
O4    C2    1.298519 A    
O15   V3    2.024884 S    
C21   C23   1.404296 A    
C3    C6    1.482469 S    
H2    C10   1.085895 S    
C10   C12   1.367007 D    
O3    C1    1.298504 A    
N2    O24   1.300620 A    
C27   H11   1.111980 S    
V2    O10   2.163049 S    
O13   V3    2.034006 S    
C28   H12   1.111979 S    
C17   H5    1.083496 S    
O8    V2    1.995968 S    
C15   C17   1.407096 A    
O1    V2    2.004548 S    
O7    V1    2.139199 S    
C6    C8    1.368215 D    
C10   C32   1.482553 S    
C22   C24   1.404291 A    
C22   C29   1.500707 S    
C23   C25   1.495113 S    
C4    C5    1.482473 S    
C24   C26   1.495086 S    
O11   V4    1.983266 S    
O11   C30   1.295564 A    
C26   C28   1.530389 S    
O12   C29   1.295561 A    
C25   N1    1.463083 S    
O18   V4    1.986114 S    
C1    C15   1.488213 S    
V4    O20   2.163105 S    
C5    H3    1.085985 S    
O19   V4    1.986116 S    
C6    H4    1.085985 S    
N2    O23   1.302008 A    
O12   V4    1.983254 S    
C17   C19   1.416374 A    
O14   C30   1.304327 A    
C13   C27   1.490717 S    
O19   C32   1.309192 A    
N1    O21   1.300759 A    
C25   C27   1.530506 S    
O17   V4    1.708659 S    
O16   C31   1.281196 A    
O9    V2    1.995964 S    
C27   H9    1.111697 S    
O2    V2    2.004557 S    
N1    O22   1.302310 A    
O5    C4    1.280873 A    
O9    C4    1.310018 A    
H1    C9    1.085895 S    
C12   Br2   1.936369 S    
O14   V3    2.034032 S    
C11   Br1   1.936365 S    
O4    V1    2.008545 S    
C20   Br6   1.905775 S    
C19   Br5   1.905793 S    
C13   C23   1.392861 A    
C18   C20   1.416335 A    
C14   C28   1.490787 S    
C14   C24   1.392964 A    
O6    V1    2.012660 S    
C28   H10   1.111695 S    
V3    O20   1.694329 S    
C9    C31   1.482557 S    
C26   N2    1.463127 S    
O7    V2    1.711493 S    
O5    V1    2.012636 S    
C13   C15   1.400989 A    
O3    V1    2.008570 S    
V1    O10   1.694287 S    
O6    C3    1.280875 A    
C20   C22   1.425338 A    
O8    C3    1.310014 A    
C2    C16   1.488224 S    
C8    C12   1.483530 S    
C21   C30   1.500710 S    
C5    C7    1.368221 D    
C18   H6    1.083495 S    
C9    C11   1.367009 D    
O17   V3    2.139152 S    
C7    C11   1.483532 S    
C19   C21   1.425381 A    
C8    Br4   1.938891 S    
C25   H7    1.103753 S    
C26   H8    1.103754 S    
C16   C18   1.407079 A    
