data_mof_unit_37249.cif
_audit_creation_date              2012-12-11T16:37:21-0500
_audit_creation_method            fapswitch 2.2
_symmetry_space_group_name_H-M    P1
_symmetry_Int_Tables_number       1
_space_group_crystal_system       triclinic
_cell_length_a                    19.455599
_cell_length_b                    6.973313
_cell_length_c                    17.719325
_cell_angle_alpha                 89.999968
_cell_angle_beta                  108.798651
_cell_angle_gamma                 90.00062
_cell_volume                      2275.74459531

loop_
_atom_site_label
_atom_site_type_symbol
_atom_type_description
_atom_site_fract_x
_atom_site_fract_y
_atom_site_fract_z
_atom_type_partial_charge
O1    O     O_R   0.561710 0.369960 0.440200 -0.538818
O2    O     O_R   0.061710 0.630040 0.940200 -0.538817
O3    O     O_R   0.412630 0.033330 0.406330 -0.544591
O4    O     O_R   0.912630 0.966670 0.906330 -0.544592
O5    O     O_R   0.438290 0.869790 0.559800 -0.541980
O6    O     O_R   0.938290 0.130210 0.059800 -0.541980
C1    C     C_R   0.384628 0.203163 0.383422 0.736665
C2    C     C_R   0.884628 0.796835 0.883421 0.736670
O7    O     O_R   0.559570 0.039810 0.430640 -0.543133
O8    O     O_R   0.059570 0.960190 0.930640 -0.543126
O9    O     O_R   0.586280 0.876320 0.584290 -0.533167
O10   O     O_R   0.086280 0.123680 0.084290 -0.533172
C3    C     C_R   0.580919 0.208931 0.415587 0.700568
C4    C     C_R   0.080924 0.791071 0.915594 0.700559
O11   O     O_R   0.413720 0.363440 0.415710 -0.519251
O12   O     O_R   0.913720 0.636560 0.915710 -0.519245
O13   O     O_3   0.508590 0.205630 0.550380 -0.354636
O14   O     O_3   0.008590 0.794370 0.050380 -0.354641
V1    V     V_3+5 0.498410 0.928130 0.490650 1.506083
V2    V     V_3+5 0.998410 0.071870 0.990650 1.506090
O15   O     O_R   0.587370 0.546990 0.593670 -0.532114
O16   O     O_R   0.087370 0.453010 0.093670 -0.532120
C5    C     C_R   0.615576 0.716656 0.616002 0.721372
C6    C     C_R   0.115575 0.283346 0.116003 0.721358
O17   O     O_R   0.440430 0.540520 0.569360 -0.542350
O18   O     O_R   0.940430 0.459480 0.069360 -0.542347
C7    C     C_R   0.419492 0.709425 0.585009 0.731709
C8    C     C_R   0.919491 0.290572 0.085006 0.731710
V3    V     V_3+5 0.501590 0.428960 0.509350 1.530662
V4    V     V_3+5 0.001590 0.571040 0.009350 1.530669
O19   O     O_3   0.491410 0.701330 0.449620 -0.355500
O20   O     O_3   0.991410 0.298670 0.949620 -0.355492
C9    C     C_R   0.276445 0.890017 0.671676 0.403866
C10   C     C_R   0.776411 0.110036 0.171630 0.403822
C11   C     C_R   0.324191 0.878915 0.627179 -0.194737
C12   C     C_R   0.824165 0.121118 0.127141 -0.194736
H1    H     H_    0.323186 0.991685 0.584761 0.163847
H2    H     H_    0.823145 0.008382 0.084703 0.163840
C13   C     C_R   0.370733 0.721120 0.634461 -0.187620
C14   C     C_R   0.870731 0.278865 0.134454 -0.187593
C15   C     C_R   0.370027 0.575774 0.688939 -0.151842
C16   C     C_R   0.870048 0.424155 0.188961 -0.151857
H3    H     H_    0.406318 0.454256 0.696409 0.184616
H4    H     H_    0.906359 0.545634 0.196454 0.184615
C17   C     C_R   0.324422 0.588213 0.736062 0.408090
C18   C     C_R   0.824434 0.411727 0.236074 0.408026
C19   C     C_R   0.276165 0.744921 0.727398 -0.099011
C20   C     C_R   0.776148 0.255090 0.227376 -0.098984
C21   C     C_R   0.176882 0.607440 0.773872 -0.041626
C22   C     C_R   0.676873 0.392584 0.273863 -0.041613
H5    H     H_    0.174766 0.482365 0.736950 0.185112
H6    H     H_    0.674763 0.517677 0.236951 0.185077
C23   C     C_R   0.130137 0.618012 0.819596 -0.146252
C24   C     C_R   0.630146 0.382008 0.319607 -0.146236
H7    H     H_    0.093347 0.499946 0.817365 0.152833
H8    H     H_    0.593375 0.500086 0.317399 0.152816
C25   C     C_R   0.130011 0.780610 0.866576 -0.063918
C26   C     C_R   0.629996 0.219399 0.366559 -0.063950
C27   C     C_R   0.178342 0.931190 0.867551 -0.158134
C28   C     C_R   0.678298 0.068804 0.367496 -0.158116
H9    H     H_    0.180057 0.057411 0.903758 0.129847
H10   H     H_    0.679993 0.942572 0.403681 0.129858
C29   C     C_R   0.226425 0.918099 0.823499 -0.025697
C30   C     C_R   0.726385 0.081895 0.323447 -0.025721
H11   H     H_    0.264275 0.033983 0.826861 0.196236
H12   H     H_    0.764228 0.965999 0.326799 0.196195
C31   C     C_R   0.225924 0.756805 0.775688 0.145405
C32   C     C_R   0.725901 0.243208 0.275657 0.145423
C33   C     C_R   0.768195 0.623591 0.810213 -0.010679
C34   C     C_R   0.268195 0.376409 0.310216 -0.010685
C35   C     C_R   0.814419 0.781867 0.816877 -0.071472
C36   C     C_R   0.314417 0.218130 0.316879 -0.071462
C37   C     C_R   0.793268 0.918286 0.755696 -0.097103
C38   C     C_R   0.293264 0.081711 0.255697 -0.097092
H13   H     H_    0.829467 0.032545 0.754603 0.189100
H14   H     H_    0.329461 0.967451 0.254601 0.189095
C39   C     C_R   0.728562 0.897899 0.691193 -0.079335
C40   C     C_R   0.228559 0.102102 0.191195 -0.079336
H15   H     H_    0.715578 0.005167 0.644534 0.128385
H16   H     H_    0.215573 0.994835 0.144535 0.128379
C41   C     C_R   0.683486 0.735792 0.684407 -0.106554
C42   C     C_R   0.183485 0.264210 0.184410 -0.106552
C43   C     C_R   0.703938 0.601101 0.745889 0.018084
C44   C     C_R   0.203938 0.398900 0.245894 0.018090
C45   C     C_3   0.715221 0.391339 0.738812 0.194336
C46   C     C_3   0.215223 0.608663 0.238819 0.194327
C47   C     C_3   0.785981 0.415116 0.808112 0.475845
C48   C     C_3   0.285984 0.584883 0.308115 0.475839
H17   H     H_    0.723024 0.353768 0.681128 0.091042
H18   H     H_    0.223024 0.646237 0.181134 0.091045
Cl1   Cl    Cl    0.215186 0.084163 0.652356 -0.620071
Cl2   Cl    Cl    0.715123 0.915954 0.152273 -0.620068
Cl3   Cl    Cl    0.644501 0.254633 0.757543 -0.600727
Cl4   Cl    Cl    0.144507 0.745368 0.257555 -0.600745
Cl5   Cl    Cl    0.864856 0.381844 0.777317 -0.699855
Cl6   Cl    Cl    0.364857 0.618151 0.277313 -0.699852
N1    N     N_2   0.789161 0.308682 0.880319 -0.487872
H19   H     H_    0.839911 0.255817 0.910470 0.284626
C49   C     C_3   0.753943 0.386654 0.934488 -0.432692
H20   H     H_    0.748611 0.272305 0.975685 0.204439
H21   H     H_    0.698689 0.440440 0.901933 0.252283
H22   H     H_    0.786917 0.505694 0.969855 0.162943
N2    N     N_2   0.289172 0.691318 0.380324 -0.487864
H23   H     H_    0.339927 0.744162 0.410475 0.284638
C50   C     C_3   0.253954 0.613349 0.434495 -0.432703
H24   H     H_    0.248635 0.727689 0.475702 0.204417
H25   H     H_    0.286923 0.494290 0.469854 0.162940
H26   H     H_    0.198695 0.559591 0.401940 0.252291
Cl7   Cl    Cl    0.332471 0.408861 0.808399 -0.617168
Cl8   Cl    Cl    0.832491 0.591052 0.308428 -0.617186

loop_
_geom_bond_atom_site_label_1
_geom_bond_atom_site_label_2
_ccdc_geom_bond_type
C48   Cl6   S    
O13   V3    S    
C23   H7    S    
O4    C2    A    
V1    O19   S    
C29   H11   S    
N1    H19   S    
C13   C15   A    
C50   H25   S    
O9    V1    S    
C22   C24   A    
C38   H14   S    
C30   C32   A    
C11   H1    S    
C44   C46   S    
O3    C1    A    
C9    Cl1   S    
C24   C26   A    
C17   Cl7   S    
C25   C27   A    
C8    C14   S    
C26   C28   A    
C28   H10   S    
C16   C18   A    
C17   C19   A    
C33   C35   A    
O7    C3    A    
C6    C42   S    
C46   Cl4   S    
N1    C49   S    
O5    C7    A    
C45   Cl3   S    
O7    V1    S    
O6    C8    A    
O8    V2    S    
C21   H5    S    
C47   Cl5   S    
C22   H6    S    
O3    V1    S    
O14   V4    S    
C34   C44   A    
C10   C12   A    
C33   C47   S    
C39   H15   S    
C34   C48   S    
C2    O12   A    
C15   H3    S    
C16   H4    S    
C19   C31   S    
C41   C43   A    
O11   V3    S    
C18   C20   A    
C45   C47   S    
O17   V3    S    
C50   H26   S    
C29   C31   A    
C27   H9    S    
C46   C48   S    
C12   C14   A    
C36   C38   A    
O8    C4    A    
C7    C13   S    
C1    C36   S    
C35   C37   A    
C23   C25   A    
O13   V1    S    
C3    C26   S    
O15   V3    S    
C30   H12   S    
C11   C13   A    
C33   C43   A    
C40   C42   A    
C49   H20   S    
C39   C41   A    
O10   V2    S    
O1    V3    S    
C40   H16   S    
N2    C50   S    
C20   C32   S    
C43   C45   S    
O18   V4    S    
C42   C44   A    
C18   Cl8   S    
C46   H18   S    
C9    C19   A    
O16   C6    A    
O1    C3    A    
C37   H13   S    
C12   H2    S    
C48   N2    S    
V2    O20   S    
C4    C25   S    
C2    C35   S    
C45   H17   S    
O16   V4    S    
C49   H21   S    
O18   C8    A    
C5    C41   S    
C14   C16   A    
C24   H8    S    
C21   C31   A    
O5    V1    S    
O17   C7    A    
O6    V2    S    
C50   H24   S    
O10   C6    A    
C27   C29   A    
O2    V4    S    
C28   C30   A    
O15   C5    A    
V3    O19   S    
V4    O20   S    
C22   C32   A    
C21   C23   A    
C1    O11   A    
O9    C5    A    
C9    C11   A    
O14   V2    S    
O2    C4    A    
C10   Cl2   S    
O4    V2    S    
C49   H22   S    
C10   C20   A    
C37   C39   A    
C38   C40   A    
N2    H23   S    
C15   C17   A    
C34   C36   A    
O12   V4    S    
C47   N1    S    
