data_mof_unit_5967.cif
_audit_creation_date              2013-03-05T15:46:15-0500
_audit_creation_method            fapswitch 2.2
_symmetry_space_group_name_H-M    P1
_symmetry_Int_Tables_number       1
_space_group_crystal_system       triclinic
_cell_length_a                    18.413789
_cell_length_b                    18.352749
_cell_length_c                    34.347247
_cell_angle_alpha                 90.540173
_cell_angle_beta                  90.019045
_cell_angle_gamma                 90.02028
_cell_volume                      11606.9167068

loop_
_atom_site_label
_atom_site_type_symbol
_atom_site_description
_atom_site_fract_x
_atom_site_fract_y
_atom_site_fract_z
_atom_type_partial_charge
Zn1   Zn    Zn3+2 0.000000 0.586740 0.032740 0.974542
Zn2   Zn    Zn3+2 0.413260 0.000000 0.032740 0.975363
Zn3   Zn    Zn3+2 0.000000 0.413260 0.032740 0.974236
Zn4   Zn    Zn3+2 0.586740 0.000000 0.032740 0.975171
Zn5   Zn    Zn3+2 0.500000 0.086740 0.532740 0.973775
Zn6   Zn    Zn3+2 0.913260 0.500000 0.532740 0.951819
Zn7   Zn    Zn3+2 0.500000 0.913260 0.532740 0.973937
Zn8   Zn    Zn3+2 0.086740 0.500000 0.532740 0.976193
Zn9   Zn    Zn3+2 0.913250 0.500000 0.967240 0.967838
Zn10  Zn    Zn3+2 0.500000 0.913250 0.967240 0.940925
Zn11  Zn    Zn3+2 0.086750 0.500000 0.967240 0.938325
Zn12  Zn    Zn3+2 0.500000 0.086750 0.967240 0.930535
Zn13  Zn    Zn3+2 0.413250 0.000000 0.467240 0.941118
Zn14  Zn    Zn3+2 1.000000 0.413250 0.467240 0.937580
Zn15  Zn    Zn3+2 0.586750 0.000000 0.467240 0.966754
Zn16  Zn    Zn3+2 0.000000 0.586750 0.467240 0.967933
O1    O     O_3   0.000000 0.500000 0.999990 -0.488496
O2    O     O_3   0.500000 0.000000 0.999990 -0.485056
O3    O     O_3   0.500000 0.000000 0.499990 -0.490594
O4    O     O_3   0.000000 0.500000 0.499990 -0.483654
O5    O     O_R   0.060750 0.500000 0.912560 -0.652980
O6    O     O_R   0.500000 0.060750 0.912560 -0.645910
O7    O     O_R   0.939250 0.500000 0.912560 -0.657703
O8    O     O_R   0.500000 0.939250 0.912560 -0.639221
O9    O     O_R   0.560750 0.000000 0.412560 -0.627473
O10   O     O_R   0.000000 0.560750 0.412560 -0.652711
O11   O     O_R   0.439250 0.000000 0.412560 -0.640039
O12   O     O_R   0.000000 0.439250 0.412560 -0.656847
O13   O     O_R   0.000000 0.560690 0.087420 -0.624225
O14   O     O_R   0.439310 1.000000 0.087420 -0.622118
O15   O     O_R   0.000000 0.439310 0.087420 -0.623830
O16   O     O_R   0.560690 1.000000 0.087420 -0.625725
O17   O     O_R   0.500000 0.060690 0.587420 -0.624366
O18   O     O_R   0.939310 0.500000 0.587420 -0.631723
O19   O     O_R   0.500000 0.939310 0.587420 -0.628538
O20   O     O_R   0.060690 0.500000 0.587420 -0.623134
O21   O     O_R   0.853830 0.585440 0.977070 -0.631638
O22   O     O_R   0.414560 0.853830 0.977070 -0.655147
O23   O     O_R   0.146170 0.414560 0.977070 -0.655624
O24   O     O_R   0.585440 0.146170 0.977070 -0.669202
O25   O     O_R   0.146170 0.585440 0.977070 -0.631606
O26   O     O_R   0.585440 0.853830 0.977070 -0.647127
O27   O     O_R   0.853830 0.414560 0.977070 -0.631766
O28   O     O_R   0.414560 0.146170 0.977070 -0.651066
O29   O     O_R   0.353830 0.085440 0.477070 -0.651162
O30   O     O_R   0.914560 0.353830 0.477070 -0.648516
O31   O     O_R   0.646170 0.914560 0.477070 -0.632071
O32   O     O_R   0.085440 0.646170 0.477070 -0.632127
O33   O     O_R   0.646170 0.085440 0.477070 -0.624696
O34   O     O_R   0.085440 0.353830 0.477070 -0.648481
O35   O     O_R   0.353830 0.914560 0.477070 -0.648331
O36   O     O_R   0.914560 0.646170 0.477070 -0.624032
O37   O     O_R   0.085460 0.353830 0.022910 -0.649749
O38   O     O_R   0.646170 0.085460 0.022910 -0.640501
O39   O     O_R   0.914540 0.646170 0.022910 -0.651370
O40   O     O_R   0.353830 0.914540 0.022910 -0.646151
O41   O     O_R   0.914540 0.353830 0.022910 -0.633750
O42   O     O_R   0.353830 0.085460 0.022910 -0.615744
O43   O     O_R   0.085460 0.646170 0.022910 -0.626288
O44   O     O_R   0.646170 0.914540 0.022910 -0.616016
O45   O     O_R   0.585460 0.853830 0.522910 -0.640415
O46   O     O_R   0.146170 0.585460 0.522910 -0.651881
O47   O     O_R   0.414540 0.146170 0.522910 -0.647982
O48   O     O_R   0.853830 0.414540 0.522910 -0.646391
O49   O     O_R   0.414540 0.853830 0.522910 -0.613996
O50   O     O_R   0.853830 0.585460 0.522910 -0.669520
O51   O     O_R   0.585460 0.146170 0.522910 -0.619227
O52   O     O_R   0.146170 0.414540 0.522910 -0.615715
C1    C     C_R   0.000146 0.500084 0.894197 0.889663
C2    C     C_R   0.499868 0.999645 0.894200 0.877253
C3    C     C_R   0.499940 0.999562 0.394222 0.871152
C4    C     C_R   0.001487 0.499751 0.394026 0.887494
C5    C     C_R   0.001522 0.500524 0.105648 0.907898
C6    C     C_R   0.499932 0.999961 0.105518 0.912049
C7    C     C_R   0.500321 0.000353 0.605567 0.914627
C8    C     C_R   0.999871 0.501684 0.605574 0.896241
C9    C     C_R   0.860959 0.641236 0.999928 0.855972
C10   C     C_R   0.359146 0.860747 0.000008 0.856374
C11   C     C_R   0.139412 0.358959 0.999993 0.841651
C12   C     C_R   0.639876 0.139877 0.000444 0.864053
C13   C     C_R   0.141952 0.638747 0.000475 0.845077
C14   C     C_R   0.638094 0.857506 0.000715 0.836492
C15   C     C_R   0.861154 0.358710 0.998752 0.900425
C16   C     C_R   0.363131 0.143234 0.001422 0.834428
C17   C     C_R   0.361190 0.141379 0.499921 0.852964
C18   C     C_R   0.858807 0.359850 0.499837 0.846119
C19   C     C_R   0.639868 0.860406 0.500311 0.856208
C20   C     C_R   0.141337 0.638805 0.499756 0.847952
C21   C     C_R   0.643813 0.135583 0.503061 0.828946
C22   C     C_R   0.138266 0.357575 0.500813 0.842096
C23   C     C_R   0.357521 0.862147 0.500947 0.830035
C24   C     C_R   0.859348 0.639656 0.499647 0.875532
C25   C     C_R   0.262932 0.652283 0.937397 0.172924
C26   C     C_R   0.364654 0.283627 0.946453 0.182470
C27   C     C_R   0.805948 0.290998 0.923002 0.138532
C28   C     C_R   0.648759 0.731341 0.939781 0.195944
C29   C     C_R   0.797067 0.699488 0.927396 0.180089
C30   C     C_R   0.709270 0.174594 0.926740 0.140136
C31   C     C_R   0.218258 0.311816 0.930675 0.162798
C32   C     C_R   0.298300 0.800359 0.927367 0.174339
C33   C     C_R   0.791375 0.114136 0.463998 0.198836
C34   C     C_R   0.790169 0.688437 0.424836 0.139442
C35   C     C_R   0.227777 0.855222 0.442793 0.199733
C36   C     C_R   0.148241 0.228897 0.441965 0.194476
C37   C     C_R   0.295717 0.197611 0.427450 0.175498
C38   C     C_R   0.196434 0.706983 0.427515 0.183581
C39   C     C_R   0.675929 0.787208 0.427214 0.142822
C40   C     C_R   0.822901 0.253438 0.434739 0.172609
C41   C     C_R   0.289621 0.677340 0.901022 0.148019
C42   C     C_R   0.344219 0.327289 0.914084 0.162487
C43   C     C_R   0.767873 0.268228 0.889199 0.149466
C44   C     C_R   0.673126 0.705499 0.902928 0.167405
C45   C     C_R   0.747849 0.695987 0.895877 0.098698
C46   C     C_R   0.720668 0.208994 0.890949 0.136935
C47   C     C_R   0.271200 0.332362 0.903553 0.105657
C48   C     C_R   0.301629 0.752169 0.895222 0.105507
C49   C     C_R   0.828299 0.120814 0.427715 0.164476
C50   C     C_R   0.770199 0.726084 0.390778 0.149871
C51   C     C_R   0.199815 0.832925 0.405983 0.169805
C52   C     C_R   0.170527 0.202522 0.404796 0.162688
C53   C     C_R   0.244992 0.193009 0.396689 0.093031
C54   C     C_R   0.190879 0.758326 0.397294 0.097002
C55   C     C_R   0.711142 0.773469 0.391648 0.138183
C56   C     C_R   0.837646 0.190823 0.411541 0.091523
C57   C     C_R   0.281135 0.772233 0.964629 -0.055933
C58   C     C_R   0.240242 0.291373 0.968268 -0.047924
C59   C     C_R   0.729735 0.211204 0.961997 -0.051030
C60   C     C_R   0.770180 0.716954 0.965141 -0.035882
C61   C     C_R   0.701653 0.749670 0.968663 -0.132978
C62   C     C_R   0.781615 0.268403 0.960552 -0.062494
C63   C     C_R   0.308889 0.259710 0.973049 -0.104044
C64   C     C_R   0.247092 0.704202 0.967354 -0.112984
C65   C     C_R   0.800935 0.244768 0.473688 -0.041589
C66   C     C_R   0.711827 0.768836 0.462738 -0.052985
C67   C     C_R   0.215365 0.731776 0.465496 -0.037191
C68   C     C_R   0.270641 0.216934 0.465267 -0.043673
C69   C     C_R   0.202509 0.249813 0.469254 -0.131526
C70   C     C_R   0.248012 0.800374 0.469934 -0.132369
C71   C     C_R   0.768254 0.716168 0.461936 -0.051087
C72   C     C_R   0.767265 0.179155 0.482839 -0.123398
C73   C     C_R   0.202881 0.691099 0.001073 -0.132779
C74   C     C_R   0.314955 0.207532 0.003995 -0.155891
C75   C     C_R   0.807065 0.299768 0.996611 -0.137647
C76   C     C_R   0.689198 0.795552 0.001932 -0.156159
C77   C     C_R   0.808589 0.701408 0.999666 -0.143539
C78   C     C_R   0.700906 0.190418 0.998536 -0.137308
C79   C     C_R   0.194147 0.300231 0.000572 -0.133858
C80   C     C_R   0.298403 0.809356 0.999435 -0.143025
C81   C     C_R   0.708056 0.182693 0.509003 -0.159627
C82   C     C_R   0.800022 0.693285 0.498030 -0.153443
C83   C     C_R   0.295670 0.810921 0.502447 -0.156609
C84   C     C_R   0.190655 0.296591 0.502119 -0.159181
C85   C     C_R   0.309984 0.202437 0.499490 -0.144025
C86   C     C_R   0.201817 0.691008 0.499360 -0.141005
C87   C     C_R   0.691787 0.800854 0.498836 -0.167195
C88   C     C_R   0.802712 0.301633 0.502054 -0.148810
C89   C     C_R   0.211398 0.735042 0.034577 0.173891
C90   C     C_R   0.265892 0.210864 0.035568 0.177640
C91   C     C_R   0.780311 0.274995 0.032517 0.168110
C92   C     C_R   0.732727 0.787718 0.035340 0.187596
C93   C     C_R   0.791297 0.739178 0.034760 0.102771
C94   C     C_R   0.729842 0.218467 0.033664 0.103286
C95   C     C_R   0.206259 0.258048 0.034366 0.106592
C96   C     C_R   0.260037 0.793422 0.034216 0.104874
C97   C     C_R   0.705896 0.238777 0.537231 0.186888
C98   C     C_R   0.776422 0.724346 0.533666 0.167932
C99   C     C_R   0.290137 0.764861 0.534862 0.187956
C100  C     C_R   0.236166 0.290950 0.534927 0.186438
C101  C     C_R   0.294937 0.242704 0.534147 0.103772
C102  C     C_R   0.242266 0.705737 0.533847 0.103707
C103  C     C_R   0.721953 0.776745 0.534098 0.134465
C104  C     C_R   0.754652 0.297352 0.534655 0.108888
C105  C     C_R   0.455759 0.050300 0.831754 0.117431
C106  C     C_R   0.980929 0.441583 0.829744 0.095756
C107  C     C_R   0.539113 0.945986 0.831013 0.116252
C108  C     C_R   0.017817 0.568842 0.832695 0.100745
C109  C     C_R   0.948681 0.529646 0.329405 0.115713
C110  C     C_R   0.447400 0.957137 0.331238 0.118728
C111  C     C_R   0.069557 0.475304 0.332015 0.100698
C112  C     C_R   0.551432 0.040530 0.331474 0.106666
C113  C     C_R   0.498370 0.998722 0.851593 -0.144329
C114  C     C_R   0.000349 0.503416 0.851604 -0.114507
C115  C     C_R   0.006252 0.500069 0.351147 -0.105510
C116  C     C_R   0.499865 0.998562 0.351573 -0.148783
C117  C     C_R   0.540262 0.947281 0.790040 0.026206
C118  C     C_R   0.019183 0.570081 0.791528 0.024729
C119  C     C_R   0.452742 0.048176 0.790780 0.027349
C120  C     C_R   0.965488 0.448778 0.789974 0.065239
C121  C     C_R   0.073264 0.478111 0.290765 0.032071
C122  C     C_R   0.549523 0.042850 0.290568 0.032337
C123  C     C_R   0.959964 0.546748 0.290130 0.016628
C124  C     C_R   0.448583 0.955443 0.290213 0.028709
C125  C     C_R   0.496395 0.997874 0.769960 0.044632
C126  C     C_R   0.990277 0.510723 0.770177 0.043812
C127  C     C_R   0.018302 0.514633 0.269958 0.048524
C128  C     C_R   0.499145 0.998978 0.269930 0.044681
C129  C     C_R   0.585027 0.899469 0.768788 -0.283486
C130  C     C_R   0.051012 0.627835 0.771469 -0.275626
C131  C     C_R   0.406677 0.095135 0.770252 -0.293700
C132  C     C_R   0.928333 0.393979 0.769616 -0.310598
C133  C     C_R   0.129665 0.444547 0.269857 -0.287314
C134  C     C_R   0.597906 0.087223 0.269927 -0.284705
C135  C     C_R   0.912944 0.593737 0.270466 -0.273498
C136  C     C_R   0.400611 0.910648 0.269107 -0.293073
C137  C     C_R   0.130099 0.442714 0.229031 0.243614
C138  C     C_R   0.594881 0.091954 0.229508 0.239953
C139  C     C_R   0.915115 0.599897 0.230023 0.247800
C140  C     C_R   0.404065 0.905344 0.228608 0.243676
C141  C     C_R   0.590737 0.903956 0.728413 0.240105
C142  C     C_R   0.055656 0.627390 0.730741 0.239747
C143  C     C_R   0.401691 0.092165 0.729746 0.244135
C144  C     C_R   0.920185 0.396906 0.729433 0.234049
C145  C     C_R   0.073299 0.476890 0.207936 -0.037392
C146  C     C_R   0.544981 0.048044 0.208661 -0.057250
C147  C     C_R   0.963661 0.554662 0.208861 -0.076579
C148  C     C_R   0.453746 0.949433 0.208034 -0.045998
C149  C     C_R   0.546933 0.954202 0.708202 -0.058983
C150  C     C_R   0.024867 0.568654 0.708932 -0.042404
C151  C     C_R   0.447102 0.043926 0.708568 -0.045316
C152  C     C_R   0.956128 0.452424 0.708403 -0.029165
C153  C     C_R   0.019087 0.516085 0.228854 -0.108312
C154  C     C_R   0.499353 0.998713 0.228866 -0.122234
C155  C     C_R   0.496522 0.998419 0.728899 -0.121077
C156  C     C_R   0.989746 0.511112 0.729069 -0.121207
C157  C     C_R   0.068325 0.473036 0.166741 0.351180
C158  C     C_R   0.538487 0.052722 0.168005 0.363665
C159  C     C_R   0.956381 0.544723 0.168421 0.343213
C160  C     C_R   0.459904 0.945615 0.167178 0.359594
C161  C     C_R   0.552879 0.962601 0.667716 0.363416
C162  C     C_R   0.028456 0.564984 0.667744 0.352343
C163  C     C_R   0.444571 0.039121 0.667598 0.355402
C164  C     C_R   0.961757 0.449433 0.667582 0.352845
C165  C     C_R   0.007870 0.503758 0.147887 -0.270530
C166  C     C_R   0.499727 0.999132 0.147665 -0.295011
C167  C     C_R   0.499190 0.000844 0.647725 -0.291097
C168  C     C_R   0.998276 0.504857 0.647873 -0.278719
H1    H     H_    0.617238 0.858724 0.783253 0.159584
H2    H     H_    0.076448 0.671946 0.787476 0.169797
H3    H     H_    0.372926 0.134332 0.785342 0.157748
H4    H     H_    0.903776 0.348951 0.784862 0.146009
H5    H     H_    0.172797 0.416669 0.284910 0.160322
H6    H     H_    0.638852 0.118982 0.284849 0.160074
H7    H     H_    0.876157 0.627765 0.286831 0.155897
H8    H     H_    0.360337 0.878067 0.283753 0.157030
N1    N     N_2   0.176416 0.715557 0.070064 -0.266321
H9    H     H_    0.155694 0.758529 0.086009 0.246522
C169  C     C_3   0.217827 0.665800 0.093718 -0.800279
H10   H     H_    0.185983 0.651636 0.120014 0.222338
H11   H     H_    0.269626 0.691510 0.103204 0.242545
H12   H     H_    0.229757 0.615054 0.077041 0.230687
N2    N     N_2   0.279859 0.170334 0.070033 -0.264960
H13   H     H_    0.234708 0.149405 0.083624 0.247250
C170  C     C_3   0.328859 0.206072 0.096979 -0.782056
H14   H     H_    0.337045 0.170910 0.122713 0.227168
H15   H     H_    0.305632 0.258900 0.107022 0.238370
H16   H     H_    0.382301 0.215650 0.082910 0.229443
N3    N     N_2   0.799100 0.312610 0.067693 -0.280425
H17   H     H_    0.810307 0.279701 0.091039 0.247432
C171  C     C_3   0.749984 0.371287 0.077767 -0.805184
H18   H     H_    0.767753 0.397079 0.105436 0.230416
H19   H     H_    0.693964 0.350097 0.081839 0.245282
H20   H     H_    0.749995 0.413221 0.054648 0.237416
N4    N     N_2   0.712484 0.822990 0.070919 -0.266786
H21   H     H_    0.754994 0.842301 0.087519 0.245684
C172  C     C_3   0.660287 0.782759 0.093663 -0.796151
H22   H     H_    0.647881 0.813578 0.120799 0.224760
H23   H     H_    0.682762 0.728781 0.101780 0.241222
H24   H     H_    0.609197 0.774973 0.076906 0.229488
N5    N     N_2   0.829564 0.727176 0.070274 -0.298708
H25   H     H_    0.838330 0.673535 0.077387 0.262635
C173  C     C_3   0.891325 0.774590 0.077181 -0.712653
H26   H     H_    0.913130 0.764897 0.106827 0.236882
H27   H     H_    0.875388 0.832720 0.075144 0.210113
H28   H     H_    0.935017 0.764032 0.055643 0.258853
N6    N     N_2   0.704255 0.194968 0.070741 -0.303873
H29   H     H_    0.649480 0.184659 0.072350 0.243836
C174  C     C_3   0.748014 0.139480 0.089191 -0.701087
H30   H     H_    0.727908 0.130524 0.119250 0.256242
H31   H     H_    0.805845 0.156233 0.090837 0.208401
H32   H     H_    0.744726 0.087254 0.072766 0.259388
N7    N     N_2   0.159751 0.261450 0.067544 -0.297446
H33   H     H_    0.148517 0.312641 0.078429 0.272796
C175  C     C_3   0.098198 0.212222 0.066454 -0.723133
H34   H     H_    0.068784 0.215219 0.094633 0.235543
H35   H     H_    0.116392 0.155183 0.061662 0.213566
H36   H     H_    0.060143 0.226800 0.042722 0.258779
N8    N     N_2   0.270312 0.833795 0.069517 -0.295434
H37   H     H_    0.323248 0.843204 0.077682 0.270225
C176  C     C_3   0.222605 0.895924 0.074776 -0.710445
H38   H     H_    0.230824 0.919650 0.104306 0.239564
H39   H     H_    0.164845 0.879468 0.071891 0.209150
H40   H     H_    0.234058 0.938459 0.052879 0.257786
N9    N     N_2   0.657806 0.233458 0.569694 -0.265110
H41   H     H_    0.639268 0.282001 0.581173 0.244375
C177  C     C_3   0.681790 0.183587 0.599391 -0.771828
H42   H     H_    0.639403 0.179356 0.622244 0.232177
H43   H     H_    0.732874 0.203719 0.612990 0.229965
H44   H     H_    0.691007 0.128451 0.586704 0.227817
N10   N     N_2   0.811653 0.709381 0.569707 -0.292041
H45   H     H_    0.819484 0.655682 0.576863 0.244623
C178  C     C_3   0.871866 0.756930 0.578978 -0.811270
H46   H     H_    0.919344 0.742997 0.560411 0.226921
H47   H     H_    0.886452 0.750423 0.610071 0.229488
H48   H     H_    0.856816 0.814906 0.574521 0.256788
N11   N     N_2   0.327749 0.782471 0.570065 -0.264246
H49   H     H_    0.347386 0.738619 0.585294 0.247237
C179  C     C_3   0.290056 0.834191 0.594801 -0.792204
H50   H     H_    0.323499 0.846049 0.620996 0.226250
H51   H     H_    0.237148 0.811321 0.604369 0.239360
H52   H     H_    0.280626 0.885914 0.579021 0.227379
N12   N     N_2   0.218176 0.328446 0.570224 -0.264375
H53   H     H_    0.261728 0.348082 0.585935 0.246594
C180  C     C_3   0.166410 0.290408 0.594295 -0.791274
H54   H     H_    0.154453 0.323704 0.620661 0.226502
H55   H     H_    0.189062 0.237218 0.603629 0.238007
H56   H     H_    0.114959 0.281154 0.578073 0.226731
N13   N     N_2   0.336489 0.234708 0.568922 -0.297658
H57   H     H_    0.345467 0.182185 0.577935 0.269974
C181  C     C_3   0.398929 0.282446 0.572369 -0.715445
H58   H     H_    0.424065 0.275854 0.601510 0.238742
H59   H     H_    0.382613 0.340286 0.569124 0.210923
H60   H     H_    0.440069 0.269361 0.549773 0.258574
N14   N     N_2   0.235385 0.663095 0.568178 -0.298508
H61   H     H_    0.183407 0.653790 0.577914 0.269150
C182  C     C_3   0.283416 0.600702 0.570280 -0.719946
H62   H     H_    0.277639 0.574621 0.599148 0.237274
H63   H     H_    0.340875 0.617611 0.566626 0.212902
H64   H     H_    0.270178 0.559974 0.547277 0.258531
N15   N     N_2   0.701680 0.808393 0.570701 -0.284485
H65   H     H_    0.687431 0.862533 0.570229 0.231550
C183  C     C_3   0.653463 0.764486 0.594086 -0.655251
H66   H     H_    0.644549 0.791737 0.622684 0.260557
H67   H     H_    0.677451 0.710000 0.599433 0.224284
H68   H     H_    0.600231 0.757656 0.579286 0.240568
N16   N     N_2   0.753800 0.350379 0.565269 -0.299011
H69   H     H_    0.802860 0.361465 0.578489 0.274480
C184  C     C_3   0.706874 0.412649 0.559107 -0.735322
H70   H     H_    0.706552 0.447585 0.585670 0.232216
H71   H     H_    0.650371 0.394743 0.553059 0.214926
H72   H     H_    0.725829 0.445538 0.534156 0.258852
N17   N     N_2   0.273500 0.578105 0.948292 -0.276356
H73   H     H_    0.320196 0.568540 0.964003 0.201449
C185  C     C_3   0.251424 0.519598 0.922362 -0.632069
H74   H     H_    0.243350 0.469884 0.939640 0.241828
H75   H     H_    0.294383 0.506711 0.900891 0.246893
H76   H     H_    0.200018 0.533058 0.907360 0.255887
N18   N     N_2   0.440165 0.276066 0.954701 -0.285179
H77   H     H_    0.457058 0.270052 0.983113 0.226288
C186  C     C_3   0.487158 0.249314 0.923656 -0.658456
H78   H     H_    0.531826 0.288563 0.918427 0.203250
H79   H     H_    0.457093 0.238433 0.896272 0.203672
H80   H     H_    0.510873 0.196863 0.931302 0.301965
N19   N     N_2   0.870953 0.331631 0.918749 -0.279694
H81   H     H_    0.871518 0.369237 0.896765 0.243886
C187  C     C_3   0.936513 0.288893 0.921941 -0.811613
H82   H     H_    0.940514 0.250232 0.896954 0.226656
H83   H     H_    0.937021 0.257639 0.949480 0.239363
H84   H     H_    0.984248 0.325835 0.922158 0.255401
N20   N     N_2   0.575035 0.718728 0.951424 -0.292042
H85   H     H_    0.564425 0.719014 0.980921 0.221283
C188  C     C_3   0.515764 0.742375 0.926769 -0.635672
H86   H     H_    0.465701 0.748004 0.944331 0.230119
H87   H     H_    0.503095 0.700489 0.904492 0.229367
H88   H     H_    0.528581 0.795033 0.912732 0.272243
N21   N     N_2   0.873342 0.689904 0.921184 -0.284147
H89   H     H_    0.888651 0.659768 0.897161 0.236186
C189  C     C_3   0.917190 0.754664 0.926740 -0.814904
H90   H     H_    0.901795 0.796829 0.905288 0.235184
H91   H     H_    0.975403 0.740751 0.922627 0.238715
H92   H     H_    0.910437 0.777142 0.956631 0.248217
N22   N     N_2   0.684512 0.100773 0.927114 -0.283855
H93   H     H_    0.651696 0.084451 0.904429 0.222798
C190  C     C_3   0.739561 0.047579 0.936743 -0.799053
H94   H     H_    0.713940 0.993206 0.940029 0.227474
H95   H     H_    0.766558 0.061869 0.964709 0.252462
H96   H     H_    0.780992 0.044527 0.913293 0.232392
N23   N     N_2   0.144245 0.302130 0.919826 -0.291724
H97   H     H_    0.125276 0.335110 0.898144 0.245891
C191  C     C_3   0.124023 0.226231 0.915157 -0.830983
H98   H     H_    0.156202 0.200428 0.891395 0.237610
H99   H     H_    0.065820 0.221543 0.907772 0.239246
H100  H     H_    0.133129 0.196133 0.942645 0.255850
N24   N     N_2   0.307412 0.877140 0.922310 -0.287017
H101  H     H_    0.336598 0.893496 0.898401 0.226574
C192  C     C_3   0.242560 0.920285 0.928638 -0.814918
H102  H     H_    0.200725 0.906204 0.906517 0.236802
H103  H     H_    0.255955 0.979038 0.926284 0.229255
H104  H     H_    0.220033 0.911133 0.958162 0.251446
N25   N     N_2   0.781486 0.046267 0.484122 -0.272369
H105  H     H_    0.777347 0.050668 0.514020 0.197537
C193  C     C_3   0.809831 0.977024 0.470604 -0.667461
H106  H     H_    0.785774 0.961900 0.442020 0.260878
H107  H     H_    0.794159 0.933763 0.491380 0.204496
H108  H     H_    0.869969 0.978480 0.469604 0.234941
N26   N     N_2   0.826162 0.620300 0.421417 -0.277246
H109  H     H_    0.862650 0.615243 0.398985 0.265206
C194  C     C_3   0.779760 0.557582 0.426721 -0.788637
H110  H     H_    0.744808 0.549432 0.400682 0.231498
H111  H     H_    0.744831 0.564443 0.452878 0.236260
H112  H     H_    0.813897 0.508686 0.431322 0.242411
N27   N     N_2   0.216060 0.928345 0.456569 -0.292719
H113  H     H_    0.219703 0.936881 0.486241 0.220477
C195  C     C_3   0.237784 0.989619 0.432899 -0.633219
H114  H     H_    0.239629 0.039566 0.451204 0.226747
H115  H     H_    0.196772 0.001063 0.410411 0.233161
H116  H     H_    0.291542 0.979940 0.419199 0.273288
N28   N     N_2   0.077101 0.212765 0.456361 -0.292133
H117  H     H_    0.070303 0.215059 0.486174 0.219653
C196  C     C_3   0.013759 0.232750 0.434108 -0.658540
H118  H     H_    0.965859 0.232817 0.453558 0.225139
H119  H     H_    0.002984 0.191675 0.411220 0.242220
H120  H     H_    0.019929 0.287474 0.421233 0.262861
N29   N     N_2   0.371601 0.187178 0.420340 -0.282139
H121  H     H_    0.385515 0.156562 0.396229 0.230652
C197  C     C_3   0.416371 0.251498 0.425228 -0.811145
H122  H     H_    0.400008 0.294014 0.404178 0.235651
H123  H     H_    0.474158 0.237082 0.420040 0.229909
H124  H     H_    0.411741 0.273818 0.455265 0.248643
N30   N     N_2   0.187642 0.630740 0.419684 -0.282828
H125  H     H_    0.156938 0.616412 0.395787 0.233127
C198  C     C_3   0.252956 0.587413 0.423206 -0.817945
H126  H     H_    0.293991 0.604971 0.401543 0.235404
H127  H     H_    0.239763 0.529114 0.417852 0.236171
H128  H     H_    0.276297 0.592494 0.452906 0.248610
N31   N     N_2   0.602599 0.812731 0.427197 -0.284251
H129  H     H_    0.586994 0.844107 0.404001 0.221143
C199  C     C_3   0.548955 0.758525 0.437480 -0.799588
H130  H     H_    0.494959 0.784869 0.440545 0.227092
H131  H     H_    0.562598 0.732883 0.465714 0.253217
H132  H     H_    0.545833 0.715690 0.414482 0.231816
N32   N     N_2   0.815749 0.323164 0.417439 -0.286321
H133  H     H_    0.842443 0.328125 0.391442 0.235051
C200  C     C_3   0.741283 0.348943 0.415371 -0.827813
H134  H     H_    0.739858 0.405518 0.404770 0.234660
H135  H     H_    0.715156 0.349506 0.444477 0.252496
H136  H     H_    0.709022 0.313776 0.395334 0.239905
N33   N     N_2   0.307053 0.627150 0.870630 -0.291558
H137  H     H_    0.284091 0.639861 0.844168 0.247308
C201  C     C_3   0.383588 0.610286 0.867354 -0.807674
H138  H     H_    0.413995 0.657850 0.856037 0.247438
H139  H     H_    0.390961 0.563826 0.846812 0.244104
H140  H     H_    0.406092 0.594719 0.896126 0.244135
N34   N     N_2   0.395334 0.369472 0.892703 -0.273629
H141  H     H_    0.423867 0.343342 0.870915 0.223522
C202  C     C_3   0.433345 0.426683 0.913690 -0.780269
H142  H     H_    0.453920 0.467246 0.892653 0.233240
H143  H     H_    0.480415 0.404504 0.929767 0.249734
H144  H     H_    0.396563 0.454662 0.934617 0.237900
N35   N     N_2   0.780771 0.300101 0.852292 -0.286844
H145  H     H_    0.833904 0.299353 0.843396 0.201141
C203  C     C_3   0.743654 0.368325 0.845854 -0.784093
H146  H     H_    0.753870 0.386630 0.815621 0.236345
H147  H     H_    0.763544 0.410951 0.866406 0.229672
H148  H     H_    0.684174 0.361140 0.849724 0.252320
N36   N     N_2   0.622492 0.685180 0.873459 -0.298887
H149  H     H_    0.634464 0.705682 0.846360 0.241803
C204  C     C_3   0.605942 0.608068 0.872097 -0.793131
H150  H     H_    0.654690 0.576247 0.863322 0.248179
H151  H     H_    0.562093 0.597873 0.850525 0.232221
H152  H     H_    0.586794 0.589231 0.900990 0.253955
N37   N     N_2   0.770888 0.675164 0.857779 -0.302516
H153  H     H_    0.804124 0.630086 0.856202 0.223995
C205  C     C_3   0.793695 0.734755 0.833431 -0.827570
H154  H     H_    0.803356 0.714213 0.803372 0.242651
H155  H     H_    0.844852 0.759004 0.844690 0.244109
H156  H     H_    0.750843 0.777307 0.832298 0.241881
N38   N     N_2   0.686589 0.183405 0.856127 -0.282540
H157  H     H_    0.633275 0.167328 0.859323 0.214214
C206  C     C_3   0.729502 0.133587 0.832726 -0.768889
H158  H     H_    0.701109 0.122662 0.804735 0.236235
H159  H     H_    0.736826 0.081108 0.848059 0.228303
H160  H     H_    0.783553 0.157485 0.826191 0.247803
N39   N     N_2   0.252557 0.363702 0.867148 -0.288284
H161  H     H_    0.207656 0.397118 0.867290 0.218809
C207  C     C_3   0.255437 0.313602 0.834453 -0.804434
H162  H     H_    0.245198 0.343660 0.807095 0.240463
H163  H     H_    0.213366 0.270679 0.837553 0.238230
H164  H     H_    0.309886 0.287738 0.832420 0.240501
N40   N     N_2   0.326017 0.776044 0.858101 -0.302708
H165  H     H_    0.372456 0.807420 0.858533 0.222028
C208  C     C_3   0.269821 0.803377 0.832756 -0.815063
H166  H     H_    0.293556 0.815944 0.803877 0.242502
H167  H     H_    0.245693 0.853942 0.845099 0.243908
H168  H     H_    0.226761 0.761757 0.828493 0.236123
N41   N     N_2   0.851424 0.058224 0.406336 -0.294418
H169  H     H_    0.828416 0.053458 0.379094 0.241427
C209  C     C_3   0.929062 0.046805 0.405289 -0.815526
H170  H     H_    0.940460 0.989614 0.396447 0.240990
H171  H     H_    0.953822 0.056965 0.434366 0.248584
H172  H     H_    0.953945 0.083321 0.383593 0.257717
N42   N     N_2   0.806043 0.714043 0.354735 -0.288521
H173  H     H_    0.804574 0.661077 0.345160 0.206699
C210  C     C_3   0.876480 0.748435 0.351723 -0.786240
H174  H     H_    0.897515 0.741799 0.321635 0.234107
H175  H     H_    0.915616 0.723329 0.372237 0.236795
H176  H     H_    0.871979 0.807714 0.358204 0.251995
N43   N     N_2   0.176607 0.885220 0.378320 -0.299400
H177  H     H_    0.195273 0.875423 0.350460 0.242580
C211  C     C_3   0.099435 0.900252 0.379326 -0.800596
H178  H     H_    0.067949 0.850864 0.370953 0.249285
H179  H     H_    0.086575 0.944295 0.358501 0.236388
H180  H     H_    0.082785 0.918604 0.408929 0.255773
N44   N     N_2   0.118477 0.184560 0.375636 -0.292305
H181  H     H_    0.128033 0.209959 0.349495 0.246876
C212  C     C_3   0.105942 0.107279 0.370423 -0.819629
H182  H     H_    0.062016 0.098733 0.348742 0.234661
H183  H     H_    0.089439 0.082370 0.398419 0.258704
H184  H     H_    0.155463 0.079762 0.359213 0.251158
N45   N     N_2   0.266324 0.170686 0.358546 -0.302488
H185  H     H_    0.296976 0.123746 0.357239 0.220119
C213  C     C_3   0.292911 0.228336 0.333970 -0.817494
H186  H     H_    0.299629 0.207186 0.303800 0.240991
H187  H     H_    0.346309 0.248299 0.344549 0.243889
H188  H     H_    0.253745 0.274238 0.333378 0.241398
N46   N     N_2   0.168767 0.737415 0.359044 -0.302314
H189  H     H_    0.124437 0.703259 0.357417 0.224289
C214  C     C_3   0.227464 0.717514 0.333119 -0.825991
H190  H     H_    0.205801 0.709171 0.303239 0.243261
H191  H     H_    0.253333 0.666144 0.342757 0.244895
H192  H     H_    0.268818 0.761592 0.332219 0.241266
N47   N     N_2   0.686744 0.805269 0.356269 -0.280784
H193  H     H_    0.669704 0.858574 0.358674 0.209566
C215  C     C_3   0.638884 0.759987 0.333002 -0.769010
H194  H     H_    0.586432 0.751782 0.348273 0.228676
H195  H     H_    0.664360 0.706250 0.326838 0.246307
H196  H     H_    0.627965 0.787057 0.304825 0.238306
N48   N     N_2   0.866895 0.197346 0.373268 -0.302820
H197  H     H_    0.907826 0.235304 0.370717 0.220188
C216  C     C_3   0.814045 0.201971 0.342252 -0.825506
H198  H     H_    0.842454 0.201290 0.313748 0.241584
H199  H     H_    0.782220 0.253110 0.344680 0.242340
H200  H     H_    0.776690 0.154934 0.342959 0.244972
N49   N     N_2   0.416237 0.103833 0.853509 -0.282691
H201  H     H_    0.418967 0.156169 0.842999 0.207579
C217  C     C_3   0.344271 0.081918 0.865504 -0.776695
H202  H     H_    0.308645 0.073828 0.839721 0.228660
H203  H     H_    0.320375 0.124902 0.884538 0.238351
H204  H     H_    0.346986 0.030560 0.882228 0.234310
N50   N     N_2   0.989210 0.371333 0.846234 -0.316075
H205  H     H_    0.942474 0.341306 0.845628 0.219338
C218  C     C_3   0.049316 0.330008 0.830120 -0.834327
H206  H     H_    0.039405 0.315639 0.799107 0.245927
H207  H     H_    0.055634 0.278409 0.846192 0.243828
H208  H     H_    0.100286 0.362008 0.832214 0.256201
N51   N     N_2   0.579113 0.892508 0.852025 -0.286990
H209  H     H_    0.573304 0.839662 0.842075 0.215372
C219  C     C_3   0.653065 0.912418 0.861487 -0.801799
H210  H     H_    0.686505 0.915850 0.834673 0.230966
H211  H     H_    0.676906 0.870776 0.880942 0.239420
H212  H     H_    0.654246 0.965718 0.876852 0.239392
N52   N     N_2   0.032399 0.632830 0.855246 -0.322367
H213  H     H_    0.007771 0.679625 0.845356 0.221581
C220  C     C_3   0.106890 0.642954 0.867735 -0.776039
H214  H     H_    0.128197 0.695335 0.856609 0.212174
H215  H     H_    0.142750 0.598394 0.856982 0.244520
H216  H     H_    0.108841 0.644833 0.900011 0.258031
N53   N     N_2   0.876403 0.527244 0.344353 -0.321895
H217  H     H_    0.837683 0.553650 0.328381 0.221916
C221  C     C_3   0.851151 0.454688 0.352629 -0.837965
H218  H     H_    0.790935 0.453234 0.351892 0.232785
H219  H     H_    0.870020 0.440018 0.381968 0.263091
H220  H     H_    0.871314 0.414494 0.330706 0.249407
N54   N     N_2   0.393881 0.917692 0.352535 -0.284381
H221  H     H_    0.341260 0.923194 0.342739 0.214434
C222  C     C_3   0.413651 0.843814 0.362218 -0.796233
H222  H     H_    0.417282 0.809481 0.335497 0.230888
H223  H     H_    0.371941 0.820460 0.381843 0.239043
H224  H     H_    0.466665 0.843134 0.377474 0.238634
N55   N     N_2   0.128770 0.448896 0.354588 -0.315357
H225  H     H_    0.178880 0.468223 0.346139 0.219210
C223  C     C_3   0.128303 0.371186 0.361184 -0.772345
H226  H     H_    0.170267 0.357549 0.383144 0.236315
H227  H     H_    0.140042 0.340932 0.333834 0.212952
H228  H     H_    0.074721 0.353120 0.372025 0.264955
N56   N     N_2   0.602708 0.082711 0.353130 -0.290408
H229  H     H_    0.605313 0.137160 0.346157 0.209813
C224  C     C_3   0.672799 0.048489 0.358199 -0.730954
H230  H     H_    0.704578 0.050188 0.330785 0.205591
H231  H     H_    0.666860 0.990718 0.366907 0.251286
H232  H     H_    0.702452 0.077604 0.381705 0.240108
N57   N     N_2   0.185545 0.402351 0.209633 -0.246372
H233  H     H_    0.180747 0.346940 0.213635 0.229364
C225  C     C_3   0.258968 0.428119 0.216072 -0.808462
H234  H     H_    0.277249 0.415412 0.246064 0.222088
H235  H     H_    0.262448 0.487838 0.211433 0.240404
H236  H     H_    0.296139 0.400519 0.195220 0.238641
N58   N     N_2   0.647564 0.134676 0.209643 -0.248501
H237  H     H_    0.698296 0.110916 0.209197 0.218327
C226  C     C_3   0.649840 0.211372 0.219845 -0.778923
H238  H     H_    0.675470 0.219590 0.248827 0.215441
H239  H     H_    0.594316 0.234960 0.220108 0.240601
H240  H     H_    0.682648 0.240775 0.197894 0.241157
N59   N     N_2   0.870763 0.652089 0.210347 -0.261008
H241  H     H_    0.898811 0.687517 0.192707 0.252516
C227  C     C_3   0.807210 0.682680 0.229160 -0.811037
H242  H     H_    0.823604 0.722661 0.252000 0.242831
H243  H     H_    0.773500 0.638766 0.241958 0.242081
H244  H     H_    0.773778 0.711412 0.207213 0.244285
N60   N     N_2   0.352614 0.860690 0.208621 -0.242007
H245  H     H_    0.300408 0.880726 0.210529 0.220428
C228  C     C_3   0.356352 0.783584 0.216956 -0.772396
H246  H     H_    0.336040 0.772542 0.246772 0.215198
H247  H     H_    0.412996 0.763476 0.214188 0.240585
H248  H     H_    0.321898 0.753149 0.195838 0.237356
N61   N     N_2   0.634766 0.852673 0.707820 -0.253744
H249  H     H_    0.611173 0.801855 0.705524 0.217563
C229  C     C_3   0.710610 0.849778 0.718855 -0.780849
H250  H     H_    0.717259 0.821087 0.746957 0.216976
H251  H     H_    0.733755 0.905512 0.721357 0.240454
H252  H     H_    0.741397 0.819394 0.696158 0.243697
N62   N     N_2   0.095508 0.683814 0.712182 -0.250550
H253  H     H_    0.150947 0.676976 0.714244 0.234925
C230  C     C_3   0.072586 0.757782 0.720679 -0.820865
H254  H     H_    0.090496 0.774857 0.750257 0.223873
H255  H     H_    0.012588 0.762686 0.718437 0.241510
H256  H     H_    0.097595 0.795198 0.699316 0.242553
N63   N     N_2   0.355998 0.142933 0.710417 -0.241983
H257  H     H_    0.374554 0.195808 0.712826 0.221524
C231  C     C_3   0.279212 0.136908 0.718882 -0.776753
H258  H     H_    0.267402 0.156694 0.748876 0.216031
H259  H     H_    0.260760 0.079551 0.715727 0.239426
H260  H     H_    0.248126 0.170792 0.698099 0.237550
N64   N     N_2   0.877053 0.342552 0.710657 -0.267285
H261  H     H_    0.879073 0.292196 0.723730 0.204171
C232  C     C_3   0.803313 0.365221 0.702777 -0.693926
H262  H     H_    0.773576 0.374604 0.730537 0.210324
H263  H     H_    0.775008 0.321955 0.685793 0.227221
H264  H     H_    0.802814 0.416007 0.685416 0.260211
O53   O     O_3   0.120197 0.436553 0.144758 -0.580445
C233  C     C_3   0.170158 0.488044 0.130126 0.138042
H265  H     H_    0.196054 0.519653 0.154208 0.142710
H266  H     H_    0.143147 0.526701 0.110086 0.118716
C234  C     C_3   0.229409 0.448838 0.107261 -0.845852
H267  H     H_    0.206785 0.426360 0.079720 0.227163
H268  H     H_    0.273415 0.487745 0.099950 0.201577
H269  H     H_    0.252644 0.403850 0.124690 0.267965
O54   O     O_3   0.565754 0.111926 0.147950 -0.575117
C235  C     C_3   0.511768 0.166815 0.148380 0.136689
H270  H     H_    0.500742 0.185868 0.178674 0.140018
H271  H     H_    0.460221 0.146417 0.135361 0.118687
C236  C     C_3   0.536707 0.231765 0.124733 -0.868494
H272  H     H_    0.536309 0.217407 0.093286 0.222596
H273  H     H_    0.498820 0.278084 0.129421 0.206725
H274  H     H_    0.592142 0.248784 0.133771 0.275911
O55   O     O_3   0.898093 0.573871 0.148308 -0.593819
C237  C     C_3   0.839536 0.524257 0.149937 0.132367
H275  H     H_    0.821370 0.516225 0.180525 0.153009
H276  H     H_    0.855047 0.470556 0.137091 0.120589
C238  C     C_3   0.775929 0.554504 0.126907 -0.856909
H277  H     H_    0.789857 0.556077 0.095475 0.234612
H278  H     H_    0.727539 0.519199 0.130741 0.206183
H279  H     H_    0.762535 0.610382 0.137341 0.269046
O56   O     O_3   0.427295 0.889965 0.145936 -0.571054
C239  C     C_3   0.479421 0.834385 0.140001 0.135356
H280  H     H_    0.498259 0.812106 0.168309 0.136085
H281  H     H_    0.527145 0.855229 0.123713 0.118671
C240  C     C_3   0.446376 0.772517 0.116143 -0.866738
H282  H     H_    0.436912 0.790549 0.085812 0.226179
H283  H     H_    0.484397 0.725576 0.115352 0.206898
H284  H     H_    0.394261 0.754742 0.129246 0.268270
O57   O     O_3   0.613500 0.938231 0.647564 -0.582285
C241  C     C_3   0.667104 0.993400 0.650225 0.132715
H285  H     H_    0.685832 0.000423 0.680840 0.145007
H286  H     H_    0.645959 0.046584 0.639764 0.117908
C242  C     C_3   0.732300 0.973097 0.625274 -0.868941
H287  H     H_    0.717548 0.976026 0.594001 0.222303
H288  H     H_    0.777212 0.012210 0.630876 0.206553
H289  H     H_    0.751236 0.917305 0.632340 0.279436
O58   O     O_3   0.064722 0.617659 0.646613 -0.582704
C243  C     C_3   0.014142 0.670180 0.633823 0.143461
H290  H     H_    0.984019 0.694655 0.658803 0.146205
H291  H     H_    0.974134 0.645765 0.613242 0.115012
C244  C     C_3   0.054488 0.730724 0.612839 -0.852334
H292  H     H_    0.070795 0.711786 0.583339 0.222826
H293  H     H_    0.018920 0.779104 0.609768 0.208879
H294  H     H_    0.103631 0.747174 0.629481 0.272136
O59   O     O_3   0.389817 0.072457 0.646571 -0.570930
C245  C     C_3   0.334852 0.020270 0.639234 0.137754
H295  H     H_    0.310957 0.000561 0.666981 0.136803
H296  H     H_    0.356492 0.972788 0.622584 0.116610
C246  C     C_3   0.274761 0.054231 0.615047 -0.863101
H297  H     H_    0.295040 0.065721 0.585303 0.227772
H298  H     H_    0.228401 0.015744 0.612612 0.204264
H299  H     H_    0.255603 0.105605 0.628941 0.267465
O60   O     O_3   0.929903 0.393398 0.646255 -0.575449
C247  C     C_3   0.982136 0.338565 0.639062 0.128458
H300  H     H_    0.001887 0.314771 0.666834 0.136381
H301  H     H_    0.029183 0.360298 0.622570 0.121975
C248  C     C_3   0.947595 0.278226 0.614686 -0.848945
H302  H     H_    0.929839 0.300062 0.586168 0.239213
H303  H     H_    0.987633 0.233964 0.609494 0.200707
H304  H     H_    0.899803 0.255503 0.630131 0.261643

loop_
_geom_bond_atom_site_label_1
_geom_bond_atom_site_label_2
_geom_bond_distance
_ccdc_geom_bond_type
C46   N38   1.426042 S    
C193  H108  1.108241 S    
C199  H130  1.110333 S    
N56   C224  1.446735 S    
C235  H270  1.113300 S    
C109  C123  1.403402 A    
C246  H298  1.110440 S    
C220  H214  1.109470 S    
C55   N47   1.425586 S    
Zn5   O51   1.945781 S    
C244  H294  1.110383 S    
C237  C238  1.521116 S    
C109  N53   1.427468 S    
C184  H70   1.110183 S    
C98   N10   1.426428 S    
N53   H217  1.024287 S    
C108  C114  1.407717 A    
O58   C243  1.413470 S    
C43   N35   1.421150 S    
C140  C148  1.414802 A    
C225  H234  1.110511 S    
C195  H115  1.101744 S    
C232  H262  1.111719 S    
C194  H111  1.111304 S    
C60   C77   1.412014 A    
C226  H240  1.110108 S    
N42   C210  1.446396 S    
C173  H26   1.110359 S    
N62   H253  1.031065 S    
C29   N21   1.431372 S    
C86   C102  1.422745 A    
O49   C23   1.302489 A    
N31   H129  1.028364 S    
C217  H204  1.109555 S    
C205  H154  1.110213 S    
C18   C88   1.488328 S    
C146  C154  1.420889 A    
C243  C244  1.523466 S    
Zn13  O35   1.943961 S    
N28   H117  1.032134 S    
C129  H1    1.079316 S    
O34   C22   1.270575 A    
C136  C140  1.394991 A    
C211  H179  1.109948 S    
C241  C242  1.519681 S    
C92   N4    1.427186 S    
O52   C22   1.294241 A    
N8    C176  1.449618 S    
C162  C168  1.406236 A    
C3    C116  1.464842 S    
C6    C166  1.447835 S    
C244  H293  1.109329 S    
C111  C115  1.411557 A    
N15   H65   1.028041 S    
C10   C80   1.462841 S    
C236  H274  1.110685 S    
Zn4   O2    1.953263 S    
C138  C146  1.412289 A    
C12   C78   1.458770 S    
N29   C197  1.448003 S    
N1    H9    1.029428 S    
O47   C17   1.262685 A    
C243  H291  1.112063 S    
C231  H259  1.110344 S    
C30   N22   1.429480 S    
C123  C135  1.400227 A    
C40   C56   1.418550 A    
C147  C153  1.422546 A    
N19   C187  1.444571 S    
C244  H292  1.109622 S    
N44   C212  1.446358 S    
N53   C221  1.441164 S    
C159  C165  1.397321 A    
C238  H279  1.110974 S    
C212  H183  1.111019 S    
N14   H61   1.028703 S    
Zn16  O36   1.942434 S    
C191  H98   1.111154 S    
C90   N2    1.427359 S    
C22   C84   1.478828 S    
C190  H96   1.110626 S    
N16   C184  1.450049 S    
C144  C152  1.418337 A    
C235  C236  1.519728 S    
O28   C16   1.265181 A    
C206  H158  1.110780 S    
O46   C20   1.270266 A    
O54   C235  1.415497 S    
Zn12  O24   1.941626 S    
N61   C229  1.448090 S    
C207  H163  1.110513 S    
C51   N43   1.422569 S    
C2    C113  1.463615 S    
C66   C87   1.416142 A    
C16   C74   1.478533 S    
Zn16  O4    1.958033 S    
C200  H136  1.110934 S    
Zn1   O13   1.942367 S    
C124  C136  1.403390 A    
C209  H171  1.111851 S    
C242  H289  1.110757 S    
Zn3   O15   1.933631 S    
C234  H267  1.109428 S    
Zn4   O16   1.938551 S    
C78   C94   1.411496 A    
Zn3   O41   1.942028 S    
C162  O58   1.385769 S    
C73   C89   1.407689 A    
C100  C101  1.398614 A    
N62   C230  1.448858 S    
N2    C170  1.445141 S    
Zn7   O3    1.957886 S    
N49   C217  1.445925 S    
O55   C237  1.412510 S    
C204  H152  1.111414 S    
C239  H281  1.111641 S    
C218  H206  1.110011 S    
C25   N17   1.428637 S    
N24   H101  1.028662 S    
N52   H213  1.031666 S    
C184  H72   1.109242 S    
O11   C3    1.282980 A    
N63   H257  1.031251 S    
C178  H48   1.111585 S    
N4    C172  1.445720 S    
C96   N8    1.427530 S    
N32   H133  1.024196 S    
C37   N29   1.431196 S    
C171  H19   1.111640 S    
C57   C80   1.406661 A    
C225  H236  1.109838 S    
O50   C24   1.285713 A    
C58   C79   1.405426 A    
C70   C83   1.431712 A    
C142  N62   1.424580 S    
C71   C82   1.437006 A    
Zn10  O22   1.945382 S    
C100  N12   1.427507 S    
C141  C149  1.412477 A    
Zn1   O43   1.945781 S    
N39   H161  1.029574 S    
C33   C49   1.426073 A    
C40   C65   1.408167 A    
Zn12  O28   1.942434 S    
N21   H89   1.028502 S    
C15   C75   1.471466 S    
C68   C85   1.408118 A    
Zn14  O34   1.945823 S    
C77   C93   1.421078 A    
Zn6   O4    1.953876 S    
Zn10  O2    1.940710 S    
C83   C99   1.407958 A    
C88   C104  1.430195 A    
Zn3   O1    1.957886 S    
C189  H92   1.109913 S    
C34   C71   1.426159 A    
Zn15  O33   1.938690 S    
N57   H233  1.031229 S    
C229  H251  1.110541 S    
C247  H301  1.111227 S    
C42   N34   1.426613 S    
N34   C202  1.448037 S    
C30   C46   1.403053 A    
N16   H69   1.030306 S    
C227  H244  1.110258 S    
Zn10  O8    1.942132 S    
C248  H302  1.110967 S    
N20   H85   1.031856 S    
N36   C204  1.447886 S    
C109  C115  1.408434 A    
N14   C182  1.449439 S    
C228  H246  1.110761 S    
O57   C241  1.416074 S    
C137  N57   1.423631 S    
C112  C116  1.407623 A    
Zn8   O46   1.944359 S    
C28   C61   1.427853 A    
C232  H263  1.110505 S    
C149  C155  1.419728 A    
C169  H11   1.111365 S    
Zn13  O29   1.939444 S    
C181  H59   1.109947 S    
N1    C169  1.445503 S    
O59   C245  1.414148 S    
C111  N55   1.425407 S    
C195  H114  1.107156 S    
O27   C15   1.279778 A    
C229  H250  1.110600 S    
N29   H121  1.028900 S    
C36   C52   1.421753 A    
C60   C61   1.402377 A    
C106  C114  1.401029 A    
N27   H113  1.031829 S    
C229  H252  1.110129 S    
O8    C2    1.280407 A    
C177  H43   1.111625 S    
C61   C76   1.431633 A    
C222  H222  1.110428 S    
C199  H131  1.110648 S    
N41   H169  1.029959 S    
O13   C5    1.274801 A    
C39   C66   1.430659 A    
C224  H231  1.109722 S    
C201  H139  1.109992 S    
O16   C6    1.280065 A    
C170  H14   1.109571 S    
O14   C6    1.277517 A    
C215  H196  1.110337 S    
Zn15  O9    1.938015 S    
C144  N64   1.424340 S    
C120  C132  1.397992 A    
C134  H6    1.079213 S    
Zn12  O6    1.933412 S    
C164  C168  1.399245 A    
O40   C10   1.260344 A    
N13   C181  1.449399 S    
N3    H17   1.029292 S    
C182  H63   1.109991 S    
C233  H265  1.112920 S    
C234  H269  1.110173 S    
O45   C19   1.273968 A    
O17   C7    1.275837 A    
Zn7   O45   1.942834 S    
C221  H218  1.109391 S    
N11   C179  1.445773 S    
N40   H165  1.030777 S    
Zn5   O17   1.942367 S    
C103  N15   1.429684 S    
C27   C62   1.430562 A    
N43   C211  1.448015 S    
C197  H123  1.110623 S    
C163  O59   1.385911 S    
O9    C3    1.284532 A    
C209  H172  1.106258 S    
C25   C64   1.426070 A    
C107  C113  1.409688 A    
C203  H148  1.111287 S    
O35   C23   1.271753 A    
C110  N54   1.428388 S    
C213  H188  1.109483 S    
C91   N3    1.428237 S    
C174  H30   1.110602 S    
C175  H36   1.109467 S    
C245  H296  1.111836 S    
N15   C183  1.447413 S    
C152  C156  1.425464 A    
Zn4   O44   1.939845 S    
C202  H142  1.109017 S    
C132  C144  1.389795 A    
C29   C60   1.421734 A    
N59   C227  1.447871 S    
C208  H166  1.110244 S    
C221  H220  1.113073 S    
N17   C185  1.446670 S    
Zn9   O27   1.943961 S    
C80   C96   1.420816 A    
C95   N7    1.426654 S    
C31   C58   1.407406 A    
C219  H212  1.107284 S    
C81   C97   1.407950 A    
C138  N58   1.425271 S    
C14   C76   1.477060 S    
C28   N20   1.434685 S    
C66   C71   1.419477 A    
C122  C134  1.403681 A    
C191  H100  1.111080 S    
C237  H276  1.113418 S    
N35   C203  1.445511 S    
Zn11  O5    1.938014 S    
O5    C1    1.281686 A    
C228  H248  1.110141 S    
C233  C234  1.521609 S    
C20   C86   1.468957 S    
C202  H144  1.110270 S    
Zn11  O23   1.944459 S    
N9    H41   1.029240 S    
C32   N24   1.431260 S    
N10   C178  1.444330 S    
C227  H242  1.110765 S    
C111  C121  1.419898 A    
C248  H304  1.110866 S    
C38   C54   1.412168 A    
O41   C15   1.289898 A    
C216  H198  1.110157 S    
C8    C168  1.453782 S    
C97   N9    1.428147 S    
C196  H120  1.107025 S    
C106  N50   1.421316 S    
C172  H23   1.111661 S    
C89   C96   1.396367 A    
N31   C199  1.447865 S    
O56   C239  1.414304 S    
C90   C95   1.399524 A    
C36   N28   1.432146 S    
C26   N18   1.425995 S    
C187  H83   1.110861 S    
C186  H80   1.091478 S    
N12   C180  1.445839 S    
C248  H303  1.110393 S    
C241  H286  1.113658 S    
C76   C92   1.408003 A    
C184  H71   1.109933 S    
C213  H186  1.110092 S    
C52   C53   1.409850 A    
C222  H224  1.107902 S    
C64   C73   1.437934 A    
C193  H107  1.110631 S    
C204  H150  1.111257 S    
C105  C119  1.408603 A    
C223  H228  1.106510 S    
C235  H271  1.112362 S    
C118  C126  1.411427 A    
C118  C130  1.398306 A    
C151  C163  1.409898 A    
C68   C69   1.398531 A    
C131  H3    1.079777 S    
C170  H16   1.111134 S    
C215  H194  1.110119 S    
C52   N44   1.422429 S    
C101  N13   1.427028 S    
N7    C175  1.449463 S    
C143  C151  1.414535 A    
C44   N36   1.423005 S    
Zn1   O1    1.940562 S    
C158  C166  1.396791 A    
Zn2   O14   1.938242 S    
C179  H52   1.111205 S    
C117  C129  1.403956 A    
C185  H75   1.105792 S    
Zn1   O39   1.946225 S    
C79   C95   1.418891 A    
O53   C233  1.414423 S    
Zn3   O37   1.942834 S    
Zn12  O2    1.958033 S    
C21   C81   1.477959 S    
C99   N11   1.427593 S    
C105  N49   1.428367 S    
N28   C196  1.443646 S    
C102  N14   1.427040 S    
C130  C142  1.401495 A    
C183  H68   1.110549 S    
C123  C127  1.405239 A    
N23   C191  1.449160 S    
C145  C157  1.418969 A    
C105  C113  1.410083 A    
N56   H229  1.030886 S    
N36   H149  1.031111 S    
C230  H255  1.111187 S    
N35   H145  1.025126 S    
C174  H32   1.109217 S    
C175  H34   1.110183 S    
C133  C137  1.402396 A    
C163  C167  1.400995 A    
C238  H278  1.110145 S    
C192  H103  1.109744 S    
N49   H201  1.030505 S    
N42   H173  1.023615 S    
C89   N1    1.427246 S    
C72   C81   1.414235 A    
O6    C2    1.281413 A    
N33   H137  1.031066 S    
N46   H189  1.030224 S    
C25   C41   1.423014 A    
C236  H273  1.110493 S    
C173  H28   1.108999 S    
C230  H254  1.110301 S    
Zn10  O26   1.945823 S    
C65   C88   1.421357 A    
O10   C4    1.282912 A    
N6    H29   1.027745 S    
C32   C48   1.409472 A    
C39   C55   1.403963 A    
N12   H53   1.029580 S    
C240  H282  1.109799 S    
N2    H13   1.029606 S    
Zn14  O30   1.945382 S    
N19   H81   1.027840 S    
Zn15  O3    1.954023 S    
C188  H87   1.104305 S    
C186  H78   1.108944 S    
C67   C86   1.411165 A    
C124  C128  1.414554 A    
C161  O57   1.385716 S    
N30   C198  1.447677 S    
C49   C56   1.415087 A    
C74   C90   1.412574 A    
C218  H208  1.108914 S    
C190  H95   1.110590 S    
C31   C47   1.402621 A    
N45   H185  1.030721 S    
N55   C223  1.446205 S    
N50   C218  1.448988 S    
N22   H93   1.028180 S    
C216  H200  1.104039 S    
C36   C69   1.420142 A    
Zn5   O47   1.946225 S    
Zn8   O20   1.938551 S    
Zn6   O48   1.939092 S    
C139  N59   1.433035 S    
C150  C162  1.417241 A    
Zn9   O7    1.938323 S    
C130  H2    1.080831 S    
C41   C48   1.406974 A    
C240  H283  1.110437 S    
C145  C153  1.421753 A    
C176  H40   1.109327 S    
C110  C116  1.410011 A    
N30   H125  1.028616 S    
C200  H135  1.109538 S    
C205  H156  1.111300 S    
O32   C20   1.298606 A    
C69   C84   1.428626 A    
C33   N25   1.441729 S    
C242  H288  1.110456 S    
C141  N61   1.425421 S    
C5    C165  1.456097 S    
C214  H190  1.110211 S    
C160  O56   1.386076 S    
Zn4   O38   1.944359 S    
C183  H67   1.110181 S    
C206  H159  1.110305 S    
C137  C145  1.421534 A    
C223  H226  1.109933 S    
N5    H25   1.029315 S    
C220  H215  1.111782 S    
C239  C240  1.520732 S    
O12   C4    1.285372 A    
Zn7   O19   1.933631 S    
O48   C18   1.276309 A    
C136  H8    1.079903 S    
O38   C12   1.273118 A    
C34   N26   1.419401 S    
N33   C201  1.447187 S    
Zn16  O10   1.933413 S    
Zn13  O3    1.953412 S    
C179  H50   1.109918 S    
Zn14  O4    1.940710 S    
C195  H116  1.109820 S    
C159  O55   1.386454 S    
N32   C200  1.452616 S    
C35   C70   1.427908 A    
C117  C125  1.415106 A    
N18   H77   1.031077 S    
C225  H235  1.110837 S    
C47   N39   1.423242 S    
C11   C79   1.476165 S    
C93   N5    1.427431 S    
N37   H153  1.030256 S    
O21   C9    1.291097 A    
C26   C42   1.427069 A    
N54   H221  1.030903 S    
C119  C131  1.403900 A    
O23   C11   1.300695 A    
C161  C167  1.396638 A    
N58   H237  1.031124 S    
C132  H4    1.081519 S    
C56   N48   1.426848 S    
N51   C219  1.445885 S    
Zn7   O49   1.942028 S    
C28   C44   1.420442 A    
C121  C127  1.411831 A    
N8    H37   1.028288 S    
N44   H181  1.030727 S    
C211  H180  1.111366 S    
O25   C13   1.262806 A    
C139  C147  1.416425 A    
C91   C94   1.393402 A    
N64   C232  1.446494 S    
C148  C160  1.409000 A    
C247  C248  1.521017 S    
C178  H47   1.108676 S    
C99   C102  1.397928 A    
C227  H243  1.111119 S    
C230  H256  1.109720 S    
N60   C228  1.448061 S    
C24   C82   1.472045 S    
C243  H290  1.113002 S    
C231  H260  1.110089 S    
C194  H112  1.108337 S    
N39   C207  1.445665 S    
C84   C100  1.408702 A    
C177  H42   1.110351 S    
C240  H284  1.110266 S    
C214  H191  1.109691 S    
C192  H102  1.110536 S    
C238  H277  1.110372 S    
N48   C216  1.445775 S    
Zn11  O1    1.954023 S    
O37   C11   1.271710 A    
C50   N42   1.418636 S    
C178  H46   1.110814 S    
O43   C13   1.301180 A    
C4    C115  1.475500 S    
N46   C214  1.445432 S    
C226  H239  1.110434 S    
C214  H192  1.111428 S    
N26   H109  1.026024 S    
Zn2   O42   1.944857 S    
C75   C91   1.407574 A    
Zn5   O3    1.940562 S    
C224  H230  1.109458 S    
O22   C10   1.294903 A    
C26   C63   1.445502 A    
C31   N23   1.423404 S    
C157  C165  1.408322 A    
C126  C156  1.412090 A    
C127  C153  1.412401 A    
C183  H66   1.110310 S    
C112  C122  1.406459 A    
C216  H199  1.109123 S    
C207  H164  1.111386 S    
C215  H195  1.110846 S    
C180  H54   1.109848 S    
C219  H210  1.110306 S    
C43   C46   1.393391 A    
C50   C55   1.392829 A    
C198  H126  1.110444 S    
C182  H62   1.110220 S    
C233  H266  1.110738 S    
C234  H268  1.110254 S    
C180  H55   1.111652 S    
C59   C78   1.418348 A    
C151  C155  1.422793 A    
C181  H58   1.110278 S    
C107  N51   1.428354 S    
Zn6   O18   1.938242 S    
C125  C155  1.410489 A    
C135  H7    1.076468 S    
C65   C72   1.392815 A    
C218  H207  1.106770 S    
N11   H49   1.029599 S    
C210  H176  1.111541 S    
C85   C101  1.422564 A    
N25   C193  1.446521 S    
C239  H280  1.113663 S    
C176  H39   1.109664 S    
Zn2   O40   1.939092 S    
N52   C220  1.448405 S    
C194  H110  1.110639 S    
C42   C47   1.395611 A    
C211  H178  1.111314 S    
C203  H147  1.110686 S    
O31   C19   1.285850 A    
C67   C70   1.401927 A    
C185  H74   1.103129 S    
C213  H187  1.109072 S    
C164  O60   1.386837 S    
Zn2   O2    1.953876 S    
C246  H297  1.109910 S    
O7    C1    1.286728 A    
N64   H261  1.031958 S    
O26   C14   1.265923 A    
Zn15  O31   1.944459 S    
C201  H138  1.110312 S    
C171  H20   1.111030 S    
Zn16  O32   1.941626 S    
N59   H241  1.031519 S    
C193  H106  1.109805 S    
C221  H219  1.101666 S    
C210  H175  1.110892 S    
C38   N30   1.431506 S    
N63   C231  1.447991 S    
O19   C7    1.276902 A    
C212  H182  1.109368 S    
Zn8   O4    1.953263 S    
N6    C174  1.449247 S    
N60   H245  1.031237 S    
N21   C189  1.447696 S    
O39   C9    1.266007 A    
C191  H99   1.104405 S    
C107  C117  1.407897 A    
C41   N33   1.422499 S    
N48   H197  1.030466 S    
O51   C21   1.286570 A    
C133  H5    1.079283 S    
C35   N27   1.435173 S    
C131  C143  1.394806 A    
N57   C225  1.448409 S    
N43   H177  1.031113 S    
C39   N31   1.429379 S    
C204  H151  1.110322 S    
C202  H143  1.107277 S    
C247  H300  1.113827 S    
O20   C8    1.282211 A    
C208  H167  1.109641 S    
O44   C14   1.297567 A    
C196  H118  1.106625 S    
C187  H82   1.110873 S    
C149  C161  1.404851 A    
N22   C190  1.447943 S    
C27   N19   1.418359 S    
C231  H258  1.110685 S    
O24   C12   1.289935 A    
C7    C167  1.448121 S    
C228  H247  1.110332 S    
C172  H22   1.109546 S    
C147  C159  1.405576 A    
C198  H128  1.109923 S    
C122  C128  1.414074 A    
C1    C114  1.464791 S    
N9    C177  1.445952 S    
C192  H104  1.109986 S    
C106  C120  1.402648 A    
C224  H232  1.107631 S    
C97   C104  1.403799 A    
C217  H203  1.110892 S    
C181  H60   1.109464 S    
C120  C126  1.406263 A    
C98   C103  1.389759 A    
C198  H127  1.110735 S    
C49   N41   1.422926 S    
C44   C45   1.407796 A    
N27   C195  1.450073 S    
C33   C72   1.423305 A    
C177  H44   1.111076 S    
N54   C222  1.445780 S    
N37   C205  1.445340 S    
C199  H132  1.110641 S    
C223  H227  1.108070 S    
C82   C98   1.413991 A    
C152  C164  1.406509 A    
C222  H223  1.110640 S    
C32   C57   1.420199 A    
N38   H157  1.031172 S    
C143  N63   1.424314 S    
C54   N46   1.424493 S    
C129  C141  1.393977 A    
C209  H170  1.110031 S    
C189  H91   1.110759 S    
C201  H140  1.111332 S    
N45   C213  1.445127 S    
C207  H162  1.110197 S    
C170  H15   1.111745 S    
N10   H45   1.028161 S    
C180  H56   1.111142 S    
C121  C133  1.402272 A    
N7    H33   1.028976 S    
C135  C139  1.395316 A    
C208  H168  1.109479 S    
C226  H238  1.110503 S    
C188  H88   1.109409 S    
C203  H146  1.110517 S    
N3    C171  1.446102 S    
C112  N56   1.425567 S    
C182  H64   1.109471 S    
O29   C17   1.293446 A    
N24   C192  1.448395 S    
O42   C16   1.308827 A    
N18   C186  1.455305 S    
C189  H90   1.110346 S    
C94   N6    1.428419 S    
C197  H122  1.110429 S    
C217  H202  1.110709 S    
Zn9   O21   1.939444 S    
N51   H209  1.030795 S    
C197  H124  1.109772 S    
C37   C53   1.411908 A    
N20   C188  1.450259 S    
C17   C85   1.464930 S    
C53   N45   1.424374 S    
C62   C75   1.439052 A    
N58   C226  1.447917 S    
N23   H97   1.025395 S    
C63   C74   1.441676 A    
N47   C215  1.446532 S    
C37   C68   1.420563 A    
Zn9   O1    1.953412 S    
C38   C67   1.420835 A    
O15   C5    1.281247 A    
Zn8   O52   1.939845 S    
C174  H31   1.109556 S    
C157  O53   1.386434 S    
C245  H295  1.113262 S    
C219  H211  1.110392 S    
C246  H299  1.110414 S    
C19   C87   1.452858 S    
C196  H119  1.101961 S    
C29   C45   1.412608 A    
C171  H18   1.106998 S    
C40   N32   1.422098 S    
C9    C77   1.466457 S    
N50   H205  1.021848 S    
C176  H38   1.110299 S    
C236  H272  1.109427 S    
N47   H193  1.030080 S    
C51   C54   1.408066 A    
C173  H27   1.109411 S    
O60   C247  1.412432 S    
C30   C59   1.429726 A    
C212  H184  1.109805 S    
N38   C206  1.446875 S    
C160  C166  1.401380 A    
C35   C51   1.421531 A    
O33   C21   1.276810 A    
C34   C50   1.412842 A    
C169  H10   1.109865 S    
N40   C208  1.445074 S    
N61   H249  1.031055 S    
C108  C118  1.414578 A    
C237  H275  1.113788 S    
C188  H86   1.106183 S    
C142  C150  1.424278 A    
C119  C125  1.413578 A    
C210  H174  1.109385 S    
C92   C93   1.399109 A    
C232  H264  1.111257 S    
N5    C173  1.449861 S    
C59   C62   1.420348 A    
C179  H51   1.111658 S    
N34   H141  1.029424 S    
N41   C209  1.445371 S    
C27   C43   1.415734 A    
C190  H94   1.110360 S    
C23   C83   1.477787 S    
N26   C194  1.446212 S    
C57   C64   1.400819 A    
N55   H225  1.031181 S    
N25   H105  1.032195 S    
C108  N52   1.426071 S    
C58   C63   1.401654 A    
C48   N40   1.424799 S    
N4    H21   1.029139 S    
C13   C73   1.476878 S    
C220  H216  1.109390 S    
Zn11  O25   1.938690 S    
C140  N60   1.424390 S    
C110  C124  1.409315 A    
C150  C156  1.423166 A    
C104  N16   1.426090 S    
N13   H57   1.028626 S    
C146  C158  1.404911 A    
C172  H24   1.111178 S    
C148  C154  1.421982 A    
C206  H160  1.111323 S    
O36   C24   1.285058 A    
C87   C103  1.407482 A    
Zn6   O50   1.944857 S    
C187  H84   1.109870 S    
C245  C246  1.520744 S    
C186  H79   1.107709 S    
C200  H134  1.103852 S    
C134  C138  1.392926 A    
C185  H76   1.106687 S    
O18   C8    1.277697 A    
C205  H155  1.109582 S    
N17   H73   1.030980 S    
C241  H285  1.112850 S    
Zn13  O11   1.938322 S    
Zn14  O12   1.942132 S    
C242  H287  1.109677 S    
C158  O54   1.386058 S    
C128  C154  1.410415 A    
C169  H12   1.110836 S    
C175  H35   1.110045 S    
O30   C18   1.294854 A    
C45   N37   1.424568 S    
