data_mof_unit_25890.cif
_audit_creation_date              2012-12-10T21:27:29-0500
_audit_creation_method            fapswitch 2.2
_symmetry_space_group_name_H-M    P1
_symmetry_Int_Tables_number       1
_space_group_crystal_system       triclinic
_cell_length_a                    10.863442
_cell_length_b                    16.17991
_cell_length_c                    16.640964
_cell_angle_alpha                 87.019228
_cell_angle_beta                  91.948558
_cell_angle_gamma                 107.155719
_cell_volume                      2790.51694031

loop_
_atom_site_label
_atom_site_type_symbol
_atom_type_description
_atom_site_fract_x
_atom_site_fract_y
_atom_site_fract_z
_atom_type_partial_charge
C1    C     C_R   0.501376 0.488619 0.653266 0.909532
C2    C     C_R   0.496121 0.510814 0.346701 0.911345
C3    C     C_R   0.455898 0.401937 0.780864 -0.353247
C4    C     C_R   0.512202 0.593710 0.216285 -0.317397
C5    C     C_R   0.433992 0.751029 0.461520 -0.039067
C6    C     C_R   0.560786 0.247484 0.541245 -0.036370
C7    C     C_R   0.431599 0.837633 0.466014 0.266960
C8    C     C_R   0.551129 0.158483 0.543339 0.264402
C9    C     C_R   0.523538 0.894561 0.516009 0.108115
C10   C     C_R   0.467477 0.103990 0.487686 0.120245
C11   C     C_R   0.610424 0.860610 0.561875 0.327248
C12   C     C_R   0.389487 0.139769 0.435479 0.361938
C13   C     C_R   0.601753 0.771934 0.559720 -0.168830
C14   C     C_R   0.398508 0.229081 0.439552 -0.205032
C15   C     C_R   0.743054 0.536593 0.499006 0.950099
C16   C     C_R   0.256909 0.463466 0.500910 0.942569
C17   C     C_2   0.880696 0.557957 0.504450 -0.425289
C18   C     C_2   0.119248 0.442468 0.495293 -0.408618
C19   C     C_2   0.938865 0.501401 0.480552 0.005863
C20   C     C_2   0.061577 0.499606 0.518610 0.005605
C21   C     C_R   0.511594 0.481357 0.740080 -0.084657
C22   C     C_R   0.473756 0.514713 0.260403 -0.093239
C23   C     C_R   0.579394 0.553849 0.782038 -0.263059
C24   C     C_R   0.408573 0.438496 0.222290 -0.269090
C25   C     C_R   0.586220 0.548668 0.865275 -0.077690
C26   C     C_R   0.390339 0.439685 0.139480 -0.063809
C27   C     C_R   0.522459 0.470307 0.906787 0.197135
C28   C     C_R   0.440561 0.517892 0.094251 0.169810
C29   C     C_R   0.463348 0.394937 0.865316 0.490398
C30   C     C_R   0.493340 0.595868 0.132904 0.487091
H1    H     H_    0.665625 0.745520 0.597187 0.159800
H2    H     H_    0.336596 0.258084 0.403349 0.159506
H3    H     H_    0.070214 0.388487 0.458566 0.152695
H4    H     H_    0.929356 0.611716 0.541524 0.143778
H5    H     H_    0.372855 0.377889 0.256974 0.161304
H6    H     H_    0.626347 0.614493 0.749909 0.167964
H7    H     H_    0.402876 0.347269 0.746583 0.161643
H8    H     H_    0.560935 0.653012 0.245832 0.171780
N1    N     N_2   0.509471 0.467712 0.990506 -0.138137
N2    N     N_2   0.450311 0.518517 0.010323 -0.156726
N3    N     N_R   0.515370 0.719110 0.509820 -0.142057
N4    N     N_R   0.484630 0.280890 0.490180 -0.139345
N5    N     N_2   0.536375 0.985423 0.521185 -0.074378
N6    N     N_2   0.454888 0.013174 0.482441 -0.074098
O1    O     O_R   0.494500 0.421750 0.612630 -0.623820
O2    O     O_R   0.505500 0.578250 0.387370 -0.619412
O3    O     O_R   0.504370 0.562470 0.618930 -0.611052
O4    O     O_R   0.495630 0.437530 0.381070 -0.613729
O5    O     O_R   0.679100 0.455920 0.498020 -0.595315
O6    O     O_R   0.320900 0.544080 0.501980 -0.599459
O7    O     O_R   0.688960 0.596630 0.504320 -0.622691
O8    O     O_R   0.311040 0.403370 0.495680 -0.620386
Zn1   Zn    Zn3+2 0.493410 0.406040 0.495790 0.952292
Zn2   Zn    Zn3+2 0.506590 0.593960 0.504210 0.953551
C31   C     C_1   0.119437 0.559270 0.581889 0.209346
N7    N     N_1   0.165311 0.606520 0.631947 -0.217320
C32   C     C_1   0.881495 0.442418 0.416713 0.222289
N8    N     N_1   0.836016 0.395739 0.366160 -0.204953
C33   C     C_1   0.322044 0.360164 0.101890 0.238514
N9    N     N_1   0.267039 0.296338 0.072048 -0.177926
C34   C     C_1   0.657638 0.624456 0.907309 0.239744
N10   N     N_1   0.715121 0.685266 0.940783 -0.160547
O9    O     O_3   0.400262 0.320286 0.910465 -0.629711
C35   C     C_3   0.398324 0.242284 0.874747 0.085412
H9    H     H_    0.424022 0.199425 0.922587 0.166920
H10   H     H_    0.471280 0.250279 0.827182 0.116676
C36   C     C_3   0.261801 0.196903 0.843762 -0.326743
H11   H     H_    0.195103 0.180786 0.895292 0.238389
H12   H     H_    0.228154 0.240676 0.800625 0.219633
C37   C     C_3   0.255895 0.113865 0.802306 -0.987423
H13   H     H_    0.316399 0.129004 0.748001 0.254831
H14   H     H_    0.154934 0.081238 0.783372 0.273545
H15   H     H_    0.289782 0.068996 0.844078 0.272821
O10   O     O_3   0.543575 0.671996 0.087803 -0.628022
C38   C     C_3   0.465357 0.727312 0.094736 0.072489
H16   H     H_    0.526904 0.794784 0.082779 0.177508
H17   H     H_    0.426637 0.725207 0.156336 0.131429
C39   C     C_3   0.355237 0.706981 0.031927 -0.349779
H18   H     H_    0.395666 0.709857 0.971009 0.243318
H19   H     H_    0.290284 0.640559 0.044295 0.217514
C40   C     C_3   0.276853 0.771126 0.033341 -0.929844
H20   H     H_    0.234136 0.768442 0.093489 0.268372
H21   H     H_    0.197681 0.754434 0.987557 0.271781
H22   H     H_    0.338939 0.837980 0.019223 0.262452
C41   C     C_1   0.650138 0.302944 0.595636 0.316744
N11   N     N_1   0.722148 0.346797 0.639675 -0.219536
C42   C     C_1   0.350940 0.696675 0.403560 0.310254
N12   N     N_1   0.283811 0.653714 0.356757 -0.228654
O11   O     O_3   0.625330 0.126287 0.598746 -0.614364
C43   C     C_3   0.557737 0.104418 0.671662 0.101639
H23   H     H_    0.468158 0.049883 0.663217 0.148633
H24   H     H_    0.531779 0.160847 0.693759 0.112309
C44   C     C_3   0.643443 0.076738 0.735726 -0.296168
H25   H     H_    0.668884 0.019552 0.715885 0.270399
H26   H     H_    0.733921 0.130336 0.743682 0.219915
C45   C     C_3   0.575789 0.053661 0.816253 -0.979987
H27   H     H_    0.553038 0.110818 0.838700 0.259480
H28   H     H_    0.639878 0.032803 0.861102 0.272965
H29   H     H_    0.485274 0.999845 0.809774 0.271552
O12   O     O_3   0.347231 0.867144 0.416307 -0.610070
C46   C     C_3   0.224946 0.844248 0.452364 0.125481
H30   H     H_    0.226123 0.889156 0.501020 0.156931
H31   H     H_    0.195937 0.776553 0.478650 0.113957
C47   C     C_3   0.124092 0.851614 0.388311 -0.286543
H32   H     H_    0.150447 0.918480 0.361019 0.258222
H33   H     H_    0.121975 0.806172 0.340063 0.221980
C48   C     C_3   0.990280 0.830293 0.423952 -1.002069
H34   H     H_    0.960668 0.763135 0.450593 0.273662
H35   H     H_    0.919330 0.836120 0.376007 0.271539
H36   H     H_    0.990376 0.876282 0.471056 0.260674
O13   O     O_3   0.700250 0.914216 0.611701 -0.631950
C49   C     C_3   0.823980 0.930690 0.579081 0.092233
H37   H     H_    0.823429 0.948634 0.513363 0.144347
H38   H     H_    0.858225 0.872468 0.588831 0.134046
C50   C     C_3   0.917808 0.006195 0.621570 -0.318383
H39   H     H_    0.883574 0.064455 0.613060 0.250205
H40   H     H_    0.920837 0.989613 0.687136 0.220040
C51   C     C_3   0.053569 0.027049 0.588461 -0.972752
H41   H     H_    0.091188 0.970414 0.598232 0.260823
H42   H     H_    0.118881 0.082570 0.619971 0.268730
H43   H     H_    0.053206 0.044723 0.523044 0.277732
O14   O     O_3   0.299692 0.082478 0.387122 -0.628348
C52   C     C_3   0.264322 0.120852 0.315077 0.092549
H44   H     H_    0.256924 0.074725 0.266698 0.166752
H45   H     H_    0.337915 0.181385 0.294093 0.127333
C53   C     C_3   0.131228 0.133779 0.323562 -0.384250
H46   H     H_    0.058146 0.069484 0.331725 0.228902
H47   H     H_    0.129632 0.170985 0.377528 0.223522
C54   C     C_3   0.094637 0.181627 0.249480 -0.918056
H48   H     H_    0.163670 0.247471 0.242314 0.259011
H49   H     H_    0.996624 0.187988 0.256602 0.271717
H50   H     H_    0.094784 0.145379 0.194612 0.269473

loop_
_geom_bond_atom_site_label_1
_geom_bond_atom_site_label_2
_ccdc_geom_bond_type
C42   N12   T    
C29   O9    S    
C1    C21   S    
C53   H46   S    
C27   C29   A    
C19   C20   S    
C31   N7    T    
C47   H33   S    
C40   H20   S    
C32   N8    T    
C52   H44   S    
C41   N11   T    
C19   C32   S    
C44   H25   S    
C6    C41   S    
C24   C26   A    
N4    Zn1   S    
C30   O10   S    
C39   H19   S    
C52   H45   S    
C28   N2    S    
C50   H39   S    
C45   H29   S    
C15   C17   S    
C3    C29   A    
C51   H41   S    
C49   H37   S    
O13   C49   S    
C27   N1    S    
C50   H40   S    
C45   H28   S    
C2    C22   S    
C48   H34   S    
C37   H13   S    
C15   O7    A    
C26   C33   S    
C14   N4    A    
C54   H50   S    
C15   O5    A    
O1    Zn1   S    
C33   N9    T    
C44   H26   S    
C48   H35   S    
C20   C31   S    
C49   H38   S    
C47   H32   S    
C40   H21   S    
C46   H30   S    
O4    Zn1   S    
C9    N5    S    
C24   H5    S    
O10   C38   S    
C11   O13   S    
C36   H11   S    
C35   C36   S    
C49   C50   S    
C7    O12   S    
N1    N2    D    
C5    C7    A    
C39   H18   S    
C1    O3    A    
C52   C53   S    
C6    C8    A    
C53   C54   S    
C2    O4    A    
C38   C39   S    
C10   N6    S    
C2    O2    A    
C36   H12   S    
C51   H43   S    
C35   H10   S    
C38   H16   S    
C4    C22   A    
C43   H24   S    
C50   C51   S    
C45   H27   S    
O2    Zn2   S    
C37   H15   S    
C25   C34   S    
C9    C11   A    
C10   C12   A    
O3    Zn2   S    
C8    C10   A    
C12   C14   A    
C44   C45   S    
C21   C23   A    
N5    N6    D    
C48   H36   S    
C22   C24   A    
C3    C21   A    
C25   C27   A    
C17   H4    S    
C40   H22   S    
O8    Zn1   S    
C43   C44   S    
C54   H48   S    
C46   H31   S    
C7    C9    A    
C5    N3    A    
C53   H47   S    
C13   H1    S    
C16   O8    A    
C14   H2    S    
C13   N3    A    
C46   C47   S    
C26   C28   A    
O7    Zn2   S    
C35   H9    S    
C36   C37   S    
C28   C30   A    
O11   C43   S    
O6    Zn2   S    
C11   C13   A    
C39   C40   S    
C1    O1    A    
C43   H23   S    
O5    Zn1   S    
O12   C46   S    
C17   C19   D    
C18   C20   D    
C23   C25   A    
C34   N10   T    
C16   O6    A    
C18   H3    S    
C51   H42   S    
N3    Zn2   S    
O9    C35   S    
C5    C42   S    
C12   O14   S    
C3    H7    S    
C16   C18   S    
C23   H6    S    
C6    N4    A    
C38   H17   S    
C37   H14   S    
C8    O11   S    
O14   C52   S    
C4    H8    S    
C47   C48   S    
C4    C30   A    
C54   H49   S    
