data_mof_unit_52342.cif
_audit_creation_date              2012-12-10T20:52:12-0500
_audit_creation_method            fapswitch 2.2
_symmetry_space_group_name_H-M    P1
_symmetry_Int_Tables_number       1
_space_group_crystal_system       triclinic
_cell_length_a                    10.918561
_cell_length_b                    8.896499
_cell_length_c                    8.34414
_cell_angle_alpha                 90.313226
_cell_angle_beta                  94.561973
_cell_angle_gamma                 89.794645
_cell_volume                      807.94051303

loop_
_atom_site_label
_atom_site_type_symbol
_atom_type_description
_atom_site_fract_x
_atom_site_fract_y
_atom_site_fract_z
_atom_type_partial_charge
C1    C     C_R   0.499997 0.219057 0.499700 0.932594
C2    C     C_R   0.740371 0.496682 0.505205 0.868506
C3    C     C_R   0.204124 0.550610 0.013708 0.005364
C4    C     C_R   0.795893 0.449383 0.986293 0.005372
C5    C     C_R   0.122791 0.555481 0.132520 -0.139686
C6    C     C_R   0.877223 0.444522 0.867477 -0.139685
C7    C     C_R   0.091079 0.423419 0.207430 0.094189
C8    C     C_R   0.908921 0.576589 0.792564 0.094175
C9    C     C_R   0.117324 0.282788 0.144363 -0.140202
C10   C     C_R   0.882663 0.717217 0.855627 -0.140227
C11   C     C_R   0.186865 0.275501 0.012575 -0.158241
C12   C     C_R   0.500003 0.780943 0.500299 0.932627
C13   C     C_R   0.813123 0.724496 0.987415 -0.158233
C14   C     C_R   0.234529 0.407395 0.952639 -0.159977
C15   C     C_R   0.765472 0.592595 0.047356 -0.159972
C16   C     C_R   0.926476 0.426659 0.381384 -0.224174
C17   C     C_R   0.073525 0.573346 0.618614 -0.224172
C18   C     C_2   0.262967 0.695217 0.973016 0.851499
C19   C     C_2   0.737078 0.304765 0.027013 0.851483
C20   C     C_R   0.874024 0.491028 0.511359 -0.083927
C21   C     C_R   0.125976 0.508979 0.488639 -0.083926
C22   C     C_R   0.949817 0.559859 0.633806 -0.009910
C23   C     C_R   0.050182 0.440151 0.366189 -0.009910
C24   C     C_1   0.500001 0.065496 0.499589 -0.164796
C25   C     C_1   0.499999 0.934504 0.500410 -0.164779
C26   C     C_R   0.259629 0.503320 0.494795 0.868539
H1    H     H_    0.300955 0.390729 0.868660 0.199528
H2    H     H_    0.704291 0.087327 0.967402 0.340371
H3    H     H_    0.870826 0.371072 0.287869 0.180600
H4    H     H_    0.129174 0.628926 0.712135 0.180632
H5    H     H_    0.699050 0.609254 0.131339 0.199536
H6    H     H_    0.097376 0.662468 0.183644 0.175402
H7    H     H_    0.902650 0.337539 0.816354 0.175431
H8    H     H_    0.090706 0.180620 0.202267 0.146905
H9    H     H_    0.909270 0.819388 0.797719 0.146913
H10   H     H_    0.212073 0.167422 0.964786 0.150573
H11   H     H_    0.787907 0.832571 0.035205 0.150552
H12   H     H_    0.295866 0.912609 0.032735 0.340383
N1    N     N_1   0.500020 0.500030 0.073640 -0.035321
N2    N     N_1   0.499980 0.499970 0.926360 -0.035347
O1    O     O_R   0.499990 0.285340 0.636850 -0.622347
O2    O     O_R   0.249952 0.822138 0.070231 -0.822303
O3    O     O_2   0.677087 0.294662 0.143336 -0.607501
O4    O     O_R   0.750206 0.177796 0.929904 -0.822355
O5    O     O_R   0.500010 0.714660 0.363150 -0.622310
O6    O     O_R   0.500010 0.285350 0.363100 -0.564434
O7    O     O_R   0.499990 0.714650 0.636900 -0.564442
O8    O     O_R   0.316750 0.500000 0.636870 -0.617395
O9    O     O_R   0.683250 0.500000 0.363130 -0.617403
O10   O     O_R   0.316770 0.500020 0.363120 -0.612397
O11   O     O_R   0.683230 0.499980 0.636880 -0.612416
O12   O     O_2   0.322888 0.705352 0.856632 -0.607526
Zn1   Zn    Zn3+2 0.499990 0.499990 0.682780 1.017058
Zn2   Zn    Zn3+2 0.500010 0.500010 0.317220 1.017081

loop_
_geom_bond_atom_site_label_1
_geom_bond_atom_site_label_2
_ccdc_geom_bond_type
C8    C22   S    
C21   C26   S    
C15   H5    S    
C10   H9    S    
C2    O9    A    
C14   H1    S    
C19   O3    D    
C13   H11   S    
C17   C22   A    
C6    H7    S    
C26   O8    A    
C12   C25   S    
C16   C20   A    
C5    H6    S    
O6    Zn2   S    
C4    C15   A    
C21   C23   A    
C18   O12   D    
C24   C25   T    
C17   H4    S    
C9    C11   A    
O1    Zn1   S    
O10   Zn2   S    
C3    C14   A    
C1    C24   S    
C12   O7    A    
C7    C23   S    
O7    Zn1   S    
C4    C6    A    
C11   H10   S    
C20   C22   A    
O5    Zn2   S    
H12   O2    S    
C16   C23   A    
C5    C7    A    
C26   O10   A    
C13   C15   A    
O8    Zn1   S    
C11   C14   A    
C1    O6    A    
N1    Zn2   S    
C2    O11   A    
C2    C20   S    
O9    Zn2   S    
C19   O4    S    
C3    C18   S    
C8    C10   A    
N2    Zn1   S    
C1    O1    A    
N1    N2    T    
C7    C9    A    
C6    C8    A    
C18   O2    S    
C3    C5    A    
C16   H3    S    
C4    C19   S    
H2    O4    S    
C17   C21   A    
C9    H8    S    
C12   O5    A    
O11   Zn1   S    
C10   C13   A    
