data_mof_unit_18465.cif
_audit_creation_date              2012-12-11T14:08:41-0500
_audit_creation_method            fapswitch 2.2
_symmetry_space_group_name_H-M    P1
_symmetry_Int_Tables_number       1
_space_group_crystal_system       triclinic
_cell_length_a                    28.108703
_cell_length_b                    7.188402
_cell_length_c                    17.363345
_cell_angle_alpha                 90.243039
_cell_angle_beta                  101.87968
_cell_angle_gamma                 89.932177
_cell_volume                      3433.20610128

loop_
_atom_site_label
_atom_site_type_symbol
_atom_type_description
_atom_site_fract_x
_atom_site_fract_y
_atom_site_fract_z
_atom_type_partial_charge
O1    O     O_R   0.000700 0.436510 0.857920 -0.498534
O2    O     O_R   0.999300 0.563490 0.142080 -0.501888
O3    O     O_R   0.999300 0.936510 0.642080 -0.499641
O4    O     O_R   0.000700 0.063490 0.357920 -0.502131
O5    O     O_R   0.930080 0.766380 0.721890 -0.528278
O6    O     O_R   0.069920 0.233620 0.278110 -0.519089
O7    O     O_R   0.069920 0.266380 0.778110 -0.530626
O8    O     O_R   0.930080 0.733620 0.221890 -0.518581
C1    C     C_R   0.910793 0.597484 0.709859 0.827978
C2    C     C_R   0.089575 0.402213 0.290853 0.804105
C3    C     C_R   0.089172 0.097723 0.790485 0.834316
C4    C     C_R   0.910387 0.902447 0.209198 0.803185
O9    O     O_R   0.996180 0.766230 0.862310 -0.562237
O10   O     O_R   0.003820 0.233770 0.137690 -0.561873
O11   O     O_R   0.003820 0.266230 0.637690 -0.562142
O12   O     O_R   0.996180 0.733770 0.362310 -0.562180
O13   O     O_R   0.065870 0.936460 0.783500 -0.532339
O14   O     O_R   0.934130 0.063540 0.216500 -0.519651
O15   O     O_R   0.934130 0.436460 0.716500 -0.530197
O16   O     O_R   0.065870 0.563540 0.283500 -0.520360
C5    C     C_R   0.999225 0.596635 0.894710 0.694098
C6    C     C_R   0.000719 0.403362 0.105274 0.680893
C7    C     C_R   0.000677 0.096299 0.605354 0.698919
C8    C     C_R   0.999388 0.903699 0.394665 0.682038
O17   O     O_3   0.022790 0.603020 0.723980 -0.370116
O18   O     O_3   0.977210 0.396980 0.276020 -0.362316
O19   O     O_3   0.977210 0.103020 0.776020 -0.367827
O20   O     O_3   0.022790 0.896980 0.223980 -0.362420
V1    V     V_3+5 0.995770 0.877900 0.754830 1.580610
V2    V     V_3+5 0.004230 0.122100 0.245170 1.609246
V3    V     V_3+5 0.004230 0.377900 0.745170 1.579447
V4    V     V_3+5 0.995770 0.622100 0.254830 1.608210
C9    C     C_2   0.996627 0.082902 0.518053 0.153611
C10   C     C_2   0.003522 0.917145 0.481989 0.161767
C11   C     C_2   0.003039 0.583307 0.982069 0.154205
C12   C     C_2   0.996833 0.416728 0.017894 0.163586
C13   C     C_R   0.681697 0.932924 0.023334 0.779786
C14   C     C_R   0.312379 0.969105 0.959250 0.741513
C15   C     C_R   0.318389 0.442294 0.470962 0.770760
C16   C     C_R   0.687456 0.479703 0.538219 0.735317
O21   O     O_2   0.711921 0.941982 0.972335 -0.443014
O22   O     O_2   0.280966 0.965792 0.008361 -0.451251
O23   O     O_2   0.288392 0.473715 0.521120 -0.447381
O24   O     O_2   0.718321 0.481202 0.488131 -0.455533
N1    N     N_R   0.700786 0.942473 0.102511 -0.530030
N2    N     N_R   0.294658 0.977862 0.879212 -0.541866
N3    N     N_R   0.299121 0.427209 0.392200 -0.525324
N4    N     N_R   0.705675 0.469573 0.617885 -0.538550
C17   C     C_R   0.670611 0.949526 0.155326 0.721140
C18   C     C_R   0.323312 0.897871 0.832848 0.676650
C19   C     C_R   0.328539 0.399497 0.339295 0.707121
C20   C     C_R   0.676803 0.381001 0.661237 0.676909
C21   C     C_R   0.779163 0.083150 0.175881 -0.177007
C22   C     C_R   0.218118 0.999740 0.771236 -0.186374
C23   C     C_R   0.221449 0.573026 0.320342 -0.169181
C24   C     C_R   0.782370 0.478693 0.725917 -0.191034
C25   C     C_R   0.829917 0.062833 0.207034 0.188610
C26   C     C_R   0.166969 0.988308 0.759110 0.163374
C27   C     C_R   0.170336 0.557577 0.291426 0.187077
C28   C     C_R   0.833564 0.473237 0.737904 0.165144
C29   C     C_R   0.830851 0.773629 0.133583 0.158132
C30   C     C_R   0.169974 0.196043 0.870665 0.160380
C31   C     C_R   0.168801 0.270770 0.365509 0.166017
C32   C     C_R   0.829349 0.701018 0.633771 0.164189
C33   C     C_R   0.779247 0.779570 0.111495 0.312503
C34   C     C_R   0.221429 0.173377 0.891157 0.330713
C35   C     C_R   0.220414 0.272512 0.385853 0.300430
C36   C     C_R   0.778088 0.674547 0.612394 0.329241
C37   C     C_R   0.753417 0.936257 0.130227 0.254406
C38   C     C_R   0.244913 0.047914 0.847339 0.236267
C39   C     C_R   0.246594 0.425322 0.365622 0.263376
C40   C     C_R   0.755294 0.537877 0.651771 0.234323
C41   C     C_R   0.599558 0.931817 0.048390 -0.132504
C42   C     C_R   0.394610 0.927425 0.937399 -0.138124
C43   C     C_R   0.400172 0.416576 0.445615 -0.129768
C44   C     C_R   0.605243 0.435046 0.558833 -0.140398
C45   C     C_R   0.631020 0.910473 0.995137 -0.091343
C46   C     C_R   0.363016 0.949822 0.990366 -0.090828
C47   C     C_R   0.368908 0.421268 0.499758 -0.094222
C48   C     C_R   0.636665 0.477414 0.507835 -0.138659
C49   C     C_R   0.611577 0.858863 0.916388 0.358377
C50   C     C_R   0.382264 0.944068 0.072247 0.385530
C51   C     C_R   0.388365 0.391584 0.580347 0.357994
C52   C     C_R   0.617020 0.533744 0.430320 0.436248
C53   C     C_R   0.619524 0.967521 0.128837 -0.029383
C54   C     C_R   0.374458 0.902551 0.856497 -0.032622
C55   C     C_R   0.380065 0.410546 0.363660 -0.043153
C56   C     C_R   0.625637 0.390242 0.638023 -0.032709
C57   C     C_R   0.856107 0.912232 0.183459 -0.135342
C58   C     C_R   0.142830 0.087560 0.809490 -0.128923
C59   C     C_R   0.143813 0.410248 0.316142 -0.136190
C60   C     C_R   0.857131 0.585668 0.691239 -0.131869
C61   C     C_R   0.477177 0.887931 0.912557 0.107877
C62   C     C_R   0.516724 0.946600 0.074111 0.111576
C63   C     C_R   0.522767 0.390315 0.582816 0.107840
C64   C     C_R   0.483085 0.433114 0.420559 0.065021
C65   C     C_R   0.465294 0.927162 0.047449 0.000201
C66   C     C_R   0.528658 0.874096 0.941290 0.004633
C67   C     C_R   0.534151 0.462866 0.449351 -0.089108
C68   C     C_R   0.471088 0.385285 0.554919 0.000100
C69   C     C_R   0.445823 0.916355 0.965785 0.059465
C70   C     C_R   0.548217 0.919259 0.021027 0.055880
C71   C     C_R   0.553935 0.428394 0.530069 0.066756
C72   C     C_R   0.451585 0.415687 0.473983 0.074060
C73   C     C_R   0.456176 0.880873 0.831579 -0.192513
C74   C     C_R   0.537265 0.005509 0.151334 -0.137598
C75   C     C_R   0.544240 0.371914 0.663306 -0.198829
C76   C     C_R   0.462792 0.406831 0.340013 -0.255504
C77   C     C_R   0.405948 0.877316 0.803236 -0.058449
C78   C     C_R   0.587586 0.016275 0.179317 0.000452
C79   C     C_R   0.594316 0.358598 0.690747 -0.061697
C80   C     C_R   0.412487 0.402711 0.310658 -0.054559
O25   O     O_2   0.303086 0.793972 0.770054 -0.490642
O26   O     O_2   0.689973 0.934458 0.232794 -0.483541
O27   O     O_2   0.696718 0.266754 0.720282 -0.494687
O28   O     O_2   0.307679 0.357661 0.264280 -0.478910
C81   C     C_R   0.561532 0.816597 0.893402 -0.132263
C82   C     C_R   0.432593 0.913060 0.099713 -0.161638
C83   C     C_R   0.437764 0.341542 0.603936 -0.139694
C84   C     C_R   0.566024 0.533341 0.401767 -0.134622
H1    H     H_    0.478697 0.884101 0.788358 0.143425
H2    H     H_    0.514071 0.053865 0.189883 0.075153
H3    H     H_    0.522560 0.375058 0.707538 0.146011
H4    H     H_    0.486101 0.385414 0.298434 0.152042
O29   O     O_3   0.983623 0.239684 0.472256 -0.641692
H5    H     H_    0.975136 0.342398 0.505088 0.299587
O30   O     O_3   0.016601 0.760437 0.527796 -0.637199
H6    H     H_    0.025118 0.657805 0.494949 0.299357
O31   O     O_3   0.015139 0.741018 0.028150 -0.641636
H7    H     H_    0.023216 0.844175 0.995541 0.299354
O32   O     O_3   0.984666 0.259078 0.971803 -0.636834
H8    H     H_    0.976557 0.155997 0.004422 0.298197
O33   O     O_3   0.857508 0.637085 0.105445 -0.633357
H9    H     H_    0.840537 0.602538 0.051482 0.301442
O34   O     O_3   0.145366 0.319486 0.909551 -0.638492
H10   H     H_    0.166389 0.428995 0.925944 0.308284
O35   O     O_3   0.141889 0.137773 0.394824 -0.633288
H11   H     H_    0.159922 0.099056 0.447474 0.302979
O36   O     O_3   0.853143 0.834558 0.598943 -0.637485
H12   H     H_    0.831520 0.943862 0.586392 0.307665
O37   O     O_3   0.752650 0.635079 0.071026 -0.595033
H13   H     H_    0.772635 0.520763 0.076683 0.313580
O38   O     O_3   0.249643 0.278566 0.950080 -0.604456
H14   H     H_    0.230754 0.304661 0.991152 0.334739
O39   O     O_3   0.246723 0.127729 0.426125 -0.606611
H15   H     H_    0.226817 0.013148 0.418374 0.305365
O40   O     O_3   0.749354 0.786424 0.557041 -0.611758
H16   H     H_    0.768029 0.821570 0.516802 0.330748
O41   O     O_3   0.642685 0.830074 0.865385 -0.552432
H17   H     H_    0.624974 0.858109 0.811252 0.296585
O42   O     O_3   0.350965 0.954697 0.124012 -0.565417
H18   H     H_    0.368945 0.000685 0.175586 0.288277
O43   O     O_3   0.357529 0.385003 0.632842 -0.555343
H19   H     H_    0.376467 0.414687 0.686147 0.294895
O44   O     O_3   0.648030 0.604301 0.385438 -0.547907
H20   H     H_    0.635769 0.728609 0.366316 0.319832
O45   O     O_3   0.139613 0.903869 0.692972 -0.633931
H21   H     H_    0.160473 0.812925 0.672390 0.301148
O46   O     O_3   0.855130 0.190363 0.259645 -0.620463
H22   H     H_    0.834409 0.225388 0.297118 0.294973
O47   O     O_3   0.861375 0.380736 0.801143 -0.631534
H23   H     H_    0.841168 0.282221 0.818092 0.299052
O48   O     O_3   0.145206 0.685029 0.239036 -0.621071
H24   H     H_    0.166029 0.721080 0.201985 0.296091
C85   C     C_2   0.238302 0.038840 0.700253 0.624008
H25   H     H_    0.222274 0.977867 0.643643 0.051148
O49   O     O_2   0.271848 0.148435 0.703614 -0.458747
C86   C     C_2   0.754806 0.263403 0.187147 0.531219
H26   H     H_    0.773156 0.368678 0.227256 0.066568
O50   O     O_2   0.714623 0.302500 0.148793 -0.492240
C87   C     C_2   0.762030 0.500466 0.797938 0.625684
H27   H     H_    0.777501 0.426358 0.851523 0.050854
O51   O     O_2   0.729021 0.610317 0.799211 -0.456143
C88   C     C_2   0.246838 0.749074 0.306905 0.504225
H28   H     H_    0.226770 0.864305 0.275753 0.067725
O52   O     O_2   0.290146 0.772733 0.332956 -0.503876
C89   C     C_2   0.389315 0.856983 0.716730 0.535079
H29   H     H_    0.409585 0.768153 0.684238 0.036376
O53   O     O_2   0.355481 0.948023 0.680239 -0.456253
C90   C     C_2   0.603954 0.096736 0.259221 0.567926
H30   H     H_    0.583537 0.068232 0.304578 -0.022647
O54   O     O_2   0.637927 0.205784 0.273610 -0.448778
C91   C     C_2   0.610918 0.326118 0.776532 0.530929
H31   H     H_    0.590112 0.234321 0.806594 0.028603
O55   O     O_2   0.645331 0.410436 0.815371 -0.453144
C92   C     C_2   0.396948 0.398936 0.223773 0.569794
H32   H     H_    0.415171 0.306609 0.189490 -0.003043
O56   O     O_2   0.367047 0.509544 0.189421 -0.461467
C93   C     C_2   0.547017 0.675300 0.830313 0.380808
H33   H     H_    0.561968 0.677070 0.777659 0.052751
O57   O     O_2   0.518531 0.551744 0.837808 -0.540531
C94   C     C_2   0.447896 0.814442 0.175418 0.433009
H34   H     H_    0.436478 0.859891 0.228396 0.021129
O58   O     O_2   0.472522 0.673971 0.177815 -0.509100
C95   C     C_2   0.449632 0.200011 0.666894 0.379873
H35   H     H_    0.435068 0.209784 0.719863 0.068983
O59   O     O_2   0.475355 0.067198 0.658859 -0.548348
C96   C     C_2   0.546789 0.633217 0.327451 0.383759
H36   H     H_    0.515407 0.723204 0.323615 0.063591
O60   O     O_2   0.565156 0.613171 0.270010 -0.474907

loop_
_geom_bond_atom_site_label_1
_geom_bond_atom_site_label_2
_ccdc_geom_bond_type
O17   V3    S    
C67   C71   A    
C87   H27   S    
O1    C5    A    
C85   H25   S    
C23   C27   A    
O19   V1    S    
O13   V1    S    
O3    C7    A    
O40   H16   S    
C75   H3    S    
C48   C52   A    
O4    V2    S    
O15   V3    S    
O39   H15   S    
C29   O33   S    
O34   H10   S    
C34   C38   A    
O7    C3    A    
C87   O51   D    
O45   H21   S    
C25   C57   A    
C55   C80   A    
C32   C36   A    
O9    V1    S    
O10   V2    S    
C14   O22   S    
N4    C20   A    
C91   O55   D    
C80   C92   S    
O4    C8    A    
C52   O44   S    
C33   C37   A    
C86   O50   D    
O38   H14   S    
C64   C67   A    
C49   C81   A    
O1    V3    S    
C52   C84   A    
O2    V4    S    
C51   C83   A    
C65   C82   A    
O3    V1    S    
C88   H28   S    
C73   C77   A    
C61   C73   A    
C67   C84   A    
C56   C79   A    
C82   C94   S    
C1    O15   A    
C68   C72   A    
C62   C74   A    
O48   H24   S    
C63   C71   A    
C10   O30   S    
C24   C40   A    
O2    C6    A    
C84   C96   S    
O42   H18   S    
C16   C48   A    
C96   H36   S    
O14   V2    S    
C45   C49   A    
C11   O31   S    
C83   C95   S    
C50   O42   S    
C36   C40   A    
C44   C71   A    
O11   C7    A    
C17   O26   S    
C25   O46   S    
C21   C37   A    
O12   C8    A    
C31   O35   S    
C31   C59   A    
N4    C40   S    
O16   V4    S    
C1    C60   S    
C9    O29   S    
C29   C57   A    
O47   H23   S    
O5    V1    S    
C28   C60   A    
C31   C35   A    
O7    V3    S    
C30   C34   A    
N1    C37   S    
O8    V4    S    
C17   C53   A    
C4    C57   S    
C20   C56   A    
C54   C77   A    
C9    C10   D    
C53   C78   A    
C12   O32   S    
C61   C69   A    
C21   C25   A    
O18   V4    S    
C15   O23   S    
C34   O38   S    
C14   C46   A    
C62   C65   A    
C7    C9    S    
C41   C70   A    
C66   C70   A    
C13   C45   A    
C8    C10   S    
C35   O39   S    
C76   C80   A    
C11   C12   D    
C94   O58   D    
C30   O34   S    
C91   H31   S    
C23   C88   S    
O5    C1    A    
C29   C33   A    
O33   H9    S    
C33   O37   S    
C46   C50   A    
C21   C86   S    
O46   H22   S    
C22   C38   A    
C78   C90   S    
O8    C4    A    
C41   C53   A    
C74   H2    S    
C79   C91   S    
C28   O47   S    
C73   H1    S    
C68   C83   A    
C27   C59   A    
C42   C54   A    
C26   C58   A    
N3    C39   S    
C36   O40   S    
C63   C75   A    
C42   C69   A    
C5    C11   S    
C43   C55   A    
C86   H26   S    
O6    V2    S    
C2    C59   S    
C19   C55   A    
C24   C87   S    
O29   H5    S    
C22   C26   A    
C43   C47   A    
C50   C82   A    
C22   C85   S    
C13   N1    A    
O30   H6    S    
N2    C38   S    
C90   H30   S    
C66   C81   A    
C15   N3    A    
O31   H7    S    
C74   C78   A    
C20   O27   S    
C16   N4    A    
C44   C56   A    
C3    O13   A    
C90   O54   D    
C63   C68   A    
C75   C79   A    
C44   C48   A    
C26   O45   S    
O6    C2    A    
N3    C19   A    
O36   H12   S    
O11   V3    S    
C51   O43   S    
O12   V4    S    
C6    C12   S    
O35   H11   S    
N2    C18   A    
C19   O28   S    
C18   O25   S    
C94   H34   S    
O10   C6    A    
C64   C72   A    
C92   H32   S    
O41   H17   S    
O9    C5    A    
C47   C51   A    
C3    C58   S    
C43   C72   A    
C2    O16   A    
C49   O41   S    
C30   C58   A    
O20   V2    S    
C88   O52   D    
C89   O53   D    
N1    C17   A    
C76   H4    S    
C35   C39   A    
C13   O21   S    
C93   H33   S    
C65   C69   A    
C14   N2    A    
C27   O48   S    
C18   C54   A    
C95   H35   S    
C77   C89   S    
C16   O24   S    
C24   C28   A    
C62   C70   A    
C81   C93   S    
C85   O49   D    
C89   H29   S    
C42   C46   A    
C4    O14   A    
O44   H20   S    
C41   C45   A    
C64   C76   A    
C96   O60   D    
C32   C60   A    
C93   O57   D    
O43   H19   S    
O37   H13   S    
C92   O56   D    
C61   C66   A    
C23   C39   A    
O32   H8    S    
C15   C47   A    
C95   O59   D    
C32   O36   S    
