data_mof_unit_33421.cif
_audit_creation_date              2012-10-26T18:33:27-0400
_audit_creation_method            fapswitch 2.2
_symmetry_space_group_name_H-M    P1
_symmetry_Int_Tables_number       1
_space_group_crystal_system       triclinic
_cell_length_a                    15.107791
_cell_length_b                    13.696383
_cell_length_c                    10.874951
_cell_angle_alpha                 89.777303
_cell_angle_beta                  83.59878
_cell_angle_gamma                 89.933899
_cell_volume                      2236.22093907

loop_
_atom_site_label
_atom_site_type_symbol
_atom_type_description
_atom_site_fract_x
_atom_site_fract_y
_atom_site_fract_z
_atom_type_partial_charge
C1    C     C_R   0.328288 0.500197 0.503421 0.578195
C2    C     C_R   0.022153 0.511250 0.724488 0.170297
C3    C     C_R   0.081355 0.508256 0.613211 -0.042016
C4    C     C_R   0.495369 0.499974 0.259945 0.580720
C5    C     C_R   0.046557 0.508025 0.497883 0.025191
C6    C     C_R   0.104686 0.504018 0.386389 0.025862
C7    C     C_R   0.070199 0.505393 0.272837 -0.084853
C8    C     C_R   0.978769 0.505289 0.268541 -0.024982
C9    C     C_R   0.174659 0.507770 0.613126 -0.073466
C10   C     C_R   0.231649 0.501191 0.502511 0.004808
C11   C     C_R   0.196647 0.499665 0.389587 -0.100729
C12   C     C_3   0.583774 0.502239 0.911738 -0.340936
C13   C     C_R   0.424251 0.794177 0.539456 0.099510
C14   C     C_R   0.423820 0.205784 0.537680 0.129220
C15   C     C_R   0.576984 0.792728 0.461006 0.106878
C16   C     C_R   0.577310 0.207278 0.464847 0.129576
C17   C     C_R   0.581244 0.896396 0.459749 -0.040514
C18   C     C_R   0.582021 0.103956 0.469005 -0.048293
C19   C     C_R   0.671750 0.499954 0.491442 0.591037
C20   C     C_R   0.502790 0.948309 0.500638 0.018212
C21   C     C_R   0.502654 0.051690 0.501402 0.012769
C22   C     C_R   0.423540 0.896841 0.539446 0.020414
C23   C     C_R   0.826176 0.489799 0.375225 0.223908
C24   C     C_R   0.423098 0.103055 0.538209 0.025193
C25   C     C_R   0.661378 0.949180 0.422652 0.246528
C26   C     C_R   0.663386 0.052235 0.442157 0.241297
C27   C     C_R   0.344813 0.050990 0.576221 -0.082387
C28   C     C_R   0.345144 0.948782 0.577455 -0.094467
C29   C     C_R   0.493042 0.499736 0.740352 0.604944
C30   C     C_3   0.446360 0.597640 0.077812 0.063009
C31   C     C_3   0.429846 0.411861 0.080240 0.055653
C32   C     C_3   0.440325 0.593498 0.936021 0.122086
C33   C     C_3   0.444752 0.402113 0.937260 0.135814
C34   C     C_R   0.768915 0.500225 0.486551 0.000516
C35   C     C_3   0.584855 0.488261 0.052037 -0.218489
C36   C     C_3   0.490103 0.499436 0.122005 -0.109953
C37   C     C_3   0.486511 0.498908 0.878038 -0.080443
C38   C     C_R   0.803723 0.515102 0.597929 -0.092673
C39   C     C_R   0.895752 0.519130 0.603944 -0.011142
C40   C     C_R   0.953708 0.508917 0.493488 -0.016847
C41   C     C_R   0.919097 0.500971 0.377968 0.026176
C42   C     C_R   0.930715 0.530794 0.718265 0.257310
Cu1   Cu    Cu3+1 0.499990 0.597420 0.500010 1.070584
Cu2   Cu    Cu3+1 0.499990 0.402580 0.500010 1.129896
H1    H     H_    0.203611 0.516053 0.698168 0.234649
H2    H     H_    0.614886 0.689054 0.199675 0.381070
H3    H     H_    0.573622 0.240431 0.089768 0.355640
H4    H     H_    0.114405 0.620745 0.874196 0.343386
H5    H     H_    0.114091 0.506164 0.186867 0.208221
H6    H     H_    0.956217 0.510593 0.178169 0.252774
H7    H     H_    0.364070 0.754623 0.571083 0.158023
H8    H     H_    0.363246 0.245297 0.567239 0.169875
H9    H     H_    0.635673 0.750159 0.434292 0.191282
H10   H     H_    0.635101 0.249208 0.431170 0.189823
H11   H     H_    0.878176 0.925617 0.231604 0.384159
H12   H     H_    0.241279 0.496280 0.304254 0.122286
H13   H     H_    0.900868 0.077499 0.484917 0.380138
H14   H     H_    0.236697 0.738734 0.940783 0.369055
H15   H     H_    0.236726 0.270956 0.967778 0.396732
H16   H     H_    0.478881 0.654960 0.890125 0.197142
H17   H     H_    0.496921 0.345156 0.916199 0.154186
H18   H     H_    0.615734 0.573082 0.882644 0.183429
H19   H     H_    0.625151 0.444214 0.861987 0.163890
H20   H     H_    0.694544 0.336905 0.253871 0.383616
H21   H     H_    0.753885 0.681188 0.880121 0.395979
H22   H     H_    0.283353 0.089361 0.605508 0.144717
H23   H     H_    0.283880 0.910287 0.607568 0.133788
H24   H     H_    0.377956 0.599612 0.127682 0.161283
H25   H     H_    0.359617 0.433406 0.107697 0.172948
H26   H     H_    0.631847 0.540207 0.085923 0.251056
H27   H     H_    0.610988 0.414332 0.067668 0.217661
H28   H     H_    0.757055 0.518596 0.680709 0.177505
N1    N     N_R   0.499930 0.743810 0.499950 -0.246868
N2    N     N_R   0.499930 0.256190 0.499950 -0.239264
O1    O     O_R   0.370250 0.582280 0.500040 -0.498305
O2    O     O_2   0.451724 0.749860 0.239263 -0.248906
O3    O     O_3   0.605087 0.710373 0.115258 -0.476106
O4    O     O_2   0.382064 0.285885 0.270467 -0.236376
O5    O     O_2   0.407452 0.212435 0.067671 -0.200532
O6    O     O_3   0.545427 0.263756 0.170961 -0.513285
O7    O     O_2   0.983690 0.427958 0.949403 -0.156177
O8    O     O_2   0.132971 0.403021 0.848281 -0.207695
O9    O     O_3   0.092538 0.574606 0.941074 -0.452553
O10   O     O_2   0.804815 0.835799 0.438163 -0.238860
O11   O     O_2   0.726312 0.814455 0.255265 -0.260882
O12   O     O_R   0.370250 0.417720 0.500040 -0.482449
O13   O     O_3   0.825474 0.965486 0.261585 -0.405548
O14   O     O_2   0.796115 0.162891 0.331321 -0.228399
O15   O     O_2   0.753414 0.191729 0.551957 -0.294866
O16   O     O_3   0.845669 0.037963 0.491666 -0.416490
O17   O     O_2   0.321964 0.619091 0.767931 -0.313828
O18   O     O_2   0.265917 0.543354 0.967353 -0.220422
O19   O     O_3   0.298227 0.728683 0.961611 -0.467340
O20   O     O_2   0.318986 0.412309 0.772924 -0.229055
O21   O     O_2   0.375925 0.252112 0.819810 -0.293277
O22   O     O_3   0.263899 0.334412 0.985755 -0.424895
O23   O     O_R   0.499970 0.582270 0.317700 -0.484198
O24   O     O_2   0.776670 0.553760 0.162853 -0.224078
O25   O     O_2   0.844081 0.391039 0.159041 -0.210917
O26   O     O_3   0.682814 0.407959 0.259156 -0.543545
O27   O     O_2   0.805961 0.492683 0.907392 -0.232395
O28   O     O_2   0.913763 0.620443 0.943803 -0.175289
O29   O     O_3   0.792134 0.662407 0.803901 -0.523578
O30   O     O_R   0.499970 0.417730 0.317700 -0.393058
O31   O     O_R   0.629730 0.582260 0.499980 -0.520501
O32   O     O_R   0.629730 0.417740 0.499980 -0.492277
O33   O     O_R   0.500000 0.582270 0.682320 -0.490657
O34   O     O_R   0.500000 0.417730 0.682320 -0.479125
O35   O     O_2   0.474241 0.791915 0.022629 -0.174843
S1    S     S_3+6 0.494014 0.715451 0.115345 0.058921
S2    S     S_3+6 0.439681 0.290423 0.148657 0.049156
S3    S     S_3+6 0.058505 0.475667 0.868452 0.095554
S4    S     S_3+6 0.755892 0.887872 0.344228 0.090761
S5    S     S_3+6 0.766139 0.114737 0.453312 0.071828
S6    S     S_3+6 0.328072 0.618055 0.904618 0.012878
S7    S     S_3+6 0.349176 0.350120 0.873755 0.100383
S8    S     S_3+6 0.783150 0.460596 0.234439 0.030013
S9    S     S_3+6 0.860712 0.575834 0.849516 0.079620

loop_
_geom_bond_atom_site_label_1
_geom_bond_atom_site_label_2
_ccdc_geom_bond_type
Cu1   N1    S    
C4    C36   S    
C9    H1    S    
O10   S4    D    
C8    H6    S    
C18   C21   A    
C35   C36   S    
C18   C26   A    
C24   C27   A    
Cu2   O30   S    
C7    C8    A    
C2    S3    S    
C30   S1    S    
C16   N2    A    
O27   S9    D    
C15   H9    S    
H14   O19   S    
O19   S6    S    
C38   C39   A    
C17   C20   A    
Cu1   O31   S    
C14   C24   A    
C12   C37   S    
C13   H7    S    
C14   H8    S    
C35   H26   S    
C30   C36   S    
C31   C33   S    
C29   O34   A    
O4    S2    D    
C9    C10   A    
O28   S9    D    
C35   H27   S    
C22   C28   A    
C4    O23   A    
O14   S5    D    
H3    O6    S    
Cu2   O12   S    
C39   C42   A    
Cu2   O34   S    
Cu1   O1    S    
C38   H28   S    
H13   O16   S    
C1    O1    A    
C28   H23   S    
C8    C41   A    
C7    H5    S    
C39   C40   A    
C12   H19   S    
O20   S7    D    
C42   S9    S    
C25   C26   A    
C33   C37   S    
O8    S3    D    
Cu1   Cu2   S    
C26   S5    S    
C3    C9    A    
C25   S4    S    
O25   S8    D    
C12   H18   S    
O7    S3    D    
C31   H25   S    
O21   S7    D    
C23   C34   A    
H21   O29   S    
Cu1   O33   S    
C32   C37   S    
C12   C35   S    
Cu2   N2    S    
C19   O31   A    
C33   H17   S    
C40   C41   A    
C15   N1    A    
C20   C22   A    
C5    C40   A    
O29   S9    S    
H15   O22   S    
C32   H16   S    
C14   N2    A    
C6    C11   A    
O24   S8    D    
C1    O12   A    
C15   C17   A    
O15   S5    D    
C33   S7    S    
C34   C38   A    
O22   S7    S    
C1    C10   S    
Cu1   O23   S    
C13   N1    A    
C3    C5    A    
C19   C34   S    
C23   S8    S    
H2    O3    S    
C6    C7    A    
Cu2   O32   S    
C23   C41   A    
H4    O9    S    
O5    S2    D    
C17   C25   A    
O11   S4    D    
C2    C3    A    
C27   H22   S    
O35   S1    D    
C30   C32   S    
C5    C6    A    
C2    C42   A    
O9    S3    S    
C4    O30   A    
O6    S2    S    
O17   S6    D    
C13   C22   A    
O2    S1    D    
O16   S5    S    
C32   S6    S    
H11   O13   S    
O3    S1    S    
O18   S6    D    
C16   H10   S    
O13   S4    S    
C10   C11   A    
C19   O32   A    
H20   O26   S    
C20   C21   A    
C16   C18   A    
C21   C24   A    
C29   C37   S    
C27   C28   A    
C31   S2    S    
C31   C36   S    
C29   O33   A    
O26   S8    S    
C30   H24   S    
C11   H12   S    
