data_mof_unit_45746.cif
_audit_creation_date              2012-12-10T18:23:10-0500
_audit_creation_method            fapswitch 2.2
_symmetry_space_group_name_H-M    P1
_symmetry_Int_Tables_number       1
_space_group_crystal_system       triclinic
_cell_length_a                    15.028897
_cell_length_b                    14.221038
_cell_length_c                    10.49452
_cell_angle_alpha                 89.925218
_cell_angle_beta                  86.903515
_cell_angle_gamma                 90.126821
_cell_volume                      2239.67467469

loop_
_atom_site_label
_atom_site_type_symbol
_atom_type_description
_atom_site_fract_x
_atom_site_fract_y
_atom_site_fract_z
_atom_type_partial_charge
C1    C     C_R   0.326748 0.500002 0.500882 0.900249
C2    C     C_R   0.951706 0.330076 0.552480 0.294898
C3    C     C_R   0.555986 0.799326 0.415063 0.208142
C4    C     C_R   0.444296 0.200634 0.585258 0.207422
C5    C     C_R   0.443663 0.798799 0.584539 0.229648
C6    C     C_R   0.556123 0.201198 0.415156 0.240910
C7    C     C_R   0.442253 0.899008 0.585190 -0.030607
C8    C     C_R   0.557668 0.100980 0.414645 -0.027461
C9    C     C_R   0.557629 0.899517 0.414660 -0.027102
C10   C     C_R   0.442480 0.100453 0.585409 -0.025696
C11   C     C_R   0.499991 0.949525 0.499973 0.060030
C12   C     C_R   0.673221 0.500024 0.499871 0.903226
C13   C     C_R   0.500013 0.050452 0.499956 0.058432
C14   C     C_R   0.384552 0.950485 0.668910 -0.118385
C15   C     C_R   0.615398 0.049503 0.330955 -0.107759
C16   C     C_R   0.615401 0.951470 0.330984 -0.132310
C17   C     C_R   0.384662 0.048507 0.669027 -0.139336
C18   C     C_R   0.500520 0.500043 0.257643 0.929786
C19   C     C_R   0.499477 0.499959 0.742353 0.928658
C20   C     C_3   0.457586 0.577248 0.045407 -0.193981
C21   C     C_3   0.542398 0.422757 0.954579 -0.190203
C22   C     C_3   0.541916 0.577689 0.954225 -0.193140
C23   C     C_R   0.953628 0.500313 0.504794 0.002993
C24   C     C_3   0.458068 0.422314 0.045761 -0.193761
C25   C     C_3   0.415458 0.499494 0.966116 0.206797
C26   C     C_3   0.584527 0.500510 0.033865 0.209598
C27   C     C_3   0.499228 0.499923 0.877346 -0.086758
C28   C     C_3   0.500759 0.500081 0.122644 -0.085886
C29   C     C_R   0.813544 0.417426 0.528913 -0.130340
C30   C     C_R   0.186013 0.583465 0.479730 -0.103442
C31   C     C_R   0.769378 0.499743 0.499121 -0.101181
C32   C     C_R   0.230481 0.500651 0.506261 -0.103994
C33   C     C_R   0.816461 0.581787 0.469699 -0.133439
C34   C     C_R   0.045879 0.501606 0.510649 -0.007290
C35   C     C_R   0.183485 0.419192 0.539415 -0.139927
C36   C     C_R   0.908726 0.583883 0.472297 0.002359
C37   C     C_R   0.090948 0.417988 0.542152 0.019116
C38   C     C_R   0.906176 0.414863 0.527473 -0.034352
C39   C     C_R   0.093384 0.586849 0.487086 -0.040762
C40   C     C_R   0.956088 0.668247 0.446214 0.096591
C41   C     C_R   0.043463 0.334349 0.572002 0.091431
C42   C     C_R   0.047712 0.672129 0.466078 0.369973
H1    H     H_    0.422959 0.640167 0.086109 0.192512
H2    H     H_    0.662002 0.083365 0.263854 0.190220
H3    H     H_    0.662106 0.918011 0.263979 0.191238
H4    H     H_    0.337947 0.081960 0.736023 0.191938
H5    H     H_    0.066719 0.927574 0.517766 0.410785
H6    H     H_    0.852294 0.231702 0.358720 0.371278
H7    H     H_    0.577027 0.359840 0.913873 0.194294
H8    H     H_    0.576173 0.640976 0.913258 0.190507
H9    H     H_    0.423814 0.359025 0.086722 0.189843
H10   H     H_    0.774352 0.356875 0.558813 0.234415
H11   H     H_    0.224704 0.643663 0.446941 0.219126
H12   H     H_    0.779832 0.644600 0.449722 0.199930
H13   H     H_    0.220152 0.355995 0.557312 0.199781
H14   H     H_    0.337928 0.916637 0.735991 0.193574
I1    I     I_    0.279459 0.498685 0.916075 -0.247146
I2    I     I_    0.720550 0.501304 0.083758 -0.257728
I3    I     I_    0.892268 0.785402 0.358522 -0.115533
I4    I     I_    0.107853 0.220200 0.665451 -0.148509
I5    I     I_    0.640584 0.726720 0.278465 -0.290156
I6    I     I_    0.360752 0.273093 0.723167 -0.294362
I7    I     I_    0.356852 0.725114 0.718306 -0.206684
I8    I     I_    0.642293 0.274871 0.280569 -0.251866
N1    N     N_R   0.500000 0.750030 0.500000 -0.149216
N2    N     N_R   0.500000 0.249970 0.500000 -0.147604
O1    O     O_R   0.367850 0.580280 0.500030 -0.601387
O2    O     O_2   0.139714 0.809234 0.341577 -0.273288
O3    O     O_3   0.032243 0.868265 0.526900 -0.468960
O4    O     O_2   0.958430 0.139062 0.519151 -0.224040
O5    O     O_2   0.850221 0.201537 0.679680 -0.226195
O6    O     O_3   0.818616 0.218038 0.440421 -0.531500
O7    O     O_R   0.632150 0.419720 0.499970 -0.597795
O8    O     O_R   0.632150 0.580280 0.499970 -0.609600
O9    O     O_R   0.367850 0.419720 0.500030 -0.609901
O10   O     O_R   0.499970 0.580260 0.313950 -0.601988
O11   O     O_R   0.500030 0.419740 0.686050 -0.600468
O12   O     O_R   0.500030 0.580260 0.686050 -0.607640
O13   O     O_R   0.499970 0.419740 0.313950 -0.605976
O14   O     O_2   0.177342 0.780141 0.562502 -0.290592
S1    S     S_3+6 0.102731 0.783735 0.473040 0.062266
S2    S     S_3+6 0.895605 0.218751 0.550653 0.071038
Zn1   Zn    Zn3+2 0.500000 0.607200 0.500000 1.020405
Zn2   Zn    Zn3+2 0.500000 0.392800 0.500000 1.021835

loop_
_geom_bond_atom_site_label_1
_geom_bond_atom_site_label_2
_ccdc_geom_bond_type
C14   H14   S    
C21   C26   S    
O1    Zn1   S    
C8    C13   A    
C12   O8    A    
C34   C37   A    
O8    Zn1   S    
C21   H7    S    
C7    C11   A    
O2    S1    D    
C35   C37   A    
C9    C16   A    
C15   H2    S    
O13   Zn2   S    
O9    Zn2   S    
N1    Zn1   S    
C20   C25   S    
C10   C17   A    
C15   C16   A    
C4    I6    S    
C33   C36   A    
C5    I7    S    
C6    I8    S    
C19   O11   A    
H5    O3    S    
O12   Zn1   S    
C7    C14   A    
C18   O13   A    
C29   C38   A    
C31   C33   A    
C19   C27   S    
O7    Zn2   S    
C22   H8    S    
O5    S2    D    
C24   H9    S    
C40   C42   A    
C21   C27   S    
C40   I3    S    
C12   O7    A    
C14   C17   A    
C3    N1    A    
C42   S1    S    
C25   I1    S    
H6    O6    S    
O10   Zn1   S    
C39   C42   A    
C3    I5    S    
C30   H11   S    
C35   H13   S    
C34   C39   A    
C1    O9    A    
C32   C35   A    
C36   C40   A    
C18   C28   S    
C17   H4    S    
C5    N1    A    
C5    C7    A    
C6    C8    A    
C20   C28   S    
O11   Zn2   S    
C1    C32   S    
C19   O12   A    
C3    C9    A    
C9    C11   A    
C2    C38   A    
C23   C34   A    
C24   C25   S    
C26   I2    S    
C20   C22   S    
C8    C15   A    
C22   C27   S    
C12   C31   S    
C2    S2    S    
C4    C10   A    
C20   H1    S    
C33   H12   S    
C18   O10   A    
C24   C28   S    
C41   I4    S    
O14   S1    D    
C10   C13   A    
C16   H3    S    
C25   C27   S    
C23   C38   A    
C26   C28   S    
C29   C31   A    
C30   C32   A    
C11   C13   A    
C1    O1    A    
C30   C39   A    
C37   C41   A    
O4    S2    D    
O3    S1    S    
N2    Zn2   S    
C6    N2    A    
C4    N2    A    
C23   C36   A    
C22   C26   S    
C21   C24   S    
C2    C41   A    
O6    S2    S    
C29   H10   S    
