data_mof_unit_12890.cif
_audit_creation_date              2012-12-11T15:22:17-0500
_audit_creation_method            fapswitch 2.2
_symmetry_space_group_name_H-M    P1
_symmetry_Int_Tables_number       1
_space_group_crystal_system       triclinic
_cell_length_a                    22.493873
_cell_length_b                    12.958234
_cell_length_c                    26.991424
_cell_angle_alpha                 89.816561
_cell_angle_beta                  90.818329
_cell_angle_gamma                 89.953512
_cell_volume                      7866.63810568

loop_
_atom_site_label
_atom_site_type_symbol
_atom_type_description
_atom_site_fract_x
_atom_site_fract_y
_atom_site_fract_z
_atom_type_partial_charge
C1    C     C_R   0.720302 0.345705 0.178215 0.542444
C2    C     C_R   0.279696 0.345250 0.821844 0.542845
C3    C     C_R   0.220302 0.845706 0.178215 0.542375
C4    C     C_R   0.779697 0.845252 0.821845 0.542836
C5    C     C_R   0.477390 0.163835 0.870968 0.000380
C6    C     C_R   0.521487 0.167319 0.128692 -0.008482
C7    C     C_R   0.977403 0.663827 0.870965 0.000285
C8    C     C_R   0.021482 0.667315 0.128694 -0.008499
C9    C     C_R   0.510661 0.262754 0.103407 0.007287
C10   C     C_R   0.485486 0.258643 0.895719 0.012260
C11   C     C_R   0.010645 0.762752 0.103415 0.007284
C12   C     C_R   0.985521 0.758633 0.895712 0.012132
C13   C     C_R   0.494039 0.259002 0.052425 0.029886
C14   C     C_R   0.484961 0.257507 0.948064 0.026127
C15   C     C_R   0.994056 0.759007 0.052423 0.029879
C16   C     C_R   0.985005 0.757505 0.948058 0.026176
C17   C     C_R   0.495194 0.163517 0.026590 0.021478
C18   C     C_R   0.490733 0.162739 0.974422 0.020233
C19   C     C_R   0.995212 0.663520 0.026588 0.021484
C20   C     C_R   0.990758 0.662738 0.974419 0.020260
C21   C     C_R   0.477107 0.348216 0.025892 -0.148587
C22   C     C_R   0.473857 0.347884 0.974738 -0.146621
C23   C     C_R   0.977153 0.848227 0.025882 -0.148601
C24   C     C_R   0.973921 0.847891 0.974728 -0.146622
C25   C     C_R   0.734562 0.968218 0.127945 0.034118
C26   C     C_R   0.266237 0.969633 0.872298 0.034665
C27   C     C_R   0.234576 0.468186 0.127948 0.034029
C28   C     C_R   0.766218 0.469586 0.872290 0.034855
C29   C     C_R   0.785083 0.919145 0.109728 -0.135755
C30   C     C_R   0.218777 0.911824 0.890263 -0.139099
C31   C     C_R   0.285164 0.419341 0.109719 -0.135644
C32   C     C_R   0.718669 0.412004 0.890262 -0.139006
C33   C     C_R   0.788919 0.898721 0.059057 -0.121197
C34   C     C_R   0.215539 0.891172 0.940973 -0.124623
C35   C     C_R   0.289013 0.398928 0.059048 -0.121147
C36   C     C_R   0.715413 0.391353 0.940970 -0.124489
C37   C     C_R   0.743542 0.931952 0.026288 0.026534
C38   C     C_R   0.258017 0.933098 0.973961 0.025232
C39   C     C_R   0.243576 0.431948 0.026289 0.026575
C40   C     C_R   0.757963 0.433079 0.973954 0.025220
C41   C     C_R   0.692164 0.977284 0.044977 -0.142442
C42   C     C_R   0.306704 0.987159 0.955513 -0.139401
C43   C     C_R   0.192138 0.477056 0.044989 -0.142448
C44   C     C_R   0.806726 0.486921 0.955501 -0.139502
C45   C     C_R   0.553087 0.158318 0.177405 0.534597
C46   C     C_R   0.447431 0.157440 0.822014 0.535710
C47   C     C_R   0.053084 0.658317 0.177406 0.534753
C48   C     C_R   0.947433 0.657438 0.822014 0.536046
C49   C     C_R   0.687671 0.995034 0.095449 -0.128037
C50   C     C_R   0.310870 0.004962 0.904967 -0.125215
C51   C     C_R   0.187635 0.494791 0.095462 -0.128114
C52   C     C_R   0.810910 0.504706 0.904956 -0.125212
C53   C     C_R   0.706940 0.864986 0.945924 -0.143260
C54   C     C_R   0.296280 0.875549 0.055785 -0.141259
C55   C     C_R   0.207012 0.364785 0.945954 -0.143286
C56   C     C_R   0.796208 0.375351 0.055749 -0.141281
C57   C     C_R   0.713897 0.844873 0.895683 -0.140344
C58   C     C_R   0.288639 0.854487 0.105945 -0.138706
C59   C     C_R   0.213954 0.344686 0.895711 -0.140364
C60   C     C_R   0.788589 0.354312 0.105913 -0.138694
C61   C     C_R   0.802583 0.950658 0.896069 -0.112635
C62   C     C_R   0.194516 0.945172 0.102592 -0.113724
C63   C     C_R   0.302517 0.450782 0.896039 -0.112724
C64   C     C_R   0.694567 0.445318 0.102623 -0.113846
C65   C     C_R   0.796908 0.969877 0.946699 0.029918
C66   C     C_R   0.200334 0.963476 0.051911 0.029048
C67   C     C_R   0.296849 0.470011 0.946669 0.029914
C68   C     C_R   0.700363 0.463618 0.051939 0.029071
C69   C     C_R   0.749770 0.922184 0.972364 0.044808
C70   C     C_R   0.250989 0.923972 0.027814 0.044069
C71   C     C_R   0.249786 0.422161 0.972364 0.044824
C72   C     C_R   0.750953 0.423945 0.027808 0.044095
C73   C     C_R   0.763062 0.884549 0.870814 0.007662
C74   C     C_R   0.236602 0.886045 0.129264 0.008577
C75   C     C_R   0.263054 0.384528 0.870813 0.007564
C76   C     C_R   0.736608 0.386041 0.129266 0.008488
C77   C     C_R   0.527819 0.168703 0.370903 0.021853
C78   C     C_R   0.471745 0.169349 0.628936 0.022350
C79   C     C_R   0.027811 0.668496 0.370905 0.021694
C80   C     C_R   0.971748 0.669346 0.628953 0.022139
C81   C     C_R   0.536270 0.260138 0.397967 -0.126809
C82   C     C_R   0.461603 0.259909 0.601279 -0.128533
C83   C     C_R   0.035612 0.760259 0.397826 -0.126958
C84   C     C_R   0.961245 0.759632 0.601185 -0.124432
C85   C     C_R   0.524606 0.262740 0.448458 -0.121572
C86   C     C_R   0.472933 0.262252 0.550720 -0.122791
C87   C     C_R   0.024030 0.762846 0.448334 -0.121112
C88   C     C_R   0.972620 0.761883 0.550640 -0.119011
C89   C     C_R   0.730779 0.002537 0.179251 0.536426
C90   C     C_R   0.269257 0.002290 0.820720 0.535171
C91   C     C_R   0.230778 0.502543 0.179249 0.536807
C92   C     C_R   0.769256 0.502288 0.820720 0.535114
C93   C     C_R   0.503403 0.174466 0.472719 0.035948
C94   C     C_R   0.495490 0.174638 0.526983 0.036232
C95   C     C_R   0.003580 0.674198 0.472758 0.036198
C96   C     C_R   0.995648 0.674497 0.527026 0.036390
C97   C     C_R   0.490954 0.085298 0.444914 -0.119196
C98   C     C_R   0.509511 0.086501 0.555344 -0.115628
C99   C     C_R   0.991785 0.584606 0.445091 -0.120210
C100  C     C_R   0.010020 0.586667 0.555506 -0.118813
C101  C     C_R   0.503393 0.082229 0.394482 -0.128961
C102  C     C_R   0.497398 0.083649 0.605846 -0.122560
C103  C     C_R   0.004109 0.581587 0.394647 -0.130417
C104  C     C_R   0.997786 0.583851 0.605990 -0.128512
C105  C     C_R   0.740411 0.954915 0.371598 0.024630
C106  C     C_R   0.264951 0.980844 0.624008 0.040997
C107  C     C_R   0.237960 0.460451 0.373294 0.025355
C108  C     C_R   0.759500 0.455359 0.628433 0.024470
C109  C     C_R   0.690295 0.919563 0.396970 -0.125999
C110  C     C_R   0.277778 0.883089 0.605172 -0.133018
C111  C     C_R   0.186171 0.435449 0.399255 -0.125374
C112  C     C_R   0.809442 0.418935 0.603218 -0.125824
C113  C     C_R   0.693296 0.903988 0.447604 -0.123257
C114  C     C_R   0.278932 0.868848 0.553918 -0.114750
C115  C     C_R   0.188161 0.423962 0.450164 -0.124955
C116  C     C_R   0.806345 0.402811 0.552642 -0.122877
C117  C     C_R   0.746919 0.920106 0.473389 0.038151
C118  C     C_R   0.269039 0.953173 0.521749 0.031532
C119  C     C_R   0.242315 0.433209 0.475927 0.035145
C120  C     C_R   0.752813 0.419677 0.526743 0.038029
C121  C     C_R   0.798508 0.945483 0.447315 -0.120531
C122  C     C_R   0.259226 0.051450 0.541253 -0.127252
C123  C     C_R   0.295041 0.448925 0.449490 -0.120283
C124  C     C_R   0.701392 0.446433 0.552692 -0.120442
C125  C     C_R   0.795176 0.963670 0.396599 -0.130590
C126  C     C_R   0.256629 0.064739 0.591864 -0.114556
C127  C     C_R   0.292770 0.463883 0.398426 -0.128761
C128  C     C_R   0.704810 0.464997 0.603333 -0.130563
C129  C     C_R   0.783781 0.980067 0.555752 -0.120187
C130  C     C_R   0.217666 0.987960 0.441774 -0.119684
C131  C     C_R   0.284348 0.486386 0.557749 -0.122771
C132  C     C_R   0.716374 0.479731 0.444024 -0.119716
C133  C     C_R   0.721207 0.347053 0.321764 0.544582
C134  C     C_R   0.278378 0.348813 0.678809 0.539649
C135  C     C_R   0.221328 0.847582 0.321636 0.545982
C136  C     C_R   0.778760 0.847331 0.678288 0.543794
C137  C     C_R   0.789938 0.965151 0.606556 -0.130282
C138  C     C_R   0.207108 0.965008 0.392376 -0.128154
C139  C     C_R   0.291924 0.468462 0.608169 -0.129562
C140  C     C_R   0.710298 0.464808 0.393246 -0.129547
C141  C     C_R   0.720260 0.822395 0.601741 -0.126388
C142  C     C_R   0.291038 0.847132 0.393876 -0.127261
C143  C     C_R   0.211715 0.343602 0.605467 -0.141576
C144  C     C_R   0.778923 0.320383 0.398752 -0.126336
C145  C     C_R   0.715328 0.835567 0.551030 -0.123477
C146  C     C_R   0.301816 0.870638 0.443447 -0.122761
C147  C     C_R   0.205485 0.358865 0.554842 -0.130059
C148  C     C_R   0.783817 0.333667 0.449451 -0.123241
C149  C     C_R   0.748492 0.912305 0.527456 0.037713
C150  C     C_R   0.263818 0.938363 0.468095 0.036951
C151  C     C_R   0.243599 0.427002 0.530219 0.038797
C152  C     C_R   0.751172 0.411358 0.472674 0.037697
C153  C     C_R   0.759997 0.883517 0.629410 0.024316
C154  C     C_R   0.242004 0.890976 0.368707 0.024173
C155  C     C_R   0.258031 0.392279 0.631589 0.022630
C156  C     C_R   0.739821 0.382517 0.370722 0.024775
C157  C     C_R   0.554456 0.158848 0.321683 0.543112
C158  C     C_R   0.445509 0.159042 0.678297 0.540580
C159  C     C_R   0.054459 0.658821 0.321684 0.542442
C160  C     C_R   0.945517 0.659038 0.678307 0.541012
C161  C     C_R   0.731762 0.001752 0.322901 0.543324
C162  C     C_R   0.268680 0.004008 0.676427 0.534948
C163  C     C_R   0.231365 0.502719 0.323359 0.543187
C164  C     C_R   0.768255 0.501970 0.677073 0.543400
C165  C     C_R   0.509971 0.074158 0.104142 -0.159522
C166  C     C_R   0.486205 0.071163 0.896884 -0.160075
C167  C     C_R   0.009975 0.574155 0.104140 -0.159520
C168  C     C_R   0.986213 0.571154 0.896882 -0.160069
C169  C     C_R   0.500293 0.069629 0.052886 -0.005702
C170  C     C_R   0.492928 0.068235 0.948553 -0.006025
C171  C     C_R   0.000297 0.569630 0.052885 -0.005707
C172  C     C_R   0.992940 0.568230 0.948552 -0.006026
C173  C     C_R   0.497342 0.972807 0.974742 0.029768
C174  C     C_R   0.498058 0.973392 0.027475 0.028458
C175  C     C_R   0.997339 0.472803 0.974742 0.029721
C176  C     C_R   0.998049 0.473391 0.027474 0.028423
Cr1   Cr    Cr6+3 0.756570 0.170940 0.251190 1.010690
Cr2   Cr    Cr6+3 0.243430 0.170940 0.748810 1.009106
Cr3   Cr    Cr6+3 0.256570 0.670940 0.251190 1.011812
Cr4   Cr    Cr6+3 0.743430 0.670940 0.748810 1.009613
Cr5   Cr    Cr6+3 0.623740 0.299110 0.249580 0.996521
Cr6   Cr    Cr6+3 0.376260 0.299110 0.750420 0.996247
Cr7   Cr    Cr6+3 0.123740 0.799110 0.249580 0.995916
Cr8   Cr    Cr6+3 0.876260 0.799110 0.750420 0.999431
Cr9   Cr    Cr6+3 0.625990 0.036240 0.250480 1.007239
Cr10  Cr    Cr6+3 0.374010 0.036240 0.749520 1.012588
Cr11  Cr    Cr6+3 0.125990 0.536240 0.250480 1.007372
Cr12  Cr    Cr6+3 0.874010 0.536240 0.749520 1.007063
H1    H     H_    0.483613 0.000620 0.876051 0.143113
H2    H     H_    0.514741 0.003848 0.125109 0.144073
H3    H     H_    0.983613 0.500610 0.876051 0.143156
H4    H     H_    0.014749 0.503842 0.125104 0.144106
H5    H     H_    0.839823 0.984134 0.876720 0.121614
H6    H     H_    0.155095 0.973228 0.120791 0.117523
H7    H     H_    0.339700 0.484385 0.876665 0.121485
H8    H     H_    0.655192 0.473497 0.120850 0.117456
H9    H     H_    0.656516 0.002333 0.020302 0.120545
H10   H     H_    0.340259 0.018739 0.980362 0.123027
H11   H     H_    0.156445 0.501946 0.020321 0.120521
H12   H     H_    0.840336 0.518343 0.980346 0.123021
H13   H     H_    0.648590 0.034454 0.108863 0.132249
H14   H     H_    0.347725 0.050471 0.891529 0.132031
H15   H     H_    0.148504 0.534054 0.108881 0.132253
H16   H     H_    0.847829 0.550057 0.891517 0.132138
H17   H     H_    0.555660 0.327810 0.380970 0.132706
H18   H     H_    0.441154 0.326880 0.617892 0.132221
H19   H     H_    0.054422 0.828286 0.380696 0.130676
H20   H     H_    0.940465 0.826403 0.617698 0.134229
H21   H     H_    0.528618 0.018872 0.538274 0.101907
H22   H     H_    0.472889 0.017063 0.462383 0.103397
H23   H     H_    0.029490 0.519227 0.538548 0.100122
H24   H     H_    0.974291 0.516034 0.462663 0.100892
H25   H     H_    0.505768 0.013000 0.626347 0.125040
H26   H     H_    0.496299 0.010883 0.374461 0.122083
H27   H     H_    0.006402 0.513400 0.626581 0.122223
H28   H     H_    0.997529 0.509952 0.374749 0.122488
H29   H     H_    0.534950 0.332387 0.468881 0.099068
H30   H     H_    0.461348 0.331072 0.529861 0.098287
H31   H     H_    0.033844 0.832864 0.468633 0.102261
H32   H     H_    0.960696 0.830427 0.529701 0.099909
H33   H     H_    0.647358 0.912207 0.378629 0.133694
H34   H     H_    0.286203 0.818519 0.629874 0.103595
H35   H     H_    0.143008 0.433068 0.380965 0.137623
H36   H     H_    0.852318 0.410905 0.621625 0.133888
H37   H     H_    0.808117 0.042224 0.538419 0.100903
H38   H     H_    0.187404 0.040015 0.460060 0.101205
H39   H     H_    0.312268 0.543162 0.539989 0.095961
H40   H     H_    0.692413 0.542532 0.461056 0.101025
H41   H     H_    0.820448 0.013586 0.627403 0.122221
H42   H     H_    0.169203 0.000265 0.373771 0.125646
H43   H     H_    0.326929 0.509100 0.627971 0.122136
H44   H     H_    0.680228 0.513945 0.372139 0.121808
H45   H     H_    0.652788 0.884910 0.466784 0.098844
H46   H     H_    0.286230 0.792050 0.539498 0.106644
H47   H     H_    0.146718 0.412966 0.469380 0.100190
H48   H     H_    0.846726 0.382651 0.533560 0.099115
H49   H     H_    0.688063 0.781871 0.530107 0.098968
H50   H     H_    0.338391 0.833288 0.462932 0.098580
H51   H     H_    0.173422 0.312159 0.534785 0.095442
H52   H     H_    0.810676 0.279474 0.470653 0.099031
H53   H     H_    0.696764 0.758415 0.618396 0.135087
H54   H     H_    0.318859 0.790115 0.376277 0.127432
H55   H     H_    0.183980 0.286225 0.623011 0.124006
H56   H     H_    0.801988 0.255772 0.382370 0.135076
H57   H     H_    0.840876 0.954654 0.466348 0.099859
H58   H     H_    0.253240 0.118087 0.517340 0.112115
H59   H     H_    0.337776 0.452531 0.468374 0.100193
H60   H     H_    0.659084 0.456295 0.533606 0.100062
H61   H     H_    0.834470 0.989963 0.377574 0.121883
H62   H     H_    0.250086 0.141651 0.606145 0.130478
H63   H     H_    0.333206 0.482633 0.379036 0.120662
H64   H     H_    0.665637 0.492162 0.622206 0.122030
H65   H     H_    0.460184 0.418699 0.956619 0.096360
H66   H     H_    0.465007 0.419433 0.043709 0.103219
H67   H     H_    0.960271 0.918714 0.956608 0.096332
H68   H     H_    0.965055 0.919455 0.043688 0.103222
H69   H     H_    0.821244 0.897520 0.134504 0.103110
H70   H     H_    0.184552 0.883577 0.865256 0.102074
H71   H     H_    0.321369 0.397893 0.134485 0.103189
H72   H     H_    0.684390 0.383936 0.865259 0.101968
H73   H     H_    0.669099 0.832777 0.964736 0.101288
H74   H     H_    0.336730 0.850556 0.038275 0.099333
H75   H     H_    0.169229 0.332433 0.964791 0.101324
H76   H     H_    0.836608 0.350210 0.038211 0.099353
H77   H     H_    0.682409 0.794611 0.876995 0.129193
H78   H     H_    0.322221 0.810330 0.125869 0.125641
H79   H     H_    0.182513 0.294299 0.877046 0.129365
H80   H     H_    0.822136 0.310028 0.125811 0.125817
H81   H     H_    0.827860 0.859595 0.045235 0.114113
H82   H     H_    0.179089 0.845102 0.954651 0.110524
H83   H     H_    0.328008 0.359974 0.045218 0.114095
H84   H     H_    0.678899 0.345440 0.954651 0.110537
O1    O     O_R   0.769900 0.064540 0.196060 -0.514116
O2    O     O_R   0.230100 0.064540 0.803940 -0.513124
O3    O     O_R   0.269900 0.564540 0.196060 -0.514262
O4    O     O_R   0.730100 0.564540 0.803940 -0.514426
O5    O     O_R   0.574760 0.239320 0.300850 -0.504678
O6    O     O_R   0.425240 0.239320 0.699150 -0.507433
O7    O     O_R   0.074760 0.739320 0.300850 -0.504520
O8    O     O_R   0.925240 0.739320 0.699150 -0.505764
O9    O     O_R   0.566290 0.069580 0.305400 -0.521179
O10   O     O_R   0.433710 0.069580 0.694600 -0.515029
O11   O     O_R   0.066290 0.569580 0.305400 -0.522875
O12   O     O_R   0.933710 0.569580 0.694600 -0.521309
O13   O     O_R   0.680760 0.993330 0.302620 -0.505654
O14   O     O_R   0.319240 0.993330 0.697380 -0.495214
O15   O     O_R   0.180760 0.493330 0.302620 -0.506901
O16   O     O_R   0.819240 0.493330 0.697380 -0.505589
O17   O     O_3   0.668770 0.168760 0.250420 -0.235181
O18   O     O_3   0.331230 0.168760 0.749580 -0.237535
O19   O     O_3   0.168770 0.668760 0.250420 -0.235432
O20   O     O_3   0.831230 0.668760 0.749580 -0.235755
O21   O     O_R   0.750800 0.274080 0.199250 -0.498432
O22   O     O_R   0.249200 0.274080 0.800750 -0.500095
O23   O     O_R   0.250800 0.774080 0.199250 -0.498980
O24   O     O_R   0.749200 0.774080 0.800750 -0.500502
O25   O     O_R   0.669990 0.371670 0.194150 -0.537954
O26   O     O_R   0.330010 0.371670 0.805850 -0.531109
O27   O     O_R   0.169990 0.871670 0.194150 -0.537727
O28   O     O_R   0.830010 0.871670 0.805850 -0.531076
O29   O     O_R   0.574600 0.238480 0.197800 -0.507632
O30   O     O_R   0.425400 0.238480 0.802200 -0.502211
O31   O     O_R   0.074600 0.738480 0.197800 -0.507539
O32   O     O_R   0.925400 0.738480 0.802200 -0.502235
O33   O     O_R   0.566130 0.068680 0.194240 -0.528299
O34   O     O_R   0.433870 0.068680 0.805760 -0.530665
O35   O     O_R   0.066130 0.568680 0.194240 -0.528027
O36   O     O_R   0.933870 0.568680 0.805760 -0.530207
O37   O     O_R   0.680610 0.992490 0.199570 -0.505701
O38   O     O_R   0.319390 0.992490 0.800430 -0.505515
O39   O     O_R   0.180610 0.492490 0.199570 -0.505217
O40   O     O_R   0.819390 0.492490 0.800430 -0.504900
O41   O     O_R   0.770060 0.065440 0.307230 -0.524339
O42   O     O_R   0.229940 0.065440 0.692770 -0.522864
O43   O     O_R   0.270060 0.565440 0.307230 -0.520265
O44   O     O_R   0.729940 0.565440 0.692770 -0.524553
O45   O     O_R   0.750960 0.274920 0.302300 -0.505760
O46   O     O_R   0.249040 0.274920 0.697700 -0.509415
O47   O     O_R   0.250960 0.774920 0.302300 -0.503606
O48   O     O_R   0.749040 0.774920 0.697700 -0.505746
O49   O     O_R   0.670160 0.372580 0.305320 -0.521434
O50   O     O_R   0.329840 0.372580 0.694680 -0.523270
O51   O     O_R   0.170160 0.872580 0.305320 -0.524090
O52   O     O_R   0.829840 0.872580 0.694680 -0.522121
C177  C     C_3   0.502159 0.870755 0.946614 -0.279027
C178  C     C_3   0.440981 0.829117 0.931227 -0.441278
H85   H     H_    0.411414 0.823890 0.963644 0.144714
H86   H     H_    0.419286 0.879495 0.903085 0.162443
H87   H     H_    0.445907 0.750880 0.915133 0.131439
H88   H     H_    0.531032 0.878892 0.913851 0.129579
H89   H     H_    0.525752 0.810856 0.968593 0.138805
C179  C     C_3   0.494462 0.871730 0.056366 -0.279083
C180  C     C_3   0.556057 0.830171 0.070840 -0.442290
H90   H     H_    0.585345 0.826267 0.038189 0.144565
H91   H     H_    0.577751 0.879689 0.099130 0.159382
H92   H     H_    0.551663 0.751340 0.086603 0.133743
H93   H     H_    0.466617 0.880178 0.089716 0.129617
H94   H     H_    0.470121 0.811814 0.035148 0.138055
C181  C     C_3   0.002158 0.370746 0.946617 -0.279036
C182  C     C_3   0.940984 0.329101 0.931221 -0.441266
H95   H     H_    0.911392 0.323943 0.963624 0.144711
H96   H     H_    0.919316 0.379431 0.903046 0.162435
H97   H     H_    0.945912 0.250833 0.915162 0.131586
H98   H     H_    0.031038 0.378878 0.913858 0.129658
H99   H     H_    0.025744 0.310849 0.968603 0.138840
C183  C     C_3   0.994415 0.371733 0.056365 -0.279073
C184  C     C_3   0.055991 0.330098 0.070845 -0.442276
H100  H     H_    0.085301 0.326238 0.038206 0.144540
H101  H     H_    0.077679 0.379537 0.099169 0.159335
H102  H     H_    0.051567 0.251238 0.086568 0.133837
H103  H     H_    0.966570 0.380212 0.089713 0.129723
H104  H     H_    0.970054 0.311847 0.035142 0.138059
C185  C     C_3   0.498490 0.357967 0.866990 -0.266029
C186  C     C_3   0.549275 0.343822 0.830448 -0.429578
H105  H     H_    0.588355 0.308645 0.849593 0.143454
H106  H     H_    0.535859 0.294026 0.798921 0.162070
H107  H     H_    0.562502 0.420050 0.815256 0.132887
H108  H     H_    0.457970 0.387191 0.847717 0.172588
H109  H     H_    0.513727 0.420586 0.891932 0.123402
C187  C     C_3   0.520364 0.367048 0.128952 -0.256847
C188  C     C_3   0.471772 0.389107 0.166352 -0.418556
H110  H     H_    0.428102 0.394656 0.146898 0.138881
H111  H     H_    0.469587 0.327328 0.194825 0.164252
H112  H     H_    0.480981 0.463601 0.185160 0.128032
H113  H     H_    0.565026 0.372794 0.145991 0.187824
H114  H     H_    0.522559 0.433135 0.103207 0.105002
C189  C     C_3   0.998534 0.857944 0.866977 -0.266283
C190  C     C_3   0.049321 0.843773 0.830440 -0.428938
H115  H     H_    0.088416 0.808697 0.849605 0.143254
H116  H     H_    0.035926 0.793884 0.798942 0.162476
H117  H     H_    0.062515 0.919982 0.815206 0.134026
H118  H     H_    0.958018 0.887169 0.847697 0.172616
H119  H     H_    0.013773 0.920573 0.891911 0.123446
C191  C     C_3   0.020283 0.867036 0.128987 -0.256861
C192  C     C_3   0.971668 0.888970 0.166383 -0.418541
H120  H     H_    0.927998 0.894444 0.146924 0.138933
H121  H     H_    0.969519 0.827165 0.194846 0.164253
H122  H     H_    0.980823 0.963468 0.185205 0.128131
H123  H     H_    0.064936 0.872840 0.146038 0.187782
H124  H     H_    0.022451 0.933163 0.103265 0.104997
C193  C     C_3   0.841657 0.041258 0.971448 -0.277616
C194  C     C_3   0.813604 0.143824 0.985661 -0.423615
H125  H     H_    0.794767 0.183203 0.952348 0.161602
H126  H     H_    0.778175 0.133045 0.013341 0.174403
H127  H     H_    0.848635 0.193312 0.002249 0.121098
H128  H     H_    0.862504 0.004485 0.004419 0.140411
H129  H     H_    0.878923 0.058595 0.946105 0.119204
C195  C     C_3   0.151578 0.024412 0.025482 -0.272772
C196  C     C_3   0.172727 0.131276 0.009999 -0.429952
H130  H     H_    0.189023 0.175101 0.042792 0.160819
H131  H     H_    0.208635 0.126203 0.982385 0.175377
H132  H     H_    0.134704 0.173594 0.992921 0.118049
H133  H     H_    0.133872 0.982224 0.992912 0.146150
H134  H     H_    0.112810 0.035255 0.050061 0.122447
C197  C     C_3   0.341497 0.541627 0.971380 -0.277704
C198  C     C_3   0.313287 0.644099 0.985531 -0.423516
H135  H     H_    0.294375 0.683289 0.952194 0.161566
H136  H     H_    0.277882 0.633226 0.013226 0.174347
H137  H     H_    0.348238 0.693806 0.002075 0.121235
H138  H     H_    0.362395 0.505023 0.004373 0.140361
H139  H     H_    0.378742 0.559059 0.946029 0.119202
C199  C     C_3   0.651655 0.524724 0.025543 -0.272837
C200  C     C_3   0.672912 0.631508 0.010038 -0.429860
H140  H     H_    0.689280 0.675296 0.042819 0.160833
H141  H     H_    0.708792 0.626307 0.982405 0.175395
H142  H     H_    0.634921 0.673935 0.992977 0.118041
H143  H     H_    0.633865 0.482590 0.992987 0.146064
H144  H     H_    0.612926 0.535712 0.050149 0.122414

loop_
_geom_bond_atom_site_label_1
_geom_bond_atom_site_label_2
_ccdc_geom_bond_type
C99   C103  A    
C7    C168  A    
C55   C59   A    
C142  C146  A    
C77   C101  A    
C19   C20   A    
C45   O33   A    
C53   C69   A    
C38   C70   S    
C114  H46   S    
C180  H90   S    
C108  C164  S    
C200  H141  S    
C198  H136  S    
C37   C69   S    
C26   C50   A    
C187  H113  S    
C95   C99   A    
C78   C102  A    
C195  H134  S    
C29   C33   A    
C100  C104  A    
C3    C74   S    
C9    C13   A    
C21   H66   S    
C146  C150  A    
C131  C151  A    
C12   C16   A    
C56   C72   A    
C169  C174  A    
C178  H85   S    
C92   O4    A    
Cr8   O20   S    
C172  C175  A    
C141  C145  A    
C122  H58   S    
C138  C154  A    
C6    C165  A    
C148  H52   S    
C21   C22   A    
C89   O1    A    
C112  H36   S    
C9    C187  S    
C41   C49   A    
C190  H115  S    
Cr12  O20   S    
C50   H14   S    
C165  C169  A    
C188  H112  S    
C27   C31   A    
C42   H10   S    
Cr9   O17   S    
C182  H95   S    
Cr10  O14   S    
C62   C66   A    
C167  C171  A    
Cr4   O44   S    
C98   C102  A    
C60   C76   A    
C29   H69   S    
C15   C19   A    
C175  C181  S    
Cr5   O49   S    
C78   C82   A    
C102  H25   S    
C134  C155  S    
C54   C70   A    
Cr3   O3    S    
C68   C72   A    
C178  H87   S    
C117  C149  S    
C165  H2    S    
C137  C153  A    
C3    O27   A    
Cr8   O32   S    
C199  H144  S    
C162  O14   A    
C189  H118  S    
C163  O43   A    
C20   C172  A    
C119  C123  A    
C196  H130  S    
C132  C152  A    
C62   H6    S    
C130  C138  A    
C109  H33   S    
C180  H92   S    
C160  O12   A    
C84   C88   A    
C192  H120  S    
Cr7   O7    S    
Cr5   O25   S    
C26   C90   S    
C5    C46   S    
Cr1   O17   S    
C105  C125  A    
Cr7   O19   S    
C7    C48   S    
Cr6   O30   S    
C125  H61   S    
C8    C47   S    
C133  O45   A    
C136  C153  S    
C66   C70   A    
C144  H56   S    
C31   C35   A    
C177  H89   S    
C191  H123  S    
C158  O6    A    
C157  O5    A    
C61   C65   A    
C158  O10   A    
C129  C137  A    
C130  H38   S    
C39   C71   S    
C34   H82   S    
C47   O35   A    
C4    O28   A    
C103  H28   S    
C190  H117  S    
C55   C71   A    
C2    C75   S    
C90   O38   A    
Cr12  O12   S    
C124  H60   S    
Cr6   O50   S    
C200  H140  S    
C159  O7    A    
C160  O8    A    
C182  H97   S    
C134  O50   A    
C6    C9    A    
C183  H103  S    
Cr6   O6    S    
C121  C125  A    
Cr4   O20   S    
C64   C68   A    
C53   H73   S    
C86   H30   S    
C57   C73   A    
C162  O42   A    
C191  C192  S    
C83   H19   S    
C123  C127  A    
C193  H128  S    
C78   C158  S    
C146  H50   S    
C195  C196  S    
C87   C95   A    
C130  C150  A    
C196  H132  S    
C23   C24   A    
C27   C91   S    
C45   O29   A    
Cr12  O36   S    
C110  C114  A    
C88   H32   S    
C44   C52   A    
C181  H98   S    
C157  O9    A    
Cr9   O33   S    
C79   C103  A    
C11   C15   A    
C187  C188  S    
C27   C51   A    
C7    C12   A    
C98   H21   S    
C49   H13   S    
C30   C34   A    
C138  H42   S    
Cr1   O41   S    
C179  C180  S    
C41   H9    S    
C10   C14   A    
C142  H54   S    
C108  C128  A    
C116  C120  A    
C144  C156  A    
C147  C151  A    
C129  C149  A    
C197  H138  S    
C84   H20   S    
C143  C155  A    
C139  C155  A    
C54   C58   A    
C17   C18   A    
C36   H84   S    
C90   O2    A    
C176  C183  S    
C5    C166  A    
C142  C154  A    
C4    C73   S    
C185  H109  S    
C42   C50   A    
C113  C117  A    
C107  C163  S    
C44   H12   S    
C115  C119  A    
C105  C161  S    
Cr10  O18   S    
C93   C97   A    
C82   H18   S    
C58   C74   A    
C199  C200  S    
Cr4   O48   S    
C192  H122  S    
C105  C109  A    
C197  H139  S    
C40   C72   S    
C30   H70   S    
C1    C76   S    
C107  C111  A    
C148  C152  A    
C23   H68   S    
C179  H93   S    
C139  H43   S    
C26   C30   A    
C147  H51   S    
Cr8   O8    S    
C171  C176  A    
C100  H23   S    
C186  H106  S    
C13   C17   A    
C166  H1    S    
C14   C22   A    
C3    O23   A    
Cr8   O28   S    
C184  H102  S    
C187  H114  S    
C135  O47   A    
C63   C75   A    
C136  O48   A    
C64   H8    S    
C121  H57   S    
C66   C195  S    
C37   C41   A    
C131  C139  A    
C40   C44   A    
C56   C60   A    
C186  H105  S    
C129  H37   S    
C178  H86   S    
Cr9   O9    S    
C81   C85   A    
C65   C193  S    
C83   C87   A    
C88   C96   A    
Cr1   O21   S    
C194  H125  S    
C6    C45   S    
C61   H5    S    
Cr2   O18   S    
C133  C156  S    
Cr6   O26   S    
Cr3   O23   S    
C112  C116  A    
C80   C84   A    
C115  H47   S    
C185  C186  S    
Cr1   O1    S    
C113  H45   S    
C188  H111  S    
C135  C154  S    
C80   C104  A    
C1    O25   A    
C182  H96   S    
C132  H40   S    
C79   C159  S    
C80   C160  S    
C94   C98   A    
C135  O51   A    
C68   C199  S    
C118  C150  S    
C14   C18   A    
C22   H65   S    
Cr12  O16   S    
C159  O11   A    
C174  C179  S    
C46   O34   A    
C124  C128  A    
C18   C170  A    
Cr8   O52   S    
Cr4   O24   S    
C25   C29   A    
Cr5   O17   S    
C60   H80   S    
Cr7   O27   S    
C51   H15   S    
C180  H91   S    
C181  H99   S    
C163  O15   A    
C164  O16   A    
C200  H142  S    
C198  H135  S    
C137  H41   S    
C184  H100  S    
C53   C57   A    
C194  H127  S    
C61   C73   A    
C195  H133  S    
C82   C86   A    
C12   C189  S    
C141  H53   S    
C108  C112  A    
C52   H16   S    
Cr12  O40   S    
C35   C39   A    
C8    C167  A    
C181  C182  S    
C28   C32   A    
C101  H26   S    
C116  H48   S    
Cr9   O37   S    
C177  H88   S    
Cr10  O34   S    
C111  H35   S    
C143  H55   S    
Cr11  O39   S    
C140  H44   S    
C63   H7    S    
Cr1   O45   S    
C110  H34   S    
C32   C36   A    
Cr3   O47   S    
C133  O49   A    
Cr11  O11   S    
C104  H27   S    
C197  C198  S    
C183  H104  S    
C1    O21   A    
C132  C140  A    
C67   C197  S    
C106  C126  A    
C25   C89   S    
Cr10  O38   S    
C126  H62   S    
C91   O3    A    
C79   C83   A    
C43   C51   A    
C65   C69   A    
C67   C71   A    
C106  C162  S    
C177  C178  S    
C25   C49   A    
Cr11  O19   S    
C199  H143  S    
C131  H39   S    
C168  C172  A    
C196  H131  S    
C62   C74   A    
C31   H71   S    
C145  C149  A    
C164  O44   A    
C170  C173  A    
C10   C185  S    
Cr7   O51   S    
C93   C94   S    
C2    O22   A    
C95   C96   S    
C198  H137  S    
C144  C148  A    
C141  C153  A    
C134  O46   A    
C173  C174  A    
C143  C147  A    
C167  H4    S    
C128  H64   S    
C168  H3    S    
C55   H75   S    
C56   H76   S    
C19   C171  A    
C38   C42   A    
C118  C122  A    
C17   C169  A    
C96   C100  A    
C191  H124  S    
Cr9   O13   S    
C117  C121  A    
Cr10  O10   S    
Cr11  O15   S    
C175  C176  A    
C145  H49   S    
Cr2   O22   S    
C59   H79   S    
Cr3   O19   S    
C77   C81   A    
C86   C94   A    
C185  H108  S    
C16   C20   A    
Cr2   O2    S    
C15   C23   A    
C57   H77   S    
C16   C24   A    
C85   C93   A    
C2    O26   A    
C161  O13   A    
C99   H24   S    
C192  H121  S    
C119  C151  S    
C63   C67   A    
C120  C152  S    
C97   H22   S    
C13   C21   A    
C54   H74   S    
C36   C40   A    
C179  H94   S    
C39   C43   A    
C11   C191  S    
C122  C126  A    
C24   H67   S    
C46   O30   A    
C190  H116  S    
C184  H101  S    
C189  C190  S    
C193  H129  S    
C58   H78   S    
C64   C76   A    
Cr5   O29   S    
C28   C92   S    
Cr6   O18   S    
C48   O36   A    
C109  C113  A    
Cr7   O31   S    
C114  C118  A    
C85   H29   S    
C140  C156  A    
C87   H31   S    
C173  C177  S    
C59   C75   A    
C81   H17   S    
C92   O40   A    
C194  H126  S    
C33   H81   S    
C34   C38   A    
C47   O31   A    
C4    O24   A    
C35   H83   S    
C48   O32   A    
C89   O37   A    
C161  O41   A    
C91   O39   A    
C123  H59   S    
C186  H107  S    
C188  H110  S    
C189  H119  S    
Cr11  O35   S    
C43   H11   S    
C5    C10   A    
Cr4   O4    S    
Cr5   O5    S    
C28   C52   A    
C183  C184  S    
C193  C194  S    
C8    C11   A    
C166  C170  A    
C33   C37   A    
C136  O52   A    
C127  H63   S    
Cr2   O46   S    
C32   H72   S    
Cr3   O43   S    
C106  C110  A    
C111  C115  A    
C107  C127  A    
C97   C101  A    
C120  C124  A    
C77   C157  S    
Cr2   O42   S    
