data_mof_unit_7688.cif
_audit_creation_date              2012-10-26T17:12:27-0400
_audit_creation_method            fapswitch 2.2
_symmetry_space_group_name_H-M    P1
_symmetry_Int_Tables_number       1
_space_group_crystal_system       triclinic
_cell_length_a                    16.821206
_cell_length_b                    16.835097
_cell_length_c                    16.789446
_cell_angle_alpha                 68.065313
_cell_angle_beta                  67.891716
_cell_angle_gamma                 67.769961
_cell_volume                      3926.63725318

loop_
_atom_site_label
_atom_site_type_symbol
_atom_type_description
_atom_site_fract_x
_atom_site_fract_y
_atom_site_fract_z
_atom_type_partial_charge
C1    C     C_R   0.029396 0.828487 0.563954 0.554180
C2    C     C_R   0.019295 0.568038 0.829908 0.553889
C3    C     C_R   0.213283 0.810858 0.217553 -0.129325
C4    C     C_R   0.269126 0.763387 0.273930 -0.132376
C5    C     C_R   0.300884 0.808887 0.304813 -0.103236
C6    C     C_R   0.095786 0.719374 0.723196 0.080266
C7    C     C_R   0.189412 0.691156 0.701724 -0.096660
C8    C     C_R   0.234989 0.719791 0.735580 -0.118897
C9    C     C_R   0.187490 0.776838 0.790988 -0.115357
C10   C     C_R   0.094273 0.805515 0.812590 -0.112866
C11   C     C_R   0.048389 0.777115 0.778893 -0.003729
C12   C     C_R   0.908830 0.274762 0.276110 0.083528
C13   C     C_R   0.169805 0.981516 0.431336 0.548017
C14   C     C_R   0.815462 0.297695 0.295816 -0.094144
C15   C     C_R   0.775506 0.264626 0.260140 -0.117767
C16   C     C_R   0.828401 0.208692 0.204344 -0.115162
C17   C     C_R   0.921428 0.185628 0.184076 -0.112100
C18   C     C_R   0.961720 0.218538 0.219510 -0.001685
C19   C     C_R   0.723462 0.723483 0.097874 0.077428
C20   C     C_R   0.779388 0.779477 0.043722 -0.001215
C21   C     C_R   0.814972 0.813787 0.082587 -0.111656
C22   C     C_R   0.795292 0.792574 0.175461 -0.126690
C23   C     C_R   0.739988 0.737040 0.229629 -0.141151
C24   C     C_R   0.830236 0.018385 0.568685 0.558347
C25   C     C_R   0.704154 0.702620 0.191098 -0.108513
C26   C     C_R   0.275249 0.275149 0.904657 0.078261
C27   C     C_R   0.293445 0.294485 0.811716 -0.099962
C28   C     C_R   0.256674 0.258813 0.775339 -0.122693
C29   C     C_R   0.201711 0.203381 0.831400 -0.115314
C30   C     C_R   0.183123 0.183683 0.924028 -0.110231
C31   C     C_R   0.219520 0.219358 0.960744 -0.000408
C32   C     C_R   0.455580 0.075242 0.699719 -0.119238
C33   C     C_R   0.544575 0.924369 0.300287 -0.118515
C34   C     C_R   0.053350 0.710037 0.454715 -0.118961
C35   C     C_R   0.020672 0.275176 0.515965 -0.116637
C36   C     C_R   0.709558 0.455202 0.054571 -0.120961
C37   C     C_R   0.290660 0.544908 0.944478 -0.116338
C38   C     C_R   0.266352 0.056221 0.490669 -0.113897
C39   C     C_R   0.979295 0.170525 0.432486 0.552411
C40   C     C_R   0.733915 0.943377 0.509368 -0.114027
C41   C     C_R   0.545336 0.290430 0.944378 -0.114663
C42   C     C_R   0.454903 0.709708 0.054550 -0.114109
C43   C     C_R   0.937287 0.547018 0.291387 -0.114375
C44   C     C_R   0.960864 0.494604 0.730950 -0.113588
C45   C     C_R   0.547292 0.007035 0.550270 0.035736
C46   C     C_R   0.452932 0.992489 0.449787 0.035719
C47   C     C_R   0.999784 0.555279 0.546375 0.037456
C48   C     C_R   0.982523 0.458905 0.451265 0.037407
C49   C     C_R   0.544435 0.544476 0.019114 0.036461
C50   C     C_R   0.828147 0.564152 0.029801 0.545779
C51   C     C_R   0.456003 0.455827 0.979460 0.036347
C52   C     C_R   0.594744 0.967201 0.478393 0.011358
C53   C     C_R   0.405495 0.032338 0.521650 0.012237
C54   C     C_R   0.985807 0.470408 0.589666 0.009620
C55   C     C_R   0.981030 0.549409 0.411972 0.010279
C56   C     C_R   0.456287 0.586513 0.011465 0.011655
C57   C     C_R   0.544184 0.413822 0.987003 0.011827
C58   C     C_R   0.547532 0.961787 0.426527 0.010878
C59   C     C_R   0.452693 0.037729 0.573524 0.011277
C60   C     C_R   0.413869 0.543956 0.987122 0.012099
C61   C     C_R   0.171837 0.435860 0.970153 0.560463
C62   C     C_R   0.586612 0.456373 0.011349 0.011872
C63   C     C_R   0.991916 0.417851 0.538321 0.010216
C64   C     C_R   0.002866 0.592966 0.455165 0.009845
C65   C     C_R   0.408507 0.071661 0.649130 -0.139970
C66   C     C_R   0.591685 0.927859 0.350912 -0.139663
C67   C     C_R   0.032221 0.669715 0.409516 -0.148690
C68   C     C_R   0.014144 0.325167 0.568719 -0.148233
C69   C     C_R   0.666922 0.411169 0.035308 -0.147212
C70   C     C_R   0.333489 0.589089 0.963295 -0.143827
C71   C     C_R   0.312177 0.068489 0.536845 -0.137667
C72   C     C_R   0.563576 0.030695 0.828341 0.551233
C73   C     C_R   0.688080 0.931117 0.463168 -0.137655
C74   C     C_R   0.589483 0.333398 0.963114 -0.143139
C75   C     C_R   0.410911 0.666876 0.035452 -0.142545
C76   C     C_R   0.954996 0.593531 0.332998 -0.144769
C77   C     C_R   0.962075 0.442629 0.682808 -0.147024
C78   C     C_R   0.549053 0.045630 0.677430 -0.004654
C79   C     C_R   0.451095 0.953992 0.322603 -0.005428
C80   C     C_R   0.035599 0.681953 0.548860 -0.008411
C81   C     C_R   0.990479 0.315599 0.437852 -0.004992
C82   C     C_R   0.678075 0.548101 0.044074 -0.007025
C83   C     C_R   0.436457 0.969219 0.171659 0.551936
C84   C     C_R   0.322116 0.451997 0.955144 -0.006286
C85   C     C_R   0.311002 0.006686 0.427457 -0.005430
C86   C     C_R   0.689194 0.992927 0.572602 -0.007890
C87   C     C_R   0.452276 0.321891 0.955128 -0.005312
C88   C     C_R   0.547922 0.678224 0.044040 -0.005849
C89   C     C_R   0.955929 0.453004 0.320490 -0.006328
C90   C     C_R   0.997306 0.568250 0.687972 -0.007302
C91   C     C_R   0.598416 0.046351 0.729587 -0.038934
C92   C     C_R   0.401673 0.953388 0.270429 -0.038679
C93   C     C_R   0.042287 0.730530 0.598483 -0.036315
C94   C     C_R   0.435896 0.171784 0.970185 0.550762
C95   C     C_R   0.973707 0.267332 0.393973 -0.033125
C96   C     C_R   0.728594 0.597955 0.047772 -0.036128
C97   C     C_R   0.271392 0.401999 0.952052 -0.036500
C98   C     C_R   0.265374 0.979383 0.390012 -0.032050
C99   C     C_R   0.734730 0.020364 0.610032 -0.033034
C100  C     C_R   0.402177 0.271204 0.952067 -0.037332
C101  C     C_R   0.597825 0.728746 0.047736 -0.037006
C102  C     C_R   0.954616 0.402072 0.270129 -0.038098
C103  C     C_R   0.021425 0.608243 0.733978 -0.032686
C104  C     C_R   0.687013 0.050392 0.688017 -0.065280
C105  C     C_R   0.564119 0.828191 0.029784 0.551342
C106  C     C_R   0.313049 0.949386 0.312007 -0.064763
C107  C     C_R   0.048676 0.687478 0.686625 -0.068559
C108  C     C_R   0.949992 0.313454 0.312429 -0.069204
C109  C     C_R   0.684893 0.685027 0.058710 -0.066304
C110  C     C_R   0.314892 0.314720 0.941628 -0.068462
C111  C     C_R   0.595067 0.015956 0.599638 0.033290
C112  C     C_R   0.405127 0.983606 0.400421 0.032836
C113  C     C_R   0.011513 0.601736 0.594443 0.028517
C114  C     C_R   0.975329 0.409106 0.403454 0.029612
C115  C     C_R   0.590487 0.590614 0.035264 0.029965
C116  C     C_R   0.970090 0.436238 0.171536 0.553117
C117  C     C_R   0.409807 0.409573 0.963676 0.030143
C118  C     C_R   0.723194 0.097434 0.720394 0.079664
C119  C     C_R   0.779164 0.050138 0.777631 -0.005203
C120  C     C_R   0.810482 0.096011 0.808497 -0.115711
C121  C     C_R   0.786074 0.189134 0.782942 -0.116089
C122  C     C_R   0.730241 0.236541 0.726546 -0.116445
C123  C     C_R   0.698738 0.190971 0.695482 -0.097797
C124  C     C_R   0.276765 0.902420 0.279648 0.080232
C125  C     C_R   0.220798 0.949779 0.222412 -0.004455
C126  C     C_R   0.189155 0.903973 0.191798 -0.117431
Cu1   Cu    Cu3+1 0.995180 0.995180 0.424630 0.904472
Cu2   Cu    Cu3+1 0.004820 0.004820 0.575370 0.902335
Cu3   Cu    Cu3+1 0.995180 0.424630 0.995180 0.900160
Cu4   Cu    Cu3+1 0.004820 0.575370 0.004820 0.904197
Cu5   Cu    Cu3+1 0.424630 0.995180 0.995180 0.907952
Cu6   Cu    Cu3+1 0.575370 0.004820 0.004820 0.907572
H1    H     H_    0.417561 0.105663 0.754137 0.150683
H2    H     H_    0.412817 0.764958 0.082307 0.159820
H3    H     H_    0.906753 0.586727 0.237647 0.158997
H4    H     H_    0.929292 0.475724 0.801406 0.159152
H5    H     H_    0.336934 0.094837 0.672485 0.099708
H6    H     H_    0.663255 0.904637 0.327577 0.100968
H7    H     H_    0.044860 0.695682 0.337772 0.103772
H8    H     H_    0.033529 0.290513 0.630262 0.101635
H9    H     H_    0.695817 0.340218 0.044074 0.101244
H10   H     H_    0.304597 0.660048 0.954446 0.100545
H11   H     H_    0.272092 0.107901 0.583460 0.095688
H12   H     H_    0.582562 0.894032 0.245804 0.153231
H13   H     H_    0.728162 0.891770 0.416495 0.099377
H14   H     H_    0.660560 0.304552 0.954180 0.099725
H15   H     H_    0.339845 0.695724 0.044301 0.101844
H16   H     H_    0.942970 0.664980 0.305726 0.101690
H17   H     H_    0.939081 0.383460 0.718952 0.104098
H18   H     H_    0.798170 0.977948 0.798160 0.103455
H19   H     H_    0.853519 0.059346 0.852378 0.075824
H20   H     H_    0.810217 0.224584 0.807016 0.097686
H21   H     H_    0.711146 0.308655 0.707111 0.112046
H22   H     H_    0.655196 0.228468 0.652116 0.096999
H23   H     H_    0.086525 0.761397 0.413782 0.160974
H24   H     H_    0.201962 0.021967 0.201767 0.102874
H25   H     H_    0.146055 0.940690 0.147982 0.077295
H26   H     H_    0.188812 0.775457 0.193757 0.100325
H27   H     H_    0.287858 0.691280 0.293654 0.114144
H28   H     H_    0.344322 0.771339 0.348276 0.098195
H29   H     H_    0.226950 0.646765 0.659040 0.097022
H30   H     H_    0.307167 0.697506 0.719108 0.112639
H31   H     H_    0.222937 0.798669 0.817314 0.102930
H32   H     H_    0.057537 0.849632 0.855563 0.075690
H33   H     H_    0.976101 0.799477 0.796294 0.102195
H34   H     H_    0.052576 0.205517 0.538037 0.145058
H35   H     H_    0.773768 0.341482 0.338467 0.096197
H36   H     H_    0.703488 0.282717 0.275404 0.112407
H37   H     H_    0.797274 0.183448 0.176603 0.101290
H38   H     H_    0.962352 0.142545 0.140626 0.073884
H39   H     H_    0.033902 0.200876 0.202792 0.100091
H40   H     H_    0.795279 0.796135 0.971650 0.106438
H41   H     H_    0.857891 0.856731 0.040673 0.075352
H42   H     H_    0.822927 0.819098 0.205495 0.095303
H43   H     H_    0.724887 0.720660 0.301537 0.110396
H44   H     H_    0.661453 0.659580 0.233827 0.097572
H45   H     H_    0.764647 0.413255 0.082429 0.158935
H46   H     H_    0.336045 0.337251 0.767548 0.095665
H47   H     H_    0.271054 0.273889 0.703625 0.107582
H48   H     H_    0.173545 0.175695 0.803025 0.094317
H49   H     H_    0.140459 0.140835 0.967415 0.073334
H50   H     H_    0.204526 0.203838 0.032642 0.105254
H51   H     H_    0.235336 0.586708 0.916974 0.160272
H52   H     H_    0.195747 0.089198 0.503435 0.136485
H53   H     H_    0.804590 0.910378 0.496579 0.152338
H54   H     H_    0.587283 0.235013 0.916831 0.158271
O1    O     O_R   0.124540 0.978640 0.385460 -0.511602
O2    O     O_R   0.124540 0.385460 0.978640 -0.499759
O3    O     O_R   0.021360 0.875460 0.614540 -0.504680
O4    O     O_R   0.978640 0.124540 0.385460 -0.503324
O5    O     O_R   0.013780 0.867370 0.487190 -0.523981
O6    O     O_R   0.986220 0.132630 0.512810 -0.522619
O7    O     O_R   0.867370 0.487190 0.013780 -0.525856
O8    O     O_R   0.132630 0.512810 0.986220 -0.512103
O9    O     O_R   0.487190 0.013780 0.867370 -0.507742
O10   O     O_R   0.512810 0.986220 0.132630 -0.507590
O11   O     O_R   0.512810 0.132630 0.986220 -0.514249
O12   O     O_R   0.875460 0.021360 0.614540 -0.503315
O13   O     O_R   0.487190 0.867370 0.013780 -0.514333
O14   O     O_R   0.986220 0.512810 0.132630 -0.511621
O15   O     O_R   0.013780 0.487190 0.867370 -0.515907
O16   O     O_R   0.132630 0.986220 0.512810 -0.516294
O17   O     O_R   0.867370 0.013780 0.487190 -0.508571
O18   O     O_R   0.978640 0.385460 0.124540 -0.507807
O19   O     O_R   0.021360 0.614540 0.875460 -0.509307
O20   O     O_R   0.385460 0.124540 0.978640 -0.508763
O21   O     O_R   0.614540 0.875460 0.021360 -0.508228
O22   O     O_R   0.614540 0.021360 0.875460 -0.509759
O23   O     O_R   0.385460 0.978640 0.124540 -0.509027
O24   O     O_R   0.875460 0.614540 0.021360 -0.509333

loop_
_geom_bond_atom_site_label_1
_geom_bond_atom_site_label_2
_ccdc_geom_bond_type
C44   H4    S    
C48   C55   A    
C24   O17   A    
C100  C110  A    
C13   O1    A    
C46   C112  A    
C89   C102  A    
C24   C99   S    
C19   C20   A    
C94   O20   A    
C27   H46   S    
C91   C104  A    
C85   C112  A    
C72   O9    A    
Cu3   Cu4   S    
C88   C101  A    
C53   C59   A    
C3    C126  A    
C7    C8    A    
C72   O22   A    
C34   H23   S    
C40   C73   A    
C97   C110  A    
C83   C92   S    
C7    H29   S    
C5    C124  A    
C28   C29   A    
C42   C75   A    
C43   C89   A    
C79   C112  A    
C84   C97   A    
C35   C68   A    
C48   C114  A    
C44   C77   A    
C82   C115  A    
C87   C117  A    
C30   C31   A    
C81   C95   A    
C50   O7    A    
C4    H27   S    
C23   H43   S    
C54   C63   A    
C69   H9    S    
C15   C16   A    
C37   H51   S    
C83   O10   A    
C35   H34   S    
C38   H52   S    
C13   O16   A    
C47   C113  A    
Cu2   O3    S    
C90   C113  A    
C40   C86   A    
C13   C98   S    
C9    H31   S    
C118  C119  A    
C85   C98   A    
C22   H42   S    
C41   C74   A    
C89   C114  A    
Cu3   O18   S    
C16   H37   S    
C58   C66   A    
C103  C107  A    
C36   C82   A    
C16   C17   A    
C29   H48   S    
C81   C114  A    
Cu5   O23   S    
C3    H26   S    
Cu1   O1    S    
C6    C107  S    
C37   C84   A    
C102  C108  A    
C78   C111  A    
C51   C57   A    
C60   C70   A    
C67   H7    S    
C9    C10   A    
C26   C110  S    
C125  H24   S    
C54   C77   A    
Cu3   O15   S    
C119  H18   S    
C99   C104  A    
C24   O12   A    
C26   C31   A    
C56   C75   A    
C37   C70   A    
C46   C58   A    
C2    O15   A    
Cu4   O14   S    
C116  O18   A    
C33   C66   A    
C105  O21   A    
C104  C118  S    
C19   C109  S    
C33   H12   S    
C101  C105  S    
C41   C87   A    
C61   C97   S    
C70   H10   S    
Cu1   O4    S    
C82   C96   A    
C38   C85   A    
C64   C67   A    
C57   C62   A    
C102  C116  S    
C52   C73   A    
C10   C11   A    
C77   H17   S    
C47   C64   A    
C12   C108  S    
C39   O4    A    
C17   H38   S    
C84   C117  A    
C48   C63   A    
C40   H53   S    
C45   C52   A    
C75   H15   S    
C18   H39   S    
C61   O2    A    
Cu1   O5    S    
C3    C4    A    
C56   C60   A    
C62   C69   A    
C73   H13   S    
Cu2   O6    S    
C57   C74   A    
Cu5   O13   S    
C29   C30   A    
C50   O24   A    
C66   H6    S    
C94   C100  S    
C5    H28   S    
C55   C64   A    
C45   C111  A    
C17   C18   A    
C8    C9    A    
C2    O19   A    
Cu2   O16   S    
C20   C21   A    
C43   H3    S    
C86   C99   A    
C39   C95   S    
C79   C92   A    
C83   O23   A    
C52   C58   A    
C47   C54   A    
C55   C76   A    
C1    O5    A    
C92   C106  A    
C49   C115  A    
C12   C14   A    
Cu6   O22   S    
C21   H41   S    
C31   H50   S    
C26   C27   A    
C125  C126  A    
C51   C117  A    
C122  H21   S    
C15   H36   S    
Cu4   O24   S    
C42   C88   A    
C106  C124  S    
Cu1   Cu2   S    
C53   C71   A    
C6    C11   A    
C44   C90   A    
C120  C121  A    
C71   H11   S    
C87   C100  A    
C126  H25   S    
C43   C76   A    
C72   C91   S    
C38   C71   A    
C45   C59   A    
C120  H19   S    
C10   H32   S    
C49   C62   A    
C20   H40   S    
C22   C23   A    
C74   H14   S    
Cu5   O9    S    
C36   H45   S    
C33   C79   A    
C4    C5    A    
Cu4   O8    S    
C98   C106  A    
C34   C67   A    
Cu3   O7    S    
C119  C120  A    
C121  C122  A    
C122  C123  A    
C6    C7    A    
C78   C91   A    
C49   C56   A    
C96   C109  A    
C63   C68   A    
C35   C81   A    
C121  H20   S    
C42   H2    S    
C94   O11   A    
C34   C80   A    
C88   C115  A    
C86   C111  A    
C14   H35   S    
C65   H5    S    
Cu4   O19   S    
C8    H30   S    
C93   C107  A    
C39   O6    A    
C25   H44   S    
C50   C96   S    
C32   H1    S    
Cu1   O17   S    
C2    C103  S    
C116  O14   A    
C46   C53   A    
Cu6   O11   S    
C30   H49   S    
C41   H54   S    
C118  C123  A    
C23   C25   A    
C36   C69   A    
C19   C25   A    
C28   H47   S    
Cu2   O12   S    
C90   C103  A    
C68   H8    S    
C95   C108  A    
C32   C78   A    
C105  O13   A    
C80   C113  A    
C76   H16   S    
Cu6   O21   S    
C1    C93   S    
Cu3   O2    S    
C12   C18   A    
C27   C28   A    
Cu6   O10   S    
C14   C15   A    
C124  C125  A    
C11   H33   S    
C51   C60   A    
C80   C93   A    
C21   C22   A    
Cu5   O20   S    
C101  C109  A    
C61   O8    A    
C59   C65   A    
Cu5   Cu6   S    
C32   C65   A    
C123  H22   S    
C1    O3    A    
