data_mof_unit_44633.cif
_audit_creation_date              2012-12-10T19:53:02-0500
_audit_creation_method            fapswitch 2.2
_symmetry_space_group_name_H-M    P1
_symmetry_Int_Tables_number       1
_space_group_crystal_system       triclinic
_cell_length_a                    14.918396
_cell_length_b                    14.210698
_cell_length_c                    15.739177
_cell_angle_alpha                 90.154685
_cell_angle_beta                  91.268864
_cell_angle_gamma                 88.756217
_cell_volume                      3335.10604168

loop_
_atom_site_label
_atom_site_type_symbol
_atom_type_description
_atom_site_fract_x
_atom_site_fract_y
_atom_site_fract_z
_atom_type_partial_charge
C1    C     C_R   0.328282 0.501084 0.501058 0.863035
C2    C     C_3   0.594680 0.582881 0.951662 0.066647
C3    C     C_3   0.586967 0.578852 0.052495 -0.454412
C4    C     C_1   0.518400 0.503339 0.825036 -0.119600
C5    C     C_1   0.509966 0.504977 0.174155 -0.116333
C6    C     C_1   0.505238 0.501250 0.249288 -0.200210
C7    C     C_R   0.094256 0.488355 0.423948 -0.198564
C8    C     C_R   0.096073 0.540012 0.571804 -0.182365
C9    C     C_R   0.186706 0.482875 0.425748 -0.194788
C10   C     C_R   0.188822 0.534471 0.573453 -0.209135
C11   C     C_R   0.233151 0.504454 0.500696 0.026302
C12   C     C_R   0.049596 0.516502 0.497081 0.124592
C13   C     C_R   0.915080 0.428405 0.515975 -0.219846
C14   C     C_R   0.903785 0.588215 0.463443 -0.230367
C15   C     C_R   0.500347 0.500064 0.338132 0.905686
C16   C     C_R   0.823209 0.418381 0.506306 -0.024037
C17   C     C_R   0.811358 0.581260 0.454038 -0.003695
C18   C     C_R   0.769589 0.498183 0.482576 -0.148677
C19   C     C_R   0.953987 0.513183 0.496602 0.070705
C20   C     C_R   0.455104 0.102416 0.443422 -0.320729
C21   C     C_R   0.427845 0.899786 0.479324 -0.314116
C22   C     C_R   0.450186 0.201155 0.442973 0.127787
C23   C     C_R   0.426663 0.801170 0.474054 0.130773
C24   C     C_R   0.550872 0.206543 0.560823 0.034996
C25   C     C_R   0.573913 0.791488 0.532507 0.022064
C26   C     C_R   0.553748 0.107235 0.565590 -0.279931
C27   C     C_R   0.577950 0.890664 0.536357 -0.301920
C28   C     C_R   0.505795 0.053156 0.505745 0.124022
C29   C     C_R   0.504439 0.946827 0.508106 0.136092
C30   C     C_R   0.672526 0.499002 0.494075 0.851981
C31   C     C_R   0.501317 0.500087 0.661656 0.908995
C32   C     C_3   0.420379 0.538416 0.043317 -0.150618
C33   C     C_3   0.536352 0.406650 0.049042 -0.140078
C34   C     C_3   0.545962 0.407998 0.951849 -0.472540
C35   C     C_3   0.428111 0.537745 0.945120 -0.446939
C36   C     C_1   0.510052 0.500610 0.750088 -0.199728
C37   C     C_3   0.514368 0.508967 0.082434 0.240907
C38   C     C_3   0.524353 0.508316 0.916515 0.259875
H1    H     H_    0.378304 0.487681 0.918316 0.156929
H2    H     H_    0.498484 0.356909 0.922861 0.168521
H3    H     H_    0.589194 0.247022 0.606564 0.138854
H4    H     H_    0.630723 0.749773 0.555595 0.136562
H5    H     H_    0.593064 0.073443 0.615907 0.131917
H6    H     H_    0.638748 0.922671 0.560027 0.124311
H7    H     H_    0.613233 0.381776 0.934120 0.177772
H8    H     H_    0.408976 0.607579 0.917646 0.193387
H9    H     H_    0.057478 0.470332 0.366231 0.133480
H10   H     H_    0.060611 0.561114 0.628333 0.132263
H11   H     H_    0.222182 0.464481 0.368628 0.146731
H12   H     H_    0.225899 0.552647 0.630950 0.125503
H13   H     H_    0.957489 0.368360 0.534019 0.143873
H14   H     H_    0.937433 0.650328 0.441624 0.132371
N1    N     N_R   0.499980 0.252470 0.500000 -0.111147
N2    N     N_R   0.499980 0.747530 0.500000 -0.105154
O1    O     O_R   0.369070 0.579480 0.500010 -0.608268
O2    O     O_R   0.369070 0.420520 0.500010 -0.617203
O3    O     O_R   0.500010 0.579510 0.377140 -0.626592
O4    O     O_R   0.500010 0.420490 0.377140 -0.614044
O5    O     O_R   0.630940 0.579480 0.499990 -0.617733
O6    O     O_R   0.630940 0.420520 0.499990 -0.615258
O7    O     O_R   0.500000 0.579440 0.622860 -0.615045
O8    O     O_R   0.500000 0.420560 0.622860 -0.625217
Zn1   Zn    Zn3+2 0.500010 0.606140 0.500000 0.949661
Zn2   Zn    Zn3+2 0.500010 0.393860 0.500000 0.948733
C39   C     C_R   0.789814 0.321092 0.510118 0.158547
C40   C     C_R   0.804956 0.266237 0.583395 -0.182372
C41   C     C_R   0.787400 0.169972 0.581891 -0.167732
C42   C     C_R   0.755236 0.127773 0.507250 -0.111614
C43   C     C_R   0.738211 0.182164 0.434636 -0.139937
C44   C     C_R   0.755827 0.278376 0.435764 -0.102827
H15   H     H_    0.832542 0.297567 0.640803 0.121424
H16   H     H_    0.799859 0.127811 0.638254 0.127371
H17   H     H_    0.742544 0.053091 0.505943 0.115993
H18   H     H_    0.712679 0.149423 0.377154 0.118737
H19   H     H_    0.745532 0.319058 0.378115 0.124479
C45   C     C_R   0.762341 0.657481 0.406457 0.147002
C46   C     C_R   0.707322 0.635504 0.335723 -0.094907
C47   C     C_R   0.662090 0.706997 0.290183 -0.127255
C48   C     C_R   0.672214 0.800993 0.314006 -0.115194
C49   C     C_R   0.728232 0.823734 0.383022 -0.134344
C50   C     C_R   0.773212 0.752424 0.429138 -0.189452
H20   H     H_    0.699545 0.563035 0.315869 0.098837
H21   H     H_    0.619466 0.689499 0.236238 0.113905
H22   H     H_    0.636972 0.856224 0.278773 0.117544
H23   H     H_    0.736240 0.896625 0.401245 0.123506
H24   H     H_    0.815621 0.771136 0.483032 0.119416
H25   H     H_    0.418039 0.064676 0.394731 0.139979
H26   H     H_    0.367851 0.939392 0.460524 0.138960
C51   C     C_R   0.386237 0.245664 0.382311 0.157997
C52   C     C_R   0.413675 0.268795 0.300669 -0.125870
C53   C     C_R   0.350922 0.300140 0.239161 -0.155567
C54   C     C_R   0.259800 0.304169 0.257845 -0.142858
C55   C     C_R   0.231519 0.277343 0.338149 -0.165792
C56   C     C_R   0.294521 0.248849 0.400491 -0.137288
H27   H     H_    0.483828 0.262850 0.285590 0.132070
H28   H     H_    0.372630 0.320019 0.176735 0.116403
H29   H     H_    0.211089 0.327461 0.210004 0.123266
H30   H     H_    0.160831 0.279368 0.352308 0.137438
H31   H     H_    0.271799 0.227329 0.462230 0.127230
C57   C     C_R   0.343872 0.759422 0.439881 0.146675
C58   C     C_R   0.342313 0.717230 0.359289 -0.102655
C59   C     C_R   0.261622 0.685486 0.323772 -0.167870
C60   C     C_R   0.181647 0.698804 0.367166 -0.108713
C61   C     C_R   0.182520 0.741220 0.447323 -0.114425
C62   C     C_R   0.263274 0.771503 0.483668 -0.169465
H32   H     H_    0.403029 0.711047 0.323341 0.140065
H33   H     H_    0.260748 0.651686 0.262099 0.155281
H34   H     H_    0.119107 0.675410 0.339038 0.127561
H35   H     H_    0.120609 0.750775 0.481187 0.126731
H36   H     H_    0.262951 0.805463 0.545357 0.122617
H37   H     H_    0.373576 0.481443 0.059774 0.115869
H38   H     H_    0.475095 0.365241 0.059971 0.112390
C63   C     C_R   0.613182 0.352168 0.094825 0.161297
C64   C     C_R   0.593042 0.273110 0.144141 -0.164148
C65   C     C_R   0.660340 0.223595 0.189461 -0.141123
C66   C     C_R   0.749330 0.250815 0.184770 -0.125832
C67   C     C_R   0.771232 0.326224 0.133168 -0.147807
C68   C     C_R   0.703990 0.375846 0.087724 -0.155527
H39   H     H_    0.525001 0.248968 0.147017 0.103690
H40   H     H_    0.643385 0.163715 0.227811 0.117445
H41   H     H_    0.801448 0.212495 0.219937 0.121461
H42   H     H_    0.840576 0.345817 0.127709 0.129053
H43   H     H_    0.724170 0.430698 0.045920 0.148534
C69   C     C_R   0.371297 0.628239 0.073957 0.158075
C70   C     C_R   0.284924 0.647849 0.039077 -0.179880
C71   C     C_R   0.237495 0.730147 0.060214 -0.143966
C72   C     C_R   0.275098 0.794487 0.116862 -0.103684
C73   C     C_R   0.359186 0.775418 0.153993 -0.174178
C74   C     C_R   0.405846 0.691812 0.134999 -0.187167
H44   H     H_    0.254547 0.599551 0.994145 0.118073
H45   H     H_    0.171762 0.744328 0.032043 0.123095
H46   H     H_    0.238739 0.858676 0.132649 0.123851
H47   H     H_    0.387886 0.825043 0.198655 0.129551
H48   H     H_    0.469391 0.680202 0.167110 0.127970
H49   H     H_    0.578312 0.648817 0.081057 0.135480
H50   H     H_    0.650955 0.556546 0.083820 0.160795
C75   C     C_R   0.572116 0.681347 0.910940 0.100773
C76   C     C_R   0.598382 0.699150 0.826362 -0.121110
C77   C     C_R   0.578680 0.784929 0.786326 -0.127642
C78   C     C_R   0.532039 0.855665 0.829082 -0.117822
C79   C     C_R   0.505112 0.840605 0.911970 -0.136861
C80   C     C_R   0.524759 0.754911 0.952442 -0.171248
H51   H     H_    0.634736 0.646462 0.790417 0.138885
H52   H     H_    0.599724 0.796436 0.721902 0.127011
H53   H     H_    0.516634 0.922077 0.797945 0.124508
H54   H     H_    0.468399 0.895479 0.945119 0.131653
H55   H     H_    0.500618 0.748287 0.015288 0.149537
C81   C     C_R   0.695107 0.563090 0.931194 0.086433
C82   C     C_R   0.760405 0.620359 0.970921 -0.160905
C83   C     C_R   0.851506 0.608472 0.954236 -0.139937
C84   C     C_R   0.879788 0.540834 0.895918 -0.114609
C85   C     C_R   0.816873 0.485880 0.853368 -0.134015
C86   C     C_R   0.725571 0.497266 0.869829 -0.196868
H56   H     H_    0.740505 0.674907 0.015294 0.128090
H57   H     H_    0.900183 0.652361 0.986223 0.122782
H58   H     H_    0.950378 0.531908 0.882782 0.115242
H59   H     H_    0.838792 0.434784 0.806647 0.123374
H60   H     H_    0.680722 0.454939 0.832414 0.135475

loop_
_geom_bond_atom_site_label_1
_geom_bond_atom_site_label_2
_ccdc_geom_bond_type
C62   H36   S    
C4    C36   T    
C71   C72   A    
C32   H37   S    
C5    C37   S    
C27   C29   A    
C67   C68   A    
C31   O7    A    
C78   C79   A    
C1    C11   S    
C75   C80   A    
C73   C74   A    
C64   C65   A    
C82   C83   A    
C52   H27   S    
C46   C47   A    
C57   C62   A    
C55   C56   A    
C34   H2    S    
C5    C6    T    
C46   H20   S    
C28   C29   S    
C1    O2    A    
C24   C26   A    
C3    H50   S    
C76   H51   S    
C61   H35   S    
N1    Zn2   S    
N2    Zn1   S    
C2    C81   S    
C65   C66   A    
C20   H25   S    
C86   H60   S    
C71   H45   S    
C66   C67   A    
C41   H16   S    
C51   C56   A    
O7    Zn1   S    
C32   C69   S    
C72   H46   S    
C57   C58   A    
O8    Zn2   S    
C6    C15   S    
C13   H13   S    
C27   H6    S    
C14   H14   S    
C42   C43   A    
O1    Zn1   S    
C54   H29   S    
C17   C45   S    
C84   C85   A    
O2    Zn2   S    
C60   H34   S    
C18   C30   S    
C26   C28   A    
C64   H39   S    
C23   C57   S    
C53   H28   S    
C21   H26   S    
C82   H56   S    
C24   H3    S    
C15   O3    A    
C31   O8    A    
C43   C44   A    
C70   H44   S    
C61   C62   A    
C58   C59   A    
C26   H5    S    
O3    Zn1   S    
C22   N1    A    
O4    Zn2   S    
C7    C12   A    
C66   H41   S    
C13   C19   A    
C41   C42   A    
C32   C35   S    
C59   H33   S    
C35   C38   S    
C9    H11   S    
C45   C46   A    
C76   C77   A    
C53   C54   A    
C33   H38   S    
C47   C48   A    
C20   C28   A    
C42   H17   S    
C84   H58   S    
C21   C29   A    
C33   C37   S    
C74   H48   S    
C30   O6    A    
C7    H9    S    
C25   H4    S    
C35   H1    S    
C67   H42   S    
C8    H10   S    
C49   H23   S    
C77   H52   S    
C2    C38   S    
C40   H15   S    
C8    C12   A    
C30   O5    A    
C17   C18   A    
C43   H18   S    
C34   H7    S    
C32   C37   S    
C25   N2    A    
C9    C11   A    
C79   H54   S    
C16   C18   A    
C4    C38   S    
C65   H40   S    
C83   H57   S    
C21   C23   A    
C70   C71   A    
C15   O4    A    
C48   C49   A    
C81   C86   A    
C72   C73   A    
C10   H12   S    
C44   H19   S    
C23   N2    A    
C63   C64   A    
C58   H32   S    
C7    C9    A    
C85   H59   S    
C34   C38   S    
C2    C75   S    
C33   C63   S    
C14   C19   A    
C50   H24   S    
C20   C22   A    
C49   C50   A    
C45   C50   A    
C47   H21   S    
C77   C78   A    
C25   C27   A    
C75   C76   A    
C78   H53   S    
O5    Zn1   S    
C83   C84   A    
O6    Zn2   S    
C55   H30   S    
C2    C3    S    
C24   N1    A    
C73   H47   S    
C52   C53   A    
C48   H22   S    
C56   H31   S    
C80   H55   S    
C12   C19   S    
C54   C55   A    
C22   C51   S    
C33   C34   S    
C69   C74   A    
C40   C41   A    
C3    H49   S    
C68   H43   S    
C1    O1    A    
C59   C60   A    
C10   C11   A    
C63   C68   A    
C85   C86   A    
C3    C37   S    
C8    C10   A    
C39   C40   A    
C13   C16   A    
C60   C61   A    
C31   C36   S    
C16   C39   S    
C51   C52   A    
C79   C80   A    
C35   H8    S    
C81   C82   A    
C39   C44   A    
C69   C70   A    
C14   C17   A    
