data_mof_unit_16437.cif
_audit_creation_date              2012-12-10T20:43:20-0500
_audit_creation_method            fapswitch 2.2
_symmetry_space_group_name_H-M    P1
_symmetry_Int_Tables_number       1
_space_group_crystal_system       triclinic
_cell_length_a                    15.799388
_cell_length_b                    10.722917
_cell_length_c                    9.973097
_cell_angle_alpha                 91.418305
_cell_angle_beta                  90.202546
_cell_angle_gamma                 90.076538
_cell_volume                      1689.067573

loop_
_atom_site_label
_atom_site_type_symbol
_atom_type_description
_atom_site_fract_x
_atom_site_fract_y
_atom_site_fract_z
_atom_type_partial_charge
C1    C     C_R   0.494846 0.260468 0.498394 0.982257
C2    C     C_R   0.042786 0.580381 0.578556 -0.134011
C3    C     C_1   0.823966 0.489891 0.499169 0.075435
C4    C     C_1   0.176282 0.497115 0.500776 -0.019517
C5    C     C_1   0.251216 0.499339 0.499896 -0.140189
C6    C     C_1   0.748991 0.495089 0.499894 -0.018000
C7    C     C_R   0.498172 0.067028 0.616448 -0.047340
C8    C     C_R   0.480746 0.128587 0.497832 -0.192741
C9    C     C_R   0.446286 0.059425 0.387107 0.357983
C10   C     C_R   0.449239 0.929538 0.390850 -0.218332
C11   C     C_R   0.481039 0.870834 0.504531 -0.154541
C12   C     C_R   0.339660 0.500517 0.499852 0.874708
C13   C     C_R   0.494621 0.940350 0.621624 0.031749
C14   C     C_3   0.564961 0.935099 0.721197 -0.413550
C15   C     C_3   0.569939 0.075994 0.715556 0.257159
C16   C     C_R   0.425903 0.497602 0.069949 0.125444
C17   C     C_R   0.572088 0.477030 0.069785 0.222750
C18   C     C_R   0.573418 0.504656 0.931946 0.400975
C19   C     C_R   0.425671 0.492173 0.927904 0.032652
C20   C     C_3   0.355376 0.585385 0.923635 -0.495076
C21   C     C_3   0.356590 0.590937 0.076042 0.472623
C22   C     C_R   0.496443 0.739649 0.501350 0.879679
C23   C     C_R   0.660427 0.499978 0.500106 0.938616
C24   C     C_R   0.955252 0.576914 0.577550 -0.171111
C25   C     C_R   0.913120 0.485899 0.499902 0.003038
C26   C     C_R   0.958177 0.395848 0.423544 0.358599
C27   C     C_R   0.046128 0.401021 0.424755 -0.214725
C28   C     C_R   0.087436 0.492888 0.501565 0.084606
H1    H     H_    0.075540 0.651330 0.638216 0.166773
H2    H     H_    0.374991 0.673983 0.876901 0.243759
H3    H     H_    0.296210 0.543782 0.881577 0.180740
H4    H     H_    0.298000 0.555547 0.123389 0.107404
H5    H     H_    0.920320 0.645767 0.636397 0.183761
H6    H     H_    0.082552 0.334222 0.365512 0.192128
H7    H     H_    0.429887 0.874644 0.303585 0.261774
H8    H     H_    0.543543 0.901040 0.819858 0.235381
H9    H     H_    0.620960 0.887671 0.677588 0.227707
H10   H     H_    0.552413 0.124281 0.811402 0.152904
N1    N     N_R   0.499440 0.499140 0.142800 -0.150121
N2    N     N_R   0.499440 0.499180 0.857150 -0.163327
O1    O     O_R   0.500010 0.316790 0.614690 -0.623784
O2    O     O_R   0.500000 0.316760 0.385350 -0.511399
O3    O     O_R   0.378030 0.499990 0.614640 -0.630795
O4    O     O_R   0.378020 0.499950 0.385300 -0.584214
O5    O     O_R   0.500000 0.683240 0.614650 -0.581069
O6    O     O_R   0.499990 0.683210 0.385310 -0.597683
O7    O     O_R   0.621980 0.500050 0.614700 -0.520838
O8    O     O_R   0.621970 0.500010 0.385360 -0.616966
Zn1   Zn    Zn3+2 0.500010 0.500020 0.653130 1.051903
Zn2   Zn    Zn3+2 0.499990 0.499980 0.346870 1.101345
S1    S     S_3+6 0.669101 0.125494 0.647022 0.058401
O9    O     O_2   0.679296 0.263169 0.670864 -0.223485
O10   O     O_2   0.740779 0.060138 0.715446 -0.249702
O11   O     O_3   0.672464 0.092918 0.481260 -0.496038
H11   H     H_    0.674224 0.000658 0.473391 0.355136
S2    S     S_3+6 0.657106 0.381624 0.126153 0.187675
O12   O     O_2   0.630289 0.295681 0.234275 -0.170714
O13   O     O_2   0.686618 0.301814 0.009476 -0.172852
O14   O     O_3   0.740310 0.467540 0.180185 -0.431675
H12   H     H_    0.717430 0.549789 0.208267 0.354915
S3    S     S_3+6 0.666716 0.582028 0.878555 0.096188
O15   O     O_2   0.706155 0.652094 0.995065 -0.287722
O16   O     O_2   0.729598 0.488304 0.825337 -0.212520
O17   O     O_3   0.646082 0.687541 0.762637 -0.566992
H13   H     H_    0.702322 0.710462 0.726959 0.359877
F1    F     F_    0.384018 0.705320 0.126751 -0.631045
S4    S     S_3+6 0.908232 0.278604 0.323160 0.112160
O18   O     O_2   0.893130 0.328547 0.185783 -0.145524
O19   O     O_2   0.964484 0.165989 0.310458 -0.273015
O20   O     O_3   0.815263 0.235870 0.389023 -0.423037
H14   H     H_    0.829959 0.204624 0.478780 0.387498
S5    S     S_3+6 0.400541 0.127208 0.243293 0.061754
O21   O     O_2   0.469622 0.171176 0.152670 -0.228150
O22   O     O_2   0.347301 0.032917 0.167226 -0.250854
O23   O     O_3   0.339239 0.249075 0.288355 -0.549530
H15   H     H_    0.299422 0.215901 0.355224 0.334728

loop_
_geom_bond_atom_site_label_1
_geom_bond_atom_site_label_2
_ccdc_geom_bond_type
C16   C21   S    
C21   F1    S    
C1    C8    S    
C19   C20   S    
C9    S5    S    
C3    C6    T    
C7    C8    A    
O7    Zn1   S    
C20   H2    S    
C26   C27   A    
C2    H1    S    
C26   S4    S    
C12   O3    A    
C14   H8    S    
N2    Zn1   S    
S2    O12   D    
C17   N1    A    
S3    O16   D    
C18   N2    A    
C8    C9    A    
O20   H14   S    
C15   S1    S    
C9    C10   A    
C7    C15   S    
O14   H12   S    
C13   C14   S    
S5    O23   S    
O1    Zn1   S    
C4    C28   S    
C27   H6    S    
C21   H4    S    
C23   O7    A    
S4    O18   D    
C3    C25   S    
C24   C25   A    
C5    C12   S    
S5    O22   D    
C19   N2    A    
S5    O21   D    
C25   C26   A    
S1    O9    D    
S1    O10   D    
S3    O17   S    
O23   H15   S    
C15   H10   S    
O5    Zn1   S    
C22   O5    A    
C17   C18   A    
C17   S2    S    
C10   H7    S    
O2    Zn2   S    
C1    O1    A    
C22   O6    A    
C2    C24   A    
O4    Zn2   S    
O11   H11   S    
C23   O8    A    
O3    Zn1   S    
C4    C5    T    
C18   S3    S    
O6    Zn2   S    
C11   C22   S    
C24   H5    S    
S2    O14   S    
S4    O20   S    
O17   H13   S    
S1    O11   S    
C12   O4    A    
C14   H9    S    
C11   C13   A    
C16   C19   A    
C6    C23   S    
O8    Zn2   S    
S2    O13   D    
S3    O15   D    
C10   C11   A    
C16   N1    A    
C1    O2    A    
C7    C13   A    
N1    Zn2   S    
C20   C21   S    
C27   C28   A    
C14   C15   S    
C2    C28   A    
S4    O19   D    
C20   H3    S    
