data_mof_unit_37092.cif
_audit_creation_date              2012-12-10T17:12:35-0500
_audit_creation_method            fapswitch 2.2
_symmetry_space_group_name_H-M    P1
_symmetry_Int_Tables_number       1
_space_group_crystal_system       triclinic
_cell_length_a                    23.404528
_cell_length_b                    10.740647
_cell_length_c                    10.031843
_cell_angle_alpha                 92.777856
_cell_angle_beta                  88.928868
_cell_angle_gamma                 90.611751
_cell_volume                      2518.27846553

loop_
_atom_site_label
_atom_site_type_symbol
_atom_type_description
_atom_site_fract_x
_atom_site_fract_y
_atom_site_fract_z
_atom_type_partial_charge
C1    C     C_R   0.500340 0.263004 0.496027 0.916237
C2    C     C_R   0.122037 0.561288 0.397656 0.515348
C3    C     C_R   0.239758 0.584290 0.596838 0.056129
C4    C     C_R   0.389587 0.499043 0.501113 0.895513
C5    C     C_R   0.299061 0.577781 0.596402 -0.313368
C6    C     C_R   0.327616 0.497701 0.503811 -0.074657
C7    C     C_R   0.296750 0.420445 0.412585 0.187721
C8    C     C_R   0.237321 0.427053 0.413868 -0.184741
C9    C     C_R   0.208883 0.508287 0.505157 0.241630
C10   C     C_R   0.762995 0.403260 0.470556 -0.178464
C11   C     C_R   0.703667 0.396420 0.475989 0.159040
C12   C     C_R   0.966846 0.417199 0.713672 0.218028
C13   C     C_R   0.672238 0.506670 0.497454 -0.117687
C14   C     C_R   0.700337 0.622755 0.517879 -0.133414
C15   C     C_R   0.760261 0.627856 0.515352 0.007884
C16   C     C_R   0.501556 0.737863 0.503431 0.908205
C17   C     C_R   0.791123 0.517469 0.491043 0.227230
C18   C     C_2   0.523299 0.929019 0.401077 -0.258561
C19   C     C_2   0.512215 0.869606 0.513840 0.041792
C20   C     C_2   0.531631 0.063178 0.401202 0.262422
C21   C     C_2   0.497056 0.131668 0.483576 -0.418697
C22   C     C_2   0.533456 0.572176 0.926083 0.200157
C23   C     C_R   0.026452 0.417282 0.713149 -0.244729
C24   C     C_2   0.539514 0.555061 0.074853 0.179809
C25   C     C_R   0.610301 0.500344 0.498998 0.911549
C26   C     C_R   0.882159 0.560152 0.387170 0.532095
C27   C     C_R   0.877985 0.475029 0.602951 0.519363
C28   C     C_R   0.937894 0.467631 0.606017 -0.050090
C29   C     C_R   0.969873 0.513441 0.497117 -0.062735
C30   C     C_R   0.941760 0.560287 0.387402 -0.032410
C31   C     C_3   0.924013 0.232256 0.799532 -0.667765
C32   C     C_3   0.661875 0.222106 0.586008 -0.771737
C33   C     C_1   0.668060 0.736114 0.543094 0.160610
C34   C     C_R   0.058093 0.464406 0.606769 -0.026208
C35   C     C_1   0.790454 0.744899 0.540192 0.223362
C36   C     C_3   0.468585 0.931054 0.732086 -0.755227
C37   C     C_3   0.616733 0.038808 0.251937 -0.792311
C38   C     C_3   0.576110 0.783482 0.926813 -0.756755
C39   C     C_3   0.640183 0.531193 0.117630 -0.712325
C40   C     C_3   0.074687 0.549697 0.062909 -0.655931
C41   C     C_1   0.211213 0.670958 0.689482 0.210075
C42   C     C_3   0.343644 0.222236 0.377938 -0.749233
C43   C     C_R   0.030034 0.512559 0.497730 -0.060975
C44   C     C_R   0.062062 0.559667 0.389594 -0.050145
C45   C     C_R   0.033069 0.604114 0.278709 0.213406
C46   C     C_R   0.973421 0.604852 0.279660 -0.231357
C47   C     C_R   0.117634 0.462856 0.606307 0.527175
H1    H     H_    0.524011 0.878865 0.304451 0.164431
H2    H     H_    0.955389 0.382410 0.913178 0.215136
H3    H     H_    0.964180 0.177816 0.792585 0.213823
H4    H     H_    0.899696 0.215550 0.706152 0.253685
H5    H     H_    0.897516 0.199404 0.884058 0.239753
H6    H     H_    0.697067 0.216785 0.395664 0.234978
H7    H     H_    0.638678 0.132691 0.565791 0.242313
H8    H     H_    0.633871 0.284087 0.649510 0.258871
H9    H     H_    0.701483 0.202998 0.640631 0.255769
H10   H     H_    0.547794 0.999491 0.657545 0.241039
H11   H     H_    0.460962 0.028226 0.770756 0.225769
H12   H     H_    0.462963 0.090091 0.541219 0.161646
H13   H     H_    0.475291 0.872164 0.817828 0.264924
H14   H     H_    0.429684 0.896732 0.679263 0.228902
H15   H     H_    0.586020 0.206712 0.335507 0.261362
H16   H     H_    0.645808 0.095169 0.189509 0.236219
H17   H     H_    0.598107 0.963726 0.185921 0.244492
H18   H     H_    0.642055 0.997903 0.331251 0.254812
H19   H     H_    0.606238 0.624758 0.820907 0.246503
H20   H     H_    0.582047 0.853289 0.849849 0.261819
H21   H     H_    0.615066 0.786647 0.988375 0.242356
H22   H     H_    0.538238 0.809434 0.990284 0.225595
H23   H     H_    0.479440 0.429336 0.896315 0.132952
H24   H     H_    0.583946 0.651295 0.227686 0.270913
H25   H     H_    0.676687 0.579623 0.167636 0.243843
H26   H     H_    0.651038 0.516945 0.009789 0.231866
H27   H     H_    0.633537 0.438930 0.161294 0.251476
H28   H     H_    0.044841 0.723616 0.125253 0.222962
H29   H     H_    0.034033 0.512453 0.020831 0.193267
H30   H     H_    0.098744 0.472585 0.105085 0.254103
H31   H     H_    0.100934 0.588547 0.981131 0.258150
H32   H     H_    0.303371 0.317970 0.232968 0.231451
H33   H     H_    0.306028 0.166648 0.410533 0.237988
H34   H     H_    0.047881 0.378355 0.796213 0.187598
H35   H     H_    0.371461 0.243480 0.464712 0.228974
H36   H     H_    0.368570 0.165811 0.302080 0.242676
H37   H     H_    0.463139 0.474830 0.102317 0.142259
H38   H     H_    0.951972 0.639399 0.194241 0.192619
H39   H     H_    0.323166 0.637496 0.665759 0.165997
H40   H     H_    0.212877 0.368077 0.344719 0.144612
H41   H     H_    0.787678 0.318916 0.454197 0.145548
N1    N     N_R   0.851983 0.518699 0.494041 -0.351863
N2    N     N_2   0.572180 0.117520 0.310930 -0.280371
N3    N     N_2   0.568937 0.661054 0.861775 -0.231465
N4    N     N_2   0.589405 0.606189 0.135765 -0.294559
N5    N     N_2   0.063062 0.646741 0.164598 -0.251990
N6    N     N_1   0.188261 0.740350 0.763775 -0.189723
N7    N     N_2   0.325084 0.335705 0.320539 -0.292696
N8    N     N_R   0.147992 0.512019 0.503725 -0.353832
N9    N     N_2   0.500610 0.501330 0.852150 -0.226987
N10   N     N_2   0.500630 0.501360 0.147810 -0.226428
N11   N     N_2   0.936817 0.363617 0.821841 -0.250246
N12   N     N_2   0.675959 0.278242 0.461173 -0.334852
N13   N     N_1   0.642805 0.827204 0.563622 -0.225736
N14   N     N_1   0.814604 0.838354 0.560012 -0.198326
N15   N     N_2   0.518782 0.927149 0.644743 -0.292793
O1    O     O_R   0.499990 0.319060 0.613040 -0.615897
O2    O     O_R   0.583840 0.500020 0.613040 -0.626754
O3    O     O_R   0.583850 0.500060 0.386900 -0.627654
O4    O     O_2   0.854321 0.600866 0.281191 -0.558481
O5    O     O_2   0.845526 0.440504 0.707696 -0.523574
O6    O     O_2   0.145255 0.412294 0.707263 -0.564982
O7    O     O_2   0.154553 0.612610 0.301934 -0.525064
O8    O     O_R   0.500010 0.319100 0.386900 -0.595752
O9    O     O_R   0.416150 0.499940 0.613100 -0.620157
O10   O     O_R   0.416160 0.499980 0.386960 -0.585938
O11   O     O_R   0.499990 0.680900 0.613100 -0.564903
O12   O     O_R   0.500010 0.680940 0.386960 -0.659191
Zn1   Zn    Zn3+2 0.499990 0.499970 0.650990 0.955471
Zn2   Zn    Zn3+2 0.500010 0.500030 0.349010 0.946034

loop_
_geom_bond_atom_site_label_1
_geom_bond_atom_site_label_2
_ccdc_geom_bond_type
C1    C21   S    
O2    Zn1   S    
C42   H35   S    
C40   N5    S    
C35   N14   T    
C45   N5    S    
C14   C33   S    
C25   O2    A    
C7    C8    A    
C45   C46   A    
C26   N1    A    
C42   H33   S    
C12   C23   A    
C10   H41   S    
C37   N2    S    
C12   C28   A    
C36   N15   S    
C33   N13   T    
C28   C29   A    
C21   H12   S    
C36   H11   S    
C5    C6    A    
C10   C17   A    
C18   C19   D    
C39   H27   S    
C15   C35   S    
C12   N11   S    
O1    Zn1   S    
C19   N15   S    
C3    C41   S    
H24   N4    S    
C2    C44   A    
C8    C9    A    
O12   Zn2   S    
C37   H18   S    
C22   N3    S    
C31   N11   S    
C31   H5    S    
C32   H8    S    
C18   C20   S    
H23   N9    S    
C46   H38   S    
C4    O9    A    
C38   H22   S    
C22   N9    D    
C13   C14   A    
C29   C43   A    
C13   C25   S    
C24   N4    S    
C32   H7    S    
C37   H16   S    
C25   O3    A    
H6    N12   S    
H10   N15   S    
C42   H36   S    
C42   N7    S    
C4    O10   A    
C17   N1    S    
C4    C6    S    
C47   N8    A    
C3    C5    A    
C47   O6    S    
C20   N2    S    
C38   N3    S    
C32   N12   S    
C16   O11   A    
C11   N12   S    
C43   C44   A    
H32   N7    S    
C29   C30   A    
C3    C9    A    
H2    N11   S    
C41   N6    T    
C1    O1    A    
C39   H25   S    
C23   C34   A    
C38   H20   S    
N9    Zn1   S    
C9    N8    S    
H19   N3    S    
O10   Zn2   S    
C5    H39   S    
C24   N10   D    
C38   H21   S    
C26   C30   A    
O3    Zn2   S    
C22   C24   S    
C31   H3    S    
C36   H14   S    
C16   O12   A    
C39   N4    S    
O9    Zn1   S    
C37   H17   S    
C44   C45   A    
H28   N5    S    
N10   Zn2   S    
C15   C17   A    
C2    O7    S    
C23   H34   S    
C40   H30   S    
C30   C46   A    
C34   C43   A    
C31   H4    S    
C36   H13   S    
C18   H1    S    
C26   O4    S    
O11   Zn1   S    
C6    C7    A    
C7    N7    S    
O8    Zn2   S    
C8    H40   S    
H37   N10   S    
C2    N8    A    
C1    O8    A    
C11   C13   A    
C27   O5    S    
C16   C19   S    
H15   N2    S    
C27   N1    A    
C40   H31   S    
C39   H26   S    
C10   C11   A    
C40   H29   S    
C20   C21   D    
C27   C28   A    
C14   C15   A    
C34   C47   A    
C32   H9    S    
