data_mof_unit_18075.cif
_audit_creation_date              2012-12-11T15:26:34-0500
_audit_creation_method            fapswitch 2.2
_symmetry_space_group_name_H-M    P1
_symmetry_Int_Tables_number       1
_space_group_crystal_system       triclinic
_cell_length_a                    7.221402
_cell_length_b                    12.112323
_cell_length_c                    29.101581
_cell_angle_alpha                 90.000055
_cell_angle_beta                  89.998378
_cell_angle_gamma                 89.999364
_cell_volume                      2545.45573358

loop_
_atom_site_label
_atom_site_type_symbol
_atom_type_description
_atom_site_fract_x
_atom_site_fract_y
_atom_site_fract_z
_atom_type_partial_charge
O1    O     O_R   0.647170 0.849180 0.201220 -0.534291
O2    O     O_R   0.352830 0.150820 0.798780 -0.534289
O3    O     O_R   0.352830 0.150820 0.701220 -0.534299
O4    O     O_R   0.647170 0.849180 0.298780 -0.534291
O5    O     O_R   0.147170 0.650820 0.298780 -0.534286
O6    O     O_R   0.852830 0.349180 0.701220 -0.534286
O7    O     O_R   0.852830 0.349180 0.798780 -0.534293
O8    O     O_R   0.147170 0.650820 0.201220 -0.534293
O9    O     O_R   0.317430 0.862210 0.298450 -0.539247
O10   O     O_R   0.682570 0.137790 0.701550 -0.539241
O11   O     O_R   0.682570 0.137790 0.798450 -0.539260
O12   O     O_R   0.317430 0.862210 0.201550 -0.539258
O13   O     O_R   0.817430 0.637790 0.201550 -0.539250
O14   O     O_R   0.182570 0.362210 0.798450 -0.539250
O15   O     O_R   0.182570 0.362210 0.701550 -0.539260
O16   O     O_R   0.817430 0.637790 0.298450 -0.539258
H1    H     H_    0.916781 0.228540 0.453466 0.134082
H2    H     H_    0.083186 0.771467 0.546536 0.134079
H3    H     H_    0.083446 0.771492 0.953461 0.134026
H4    H     H_    0.916550 0.228509 0.046538 0.134026
H5    H     H_    0.416786 0.271498 0.046541 0.134047
H6    H     H_    0.583208 0.728501 0.953459 0.134047
H7    H     H_    0.583902 0.728559 0.546532 0.134019
H8    H     H_    0.416155 0.271438 0.453467 0.134033
C1    C     C_R   0.485741 0.887835 0.313352 0.685632
C2    C     C_R   0.514259 0.112164 0.686648 0.685628
C3    C     C_R   0.514254 0.112167 0.813353 0.685644
C4    C     C_R   0.485746 0.887833 0.186647 0.685644
C5    C     C_R   0.985746 0.612165 0.186648 0.685634
C6    C     C_R   0.014254 0.387835 0.813352 0.685634
C7    C     C_R   0.014255 0.387831 0.686646 0.685651
C8    C     C_R   0.985744 0.612169 0.313354 0.685649
H9    H     H_    0.011969 0.610634 0.691286 0.101136
H10   H     H_    0.988042 0.389365 0.308716 0.101135
H11   H     H_    0.987822 0.389326 0.191286 0.101144
H12   H     H_    0.012178 0.610674 0.808713 0.101144
H13   H     H_    0.512001 0.889340 0.808713 0.101140
H14   H     H_    0.487996 0.110660 0.191287 0.101140
H15   H     H_    0.487655 0.110659 0.308716 0.101143
H16   H     H_    0.512691 0.889320 0.691286 0.101149
H17   H     H_    0.969551 0.260202 0.373331 0.126904
H18   H     H_    0.030439 0.739800 0.626672 0.126906
H19   H     H_    0.030737 0.739845 0.873327 0.126875
H20   H     H_    0.969261 0.260155 0.126673 0.126875
H21   H     H_    0.469510 0.239834 0.126674 0.126883
H22   H     H_    0.530485 0.760166 0.873326 0.126883
H23   H     H_    0.531378 0.760167 0.626671 0.126871
H24   H     H_    0.468952 0.239816 0.373332 0.126890
H25   H     H_    0.021107 0.337834 0.599161 0.174421
H26   H     H_    0.978868 0.662170 0.400838 0.174405
H27   H     H_    0.979003 0.662197 0.099164 0.174373
H28   H     H_    0.020996 0.337803 0.900836 0.174372
H29   H     H_    0.521110 0.162186 0.900838 0.174405
H30   H     H_    0.478891 0.837813 0.099163 0.174404
H31   H     H_    0.479090 0.837810 0.400834 0.174372
H32   H     H_    0.520655 0.162206 0.599168 0.174361
O17   O     O_3   0.480630 0.680630 0.250000 -0.377932
O18   O     O_3   0.519370 0.319370 0.750000 -0.377933
O19   O     O_3   0.980630 0.819370 0.250000 -0.377931
O20   O     O_3   0.019370 0.180630 0.750000 -0.377930
V1    V     V_3+5 0.205800 0.762860 0.250000 1.447142
V2    V     V_3+5 0.794200 0.237140 0.750000 1.447144
V3    V     V_3+5 0.705800 0.737140 0.250000 1.447137
V4    V     V_3+5 0.294200 0.262860 0.750000 1.447129
C9    C     C_R   0.993309 0.534298 0.351722 -0.062739
C10   C     C_R   0.006688 0.465704 0.648279 -0.062742
C11   C     C_R   0.006696 0.465707 0.851721 -0.062744
C12   C     C_R   0.993304 0.534293 0.148279 -0.062744
C13   C     C_R   0.493314 0.965704 0.148279 -0.062739
C14   C     C_R   0.506686 0.034296 0.851721 -0.062737
C15   C     C_R   0.506726 0.034288 0.648281 -0.062760
C16   C     C_R   0.493279 0.965709 0.351720 -0.062763
C17   C     C_R   0.981778 0.347787 0.380366 -0.141435
C18   C     C_R   0.018210 0.652216 0.619636 -0.141443
C19   C     C_R   0.018409 0.652246 0.880362 -0.141375
C20   C     C_R   0.981590 0.347754 0.119638 -0.141375
C21   C     C_R   0.481754 0.152237 0.119638 -0.141399
C22   C     C_R   0.518242 0.847763 0.880362 -0.141400
C23   C     C_R   0.518824 0.847759 0.619637 -0.141348
C24   C     C_R   0.481371 0.152228 0.380366 -0.141387
C25   C     C_R   0.990716 0.420919 0.343547 -0.179001
C26   C     C_R   0.009285 0.579083 0.656455 -0.179005
C27   C     C_R   0.009427 0.579109 0.843543 -0.179016
C28   C     C_R   0.990573 0.420891 0.156457 -0.179016
C29   C     C_R   0.490692 0.079099 0.156457 -0.179015
C30   C     C_R   0.509306 0.920901 0.843543 -0.179015
C31   C     C_R   0.509764 0.920886 0.656458 -0.179013
C32   C     C_R   0.490436 0.079100 0.343546 -0.179008
C33   C     C_R   0.995290 0.574310 0.396817 -0.130804
C34   C     C_R   0.004691 0.425694 0.603183 -0.130813
C35   C     C_R   0.004654 0.425684 0.896819 -0.130757
C36   C     C_R   0.995345 0.574317 0.103181 -0.130757
C37   C     C_R   0.495304 0.925684 0.103182 -0.130794
C38   C     C_R   0.504696 0.074315 0.896818 -0.130794
C39   C     C_R   0.504505 0.074313 0.603183 -0.130734
C40   C     C_R   0.495360 0.925689 0.396816 -0.130710
C41   C     C_R   0.002289 0.501623 0.434957 0.092676
C42   C     C_R   0.997684 0.498383 0.565044 0.092677
C43   C     C_R   0.997707 0.498383 0.934957 0.092605
C44   C     C_R   0.002292 0.501617 0.065043 0.092605
C45   C     C_R   0.502301 0.998379 0.065042 0.092628
C46   C     C_R   0.497698 0.001620 0.934957 0.092629
C47   C     C_R   0.497682 0.001609 0.565044 0.092583
C48   C     C_R   0.502225 0.998383 0.434955 0.092624
C49   C     C_R   0.981670 0.387397 0.425764 0.073046
C50   C     C_R   0.018305 0.612608 0.574238 0.073056
C51   C     C_R   0.018436 0.612624 0.925762 0.073063
C52   C     C_R   0.981562 0.387376 0.074238 0.073064
C53   C     C_R   0.481671 0.112619 0.074240 0.073059
C54   C     C_R   0.518327 0.887380 0.925760 0.073059
C55   C     C_R   0.518659 0.887382 0.574238 0.073069
C56   C     C_R   0.481370 0.112609 0.425764 0.073061
C57   C     C_R   0.017618 0.538510 0.481693 -0.058128
C58   C     C_R   0.982347 0.461497 0.518308 -0.058133
C59   C     C_R   0.982333 0.461492 0.981692 -0.058181
C60   C     C_R   0.017665 0.538509 0.018308 -0.058181
C61   C     C_R   0.517635 0.961487 0.018308 -0.058166
C62   C     C_R   0.482363 0.038512 0.981692 -0.058167
C63   C     C_R   0.482222 0.038491 0.518309 -0.058144
C64   C     C_R   0.517645 0.961497 0.481691 -0.058172
C65   C     C_R   0.929935 0.351300 0.506828 0.362829
C66   C     C_R   0.070026 0.648709 0.493174 0.362793
C67   C     C_R   0.070164 0.648715 0.006827 0.362953
C68   C     C_R   0.929832 0.351286 0.993173 0.362950
C69   C     C_R   0.429955 0.148726 0.993175 0.362901
C70   C     C_R   0.570042 0.851273 0.006824 0.362901
C71   C     C_R   0.570303 0.851320 0.493168 0.362923
C72   C     C_R   0.429584 0.148669 0.506831 0.362917
C73   C     C_R   0.946285 0.314242 0.461447 -0.282525
C74   C     C_R   0.053682 0.685765 0.538555 -0.282542
C75   C     C_R   0.053864 0.685782 0.961444 -0.282406
C76   C     C_R   0.946132 0.314219 0.038556 -0.282407
C77   C     C_R   0.446292 0.185785 0.038557 -0.282462
C78   C     C_R   0.553704 0.814214 0.961442 -0.282462
C79   C     C_R   0.554153 0.814248 0.538552 -0.282363
C80   C     C_R   0.445844 0.185745 0.461448 -0.282394
O21   O     O_3   0.849777 0.282868 0.539217 -0.651320
H33   H     H_    0.823426 0.209536 0.525538 0.294146
O22   O     O_3   0.150175 0.717144 0.460784 -0.651324
H34   H     H_    0.176503 0.790478 0.474462 0.294142
O23   O     O_3   0.150368 0.717141 0.039215 -0.651330
H35   H     H_    0.176698 0.790486 0.025540 0.294101
O24   O     O_3   0.849627 0.282860 0.960785 -0.651331
H36   H     H_    0.823298 0.209515 0.974460 0.294101
O25   O     O_3   0.349810 0.217174 0.960787 -0.651323
H37   H     H_    0.323509 0.290517 0.974466 0.294117
O26   O     O_3   0.650186 0.782825 0.039212 -0.651323
H38   H     H_    0.676484 0.709481 0.025534 0.294118
O27   O     O_3   0.650530 0.782932 0.460769 -0.651353
H39   H     H_    0.677015 0.709610 0.474442 0.294105
O28   O     O_3   0.349295 0.217057 0.539219 -0.651365
H40   H     H_    0.322931 0.290397 0.525549 0.294102

loop_
_geom_bond_atom_site_label_1
_geom_bond_atom_site_label_2
_ccdc_geom_bond_type
C7    C10   S    
C11   C27   A    
C60   C67   A    
H32   C39   S    
C4    C13   S    
C44   C60   A    
H23   C23   S    
H25   C34   S    
O11   V2    S    
C19   C27   A    
C20   C28   A    
C23   C31   A    
O25   H37   S    
C64   C71   A    
O9    C1    A    
C10   C34   A    
O3    V4    S    
C9    C33   A    
O4    V3    S    
H6    C78   S    
O9    V1    S    
O8    C5    A    
H16   C31   S    
O13   C5    A    
C14   C38   A    
C71   C79   A    
C66   O22   S    
C13   C37   A    
C72   C80   A    
C43   C59   A    
C42   C58   A    
O27   H39   S    
C15   C39   A    
H12   C27   S    
C45   C53   A    
O24   H36   S    
C68   C76   A    
O20   V2    S    
O19   V1    S    
C65   O21   S    
H20   C20   S    
H30   C37   S    
C72   O28   S    
C58   C65   A    
C9    C25   A    
H5    C77   S    
C57   C66   A    
O26   H38   S    
C39   C47   A    
O1    C4    A    
O15   V4    S    
C68   O24   S    
O17   V3    S    
O2    C3    A    
O16   V3    S    
C61   C70   A    
C6    C11   S    
C46   C62   A    
O8    V1    S    
O5    C8    A    
C41   C49   A    
C63   C72   A    
H8    C80   S    
O6    C7    A    
C21   C29   A    
C20   C52   A    
O7    C6    A    
H19   C19   S    
C2    C15   S    
C24   C56   A    
O10   V2    S    
H15   C32   S    
C56   C80   A    
O1    V3    S    
C17   C25   A    
C16   C32   A    
O2    V4    S    
O4    C1    A    
H3    C75   S    
O22   H34   S    
C44   C52   A    
H18   C18   S    
H14   C29   S    
C53   C77   A    
C12   C28   A    
C19   C51   A    
C51   C75   A    
C37   C45   A    
H22   C22   S    
C49   C73   A    
O18   V4    S    
O14   C6    A    
H1    C73   S    
C33   C41   A    
H4    C76   S    
O7    V2    S    
H11   C28   S    
H27   C36   S    
C18   C50   A    
C5    C12   S    
H13   C30   S    
H26   C33   S    
C17   C49   A    
O13   V3    S    
O11   C3    A    
O28   H40   S    
O14   V4    S    
C67   O23   S    
C11   C35   A    
O10   C2    A    
O5    V1    S    
C22   C54   A    
C1    C16   S    
C63   C64   A    
C21   C53   A    
C38   C46   A    
C3    C14   S    
C15   C31   A    
C62   C69   A    
O12   C4    A    
C40   C48   A    
H2    C74   S    
C41   C57   A    
C14   C30   A    
C13   C29   A    
C36   C44   A    
C48   C56   A    
C57   C58   A    
H9    C26   S    
C69   C77   A    
C50   C74   A    
C59   C68   A    
C67   C75   A    
H29   C38   S    
O3    C2    A    
C47   C63   A    
C65   C73   A    
H31   C40   S    
C70   O26   S    
O15   C7    A    
C47   C55   A    
H7    C79   S    
O16   C8    A    
C43   C51   A    
O21   H33   S    
C42   C50   A    
C23   C55   A    
O6    V2    S    
C45   C61   A    
H24   C24   S    
C24   C32   A    
C69   O25   S    
O23   H35   S    
C71   O27   S    
O12   V1    S    
C55   C79   A    
C59   C60   A    
C46   C54   A    
C12   C36   A    
C34   C42   A    
C52   C76   A    
C54   C78   A    
H17   C17   S    
C16   C40   A    
C70   C78   A    
C22   C30   A    
H28   C35   S    
H21   C21   S    
C35   C43   A    
C61   C62   A    
C66   C74   A    
H10   C25   S    
C18   C26   A    
C10   C26   A    
C8    C9    S    
C48   C64   A    
