data_mof_unit_58787.cif
_audit_creation_date              2012-12-10T17:04:31-0500
_audit_creation_method            fapswitch 2.2
_symmetry_space_group_name_H-M    P1
_symmetry_Int_Tables_number       1
_space_group_crystal_system       triclinic
_cell_length_a                    14.948047
_cell_length_b                    10.718651
_cell_length_c                    10.035122
_cell_angle_alpha                 89.915161
_cell_angle_beta                  89.318469
_cell_angle_gamma                 90.257467
_cell_volume                      1607.72446661

loop_
_atom_site_label
_atom_site_type_symbol
_atom_type_description
_atom_site_fract_x
_atom_site_fract_y
_atom_site_fract_z
_atom_type_partial_charge
C1    C     C_R   0.495834 0.262770 0.499928 0.932216
C2    C     C_R   0.906379 0.568940 0.583271 0.121784
C3    C     C_R   0.954318 0.304255 0.352345 -0.199962
C4    C     C_R   0.046993 0.304396 0.352243 -0.242240
C5    C     C_R   0.094271 0.393425 0.426405 0.068814
C6    C     C_R   0.046606 0.479890 0.506445 0.037412
C7    C     C_R   0.092253 0.567603 0.585951 0.126174
C8    C     C_R   0.045095 0.653074 0.664772 -0.206055
C9    C     C_R   0.952359 0.654039 0.663071 -0.205910
C10   C     C_R   0.188006 0.400184 0.421400 0.138036
C11   C     C_R   0.231505 0.488861 0.501270 -0.108661
C12   C     C_R   0.327027 0.497184 0.500470 0.924401
C13   C     C_R   0.184569 0.569825 0.584224 -0.320194
C14   C     C_2   0.488531 0.933045 0.393369 -0.259168
C15   C     C_2   0.521782 0.868598 0.496317 0.078923
C16   C     C_2   0.494621 0.066753 0.387540 -0.181516
C17   C     C_2   0.483346 0.131387 0.499593 -0.338341
C18   C     C_2   0.539458 0.584207 0.924351 -0.132335
C19   C     C_2   0.555109 0.567547 0.072249 0.154724
C20   C     C_R   0.504054 0.737468 0.499750 0.893995
C21   C     C_R   0.672883 0.496367 0.499187 0.906377
C22   C     C_R   0.814184 0.572418 0.578596 -0.299108
C23   C     C_R   0.768288 0.488748 0.498139 -0.122288
C24   C     C_R   0.813140 0.396135 0.423883 0.137068
C25   C     C_R   0.906541 0.392652 0.427078 0.091531
C26   C     C_R   0.953133 0.480102 0.505903 0.024921
H1    H     H_    0.777672 0.641388 0.636548 0.159812
H2    H     H_    0.506333 0.111062 0.291425 0.183849
H3    H     H_    0.465120 0.086567 0.593181 0.181714
H4    H     H_    0.566971 0.664828 0.873344 0.182636
H5    H     H_    0.481687 0.419886 0.898950 0.159110
H6    H     H_    0.443998 0.467660 0.103677 0.147439
H7    H     H_    0.920506 0.235429 0.291913 0.179923
H8    H     H_    0.080609 0.234716 0.292480 0.155669
H9    H     H_    0.220347 0.637052 0.644699 0.159177
H10   H     H_    0.079976 0.720186 0.726204 0.144550
H11   H     H_    0.916613 0.721855 0.723202 0.146213
H12   H     H_    0.450057 0.887835 0.315691 0.164155
N1    N     N_2   0.500970 0.501330 0.852150 -0.212935
N2    N     N_2   0.500990 0.501360 0.147810 -0.231507
O1    O     O_R   0.499990 0.319060 0.613040 -0.624922
O2    O     O_R   0.500010 0.319100 0.386900 -0.603449
O3    O     O_R   0.367830 0.499950 0.613080 -0.621111
O4    O     O_R   0.367860 0.499990 0.386940 -0.599171
O5    O     O_R   0.499990 0.680900 0.613100 -0.606512
O6    O     O_R   0.500010 0.680940 0.386960 -0.650975
O7    O     O_R   0.632140 0.500010 0.613060 -0.602969
O8    O     O_R   0.632170 0.500050 0.386920 -0.657710
Zn1   Zn    Zn3+2 0.499980 0.499970 0.650990 0.939748
Zn2   Zn    Zn3+2 0.500020 0.500030 0.349010 0.917651
N3    N     N_2   0.588227 0.918984 0.583153 -0.309394
H13   H     H_    0.627841 0.991162 0.548184 0.246215
C27   C     C_3   0.570608 0.918103 0.725398 -0.797111
H14   H     H_    0.574266 0.014746 0.764803 0.229468
H15   H     H_    0.622318 0.861353 0.775118 0.242923
H16   H     H_    0.503210 0.879927 0.750212 0.250247
C28   C     C_3   0.637514 0.626857 0.133645 -0.287313
C29   C     C_3   0.691593 0.714962 0.043271 -0.993958
H17   H     H_    0.716742 0.665117 0.953441 0.270881
H18   H     H_    0.650284 0.796110 0.013895 0.260834
H19   H     H_    0.750320 0.750770 0.098436 0.266547
H20   H     H_    0.617794 0.681359 0.222507 0.247214
H21   H     H_    0.683218 0.550870 0.163756 0.216121
N4    N     N_2   0.765489 0.303977 0.350246 -0.321153
H22   H     H_    0.716982 0.337031 0.287630 0.250054
C30   C     C_3   0.737523 0.196387 0.427432 -0.803090
H23   H     H_    0.689003 0.224173 0.506489 0.235663
H24   H     H_    0.796295 0.151525 0.474019 0.250062
H25   H     H_    0.705053 0.127315 0.361083 0.239076
N5    N     N_2   0.239684 0.316392 0.341589 -0.300804
H26   H     H_    0.225221 0.223352 0.357260 0.213969
C31   C     C_3   0.247336 0.349577 0.201874 -0.742533
H27   H     H_    0.182488 0.336398 0.150999 0.222668
H28   H     H_    0.298121 0.289256 0.152888 0.225596
H29   H     H_    0.268721 0.448328 0.189845 0.256833

loop_
_geom_bond_atom_site_label_1
_geom_bond_atom_site_label_2
_ccdc_geom_bond_type
C2    C26   A    
C16   H2    S    
C7    C13   A    
C30   H24   S    
C11   C12   S    
C2    C22   A    
N5    H26   S    
C18   H4    S    
C15   N3    S    
C8    C9    A    
C14   H12   S    
C17   H3    S    
O6    Zn2   S    
C27   H15   S    
C1    C17   S    
C20   O5    A    
O5    Zn1   S    
C23   C24   A    
C21   O8    A    
N4    H22   S    
C29   H19   S    
O8    Zn2   S    
C30   H23   S    
C25   C26   A    
C28   H20   S    
C12   O4    A    
C6    C26   A    
C27   H14   S    
C19   C28   S    
C1    O1    A    
C11   C13   A    
C28   C29   S    
C6    C7    A    
O2    Zn2   S    
C31   H29   S    
N2    Zn2   S    
C5    C6    A    
C10   N5    S    
O1    Zn1   S    
N1    Zn1   S    
O7    Zn1   S    
C28   H21   S    
C12   O3    A    
C4    H8    S    
C22   H1    S    
H6    N2    S    
C21   C23   S    
C8    H10   S    
C15   C20   S    
C14   C16   S    
C30   H25   S    
C7    C8    A    
C19   N2    D    
C3    H7    S    
C29   H18   S    
C3    C4    A    
C20   O6    A    
C1    O2    A    
C3    C25   A    
N3    H13   S    
C24   C25   A    
C31   H27   S    
C31   H28   S    
C18   C19   S    
C10   C11   A    
C27   H16   S    
O4    Zn2   S    
C18   N1    D    
C21   O7    A    
C14   C15   D    
C16   C17   D    
N5    C31   S    
C5    C10   A    
C29   H17   S    
C22   C23   A    
C2    C9    A    
C13   H9    S    
O3    Zn1   S    
C24   N4    S    
H5    N1    S    
C4    C5    A    
N3    C27   S    
C9    H11   S    
N4    C30   S    
