data_mof_unit_19358.cif
_audit_creation_date              2012-12-10T18:33:33-0500
_audit_creation_method            fapswitch 2.2
_symmetry_space_group_name_H-M    P1
_symmetry_Int_Tables_number       1
_space_group_crystal_system       triclinic
_cell_length_a                    8.717936
_cell_length_b                    15.099933
_cell_length_c                    13.872231
_cell_angle_alpha                 90.006154
_cell_angle_beta                  98.007677
_cell_angle_gamma                 90.19547
_cell_volume                      1808.32713638

loop_
_atom_site_label
_atom_site_type_symbol
_atom_type_description
_atom_site_fract_x
_atom_site_fract_y
_atom_site_fract_z
_atom_type_partial_charge
C1    C     C_R   0.500415 0.330082 0.500023 0.840199
C2    C     C_R   0.500738 0.670254 0.500091 0.847994
C3    C     C_R   0.618620 0.544206 0.118583 0.340518
C4    C     C_R   0.468878 0.421199 0.889653 0.334437
C5    C     C_R   0.613154 0.544516 0.219802 -0.009387
C6    C     C_R   0.465675 0.424089 0.787649 -0.017270
C7    C     C_R   0.387678 0.455627 0.199302 0.036380
C8    C     C_R   0.533799 0.575451 0.794416 0.037491
C9    C     C_R   0.385804 0.455299 0.097807 -0.300155
C10   C     C_R   0.532242 0.576707 0.895645 -0.277998
C11   C     C_R   0.501600 0.499887 0.055062 0.041661
C12   C     C_R   0.500325 0.499177 0.945713 0.030436
C13   C     C_R   0.203664 0.499960 0.475060 0.883679
C14   C     C_R   0.796324 0.500006 0.524916 0.885467
C15   C     C_2   0.037754 0.499993 0.461279 -0.370254
C16   C     C_2   0.962213 0.499941 0.538620 -0.355747
C17   C     C_R   0.412030 0.094375 0.556460 0.453414
C18   C     C_R   0.462337 0.906456 0.414387 0.444989
C19   C     C_R   0.411486 0.186685 0.557188 -0.271228
C20   C     C_R   0.460491 0.814143 0.414217 -0.258410
C21   C     C_R   0.503710 0.233965 0.500305 -0.157244
C22   C     C_R   0.504228 0.767030 0.500561 -0.168163
C23   C     C_R   0.602070 0.189391 0.445425 -0.251431
C24   C     C_R   0.555151 0.812703 0.587061 -0.247096
C25   C     C_R   0.610242 0.097422 0.447949 0.410642
C26   C     C_R   0.562461 0.904719 0.587819 0.408612
C27   C     C_R   0.513618 0.049284 0.502583 -0.035526
C28   C     C_R   0.514354 0.952190 0.501619 -0.035762
Cu1   Cu    Cu3+1 0.500000 0.499990 0.596430 0.945826
Cu2   Cu    Cu3+1 0.500000 0.500010 0.403570 0.940910
H1    H     H_    0.977600 0.500098 0.387133 0.166437
H2    H     H_    0.022387 0.499842 0.612744 0.180615
H3    H     H_    0.336742 0.221297 0.600754 0.167402
H4    H     H_    0.423621 0.779576 0.346450 0.183945
H5    H     H_    0.676143 0.226307 0.403146 0.181515
H6    H     H_    0.592861 0.776882 0.653761 0.182899
H7    H     H_    0.701065 0.580186 0.267437 0.146814
H8    H     H_    0.436578 0.364351 0.746252 0.153895
H9    H     H_    0.298112 0.420496 0.230489 0.137564
H10   H     H_    0.561534 0.635847 0.758901 0.146989
H11   H     H_    0.292546 0.421049 0.053047 0.191248
H12   H     H_    0.554724 0.638698 0.934255 0.206113
N1    N     N_R   0.500000 0.500020 0.258690 -0.195417
N2    N     N_R   0.500000 0.499980 0.741310 -0.196039
O1    O     O_R   0.500010 0.371450 0.581430 -0.594449
O2    O     O_R   0.499990 0.628550 0.418570 -0.580211
O3    O     O_R   0.500010 0.371460 0.418560 -0.581986
O4    O     O_R   0.499990 0.628540 0.581440 -0.597363
O5    O     O_R   0.274840 0.499990 0.562640 -0.571179
O6    O     O_R   0.725160 0.500010 0.437360 -0.589229
O7    O     O_R   0.274840 0.500000 0.399770 -0.596486
O8    O     O_R   0.725160 0.500000 0.600230 -0.579917
O9    O     O_3   0.322441 0.049033 0.615135 -0.540694
C29   C     C_3   0.174503 0.032903 0.562368 0.019677
H13   H     H_    0.181016 0.977727 0.510133 0.136515
H14   H     H_    0.125378 0.092831 0.522431 0.153438
C30   C     C_3   0.063959 0.005071 0.632590 -0.625259
H15   H     H_    0.053516 0.058984 0.685728 0.248730
H16   H     H_    0.947660 0.991022 0.591637 0.239769
H17   H     H_    0.107488 0.944388 0.672474 0.247977
O10   O     O_3   0.427605 0.950993 0.326975 -0.534819
C31   C     C_3   0.268108 0.970877 0.311507 0.047008
H18   H     H_    0.242919 0.025664 0.360331 0.132212
H19   H     H_    0.195296 0.912000 0.323278 0.143619
C32   C     C_3   0.223812 0.001877 0.207092 -0.688954
H20   H     H_    0.246511 0.948547 0.155825 0.248968
H21   H     H_    0.098750 0.018779 0.194244 0.213860
H22   H     H_    0.292489 0.061522 0.193320 0.247718
Cl1   Cl    Cl    0.747985 0.045136 0.385615 -0.633886
Cl2   Cl    Cl    0.639308 0.958072 0.697070 -0.595440
O11   O     O_3   0.735512 0.590290 0.082738 -0.585253
C33   C     C_3   0.862377 0.532971 0.080382 0.049928
H23   H     H_    0.828038 0.473183 0.035270 0.131718
H24   H     H_    0.911612 0.512141 0.155372 0.133196
C34   C     C_3   0.987640 0.581569 0.035066 -0.733422
H25   H     H_    0.028566 0.640126 0.080008 0.252827
H26   H     H_    0.086982 0.536783 0.030766 0.192755
H27   H     H_    0.941123 0.603785 0.960391 0.250739
O12   O     O_3   0.436315 0.342279 0.932975 -0.593524
C35   C     C_3   0.575701 0.294883 0.956495 0.049790
H28   H     H_    0.662981 0.334363 0.005069 0.129190
H29   H     H_    0.624566 0.276225 0.889283 0.155276
C36   C     C_3   0.543101 0.210530 0.010103 -0.696180
H30   H     H_    0.457907 0.168775 0.963258 0.259842
H31   H     H_    0.651976 0.172548 0.029052 0.211085
H32   H     H_    0.495695 0.227236 0.078132 0.241450

loop_
_geom_bond_atom_site_label_1
_geom_bond_atom_site_label_2
_ccdc_geom_bond_type
Cu2   O7    S    
C1    C21   S    
C5    H7    S    
C10   H12   S    
C33   H24   S    
Cu1   O5    S    
O9    C29   S    
C2    O2    A    
C24   H6    S    
C22   C24   A    
C19   C21   A    
C24   C26   A    
C35   C36   S    
C30   H16   S    
C15   C16   D    
C31   H19   S    
C13   O7    A    
C14   O8    A    
C32   H21   S    
C2    C22   S    
C6    H8    S    
C7    N1    A    
C4    C12   A    
Cu1   Cu2   S    
C33   H23   S    
C20   H4    S    
Cu2   O6    S    
C6    N2    A    
C33   C34   S    
C29   H14   S    
Cu1   O4    S    
C17   C27   A    
Cu2   O3    S    
C18   C28   A    
C4    O12   S    
C35   H29   S    
C19   H3    S    
C1    O3    A    
C30   H17   S    
C2    O4    A    
Cu1   O1    S    
C3    O11   S    
C34   H25   S    
C31   H18   S    
C9    C11   A    
C36   H30   S    
C32   H22   S    
C34   H26   S    
C10   C12   A    
C13   O5    A    
C4    C6    A    
C36   H31   S    
C20   C22   A    
C23   H5    S    
C13   C15   S    
Cu1   N2    S    
C25   C27   A    
C26   Cl2   S    
C14   C16   S    
Cu2   N1    S    
C25   Cl1   S    
C17   O9    S    
C7    C9    A    
C29   H13   S    
C31   C32   S    
C9    H11   S    
Cu2   O2    S    
C8    N2    A    
C35   H28   S    
C3    C5    A    
C11   C12   S    
C18   O10   S    
C15   H1    S    
C16   H2    S    
C26   C28   A    
C21   C23   A    
O11   C33   S    
C1    O1    A    
C30   H15   S    
C14   O6    A    
C17   C19   A    
C18   C20   A    
C23   C25   A    
C5    N1    A    
O10   C31   S    
C34   H27   S    
C3    C11   A    
O12   C35   S    
C36   H32   S    
C8    C10   A    
C32   H20   S    
C27   C28   S    
C7    H9    S    
C8    H10   S    
C29   C30   S    
Cu1   O8    S    
