data_mof_unit_33627.cif
_audit_creation_date              2013-03-05T15:50:08-0500
_audit_creation_method            fapswitch 2.2
_symmetry_space_group_name_H-M    P1
_symmetry_Int_Tables_number       1
_space_group_crystal_system       triclinic
_cell_length_a                    11.992494
_cell_length_b                    12.879066
_cell_length_c                    15.422257
_cell_angle_alpha                 87.015493
_cell_angle_beta                  115.846265
_cell_angle_gamma                 93.92874
_cell_volume                      2138.03048967

loop_
_atom_site_label
_atom_site_type_symbol
_atom_site_description
_atom_site_fract_x
_atom_site_fract_y
_atom_site_fract_z
_atom_type_partial_charge
O1    O     O_R   0.580150 0.341050 0.504560 -0.630449
O2    O     O_R   0.419850 0.658950 0.495440 -0.628813
O3    O     O_R   0.388090 0.353760 0.493600 -0.620447
O4    O     O_R   0.611910 0.646240 0.506400 -0.620394
C1    C     C_R   0.477401 0.299415 0.499868 0.903556
C2    C     C_R   0.522612 0.700594 0.500160 0.905757
O5    O     O_R   0.650890 0.490020 0.640860 -0.611607
O6    O     O_R   0.349110 0.509980 0.359140 -0.611197
O7    O     O_R   0.458830 0.502730 0.629890 -0.620657
O8    O     O_R   0.541170 0.497270 0.370110 -0.620426
C3    C     C_R   0.576372 0.493363 0.680740 0.905406
C4    C     C_R   0.422989 0.503532 0.319293 0.903978
Zn1   Zn    Zn3+2 0.628240 0.491510 0.507320 0.948262
Zn2   Zn    Zn3+2 0.371760 0.508490 0.492680 0.950391
C5    C     C_R   0.619366 0.471578 0.783806 -0.125803
C6    C     C_R   0.372331 0.497473 0.214748 -0.131676
C7    C     C_R   0.754327 0.383895 0.932836 0.347898
C8    C     C_R   0.212425 0.532277 0.053678 0.345109
C9    C     C_R   0.728398 0.420456 0.838879 -0.219319
C10   C     C_R   0.254215 0.530778 0.153866 -0.216941
C11   C     C_R   0.537538 0.488151 0.822572 -0.244529
C12   C     C_R   0.446276 0.459240 0.176377 -0.251875
C13   C     C_R   0.552401 0.442639 0.910400 0.054818
C14   C     C_R   0.406980 0.456209 0.077142 0.059081
C15   C     C_R   0.664450 0.393410 0.968633 0.025584
C16   C     C_R   0.289404 0.495087 0.014701 0.032129
C17   C     C_R   0.458809 0.448374 0.942191 0.099744
C18   C     C_R   0.487378 0.424198 0.039312 0.101895
C19   C     C_R   0.595959 0.370371 0.095157 -0.235570
C20   C     C_R   0.336943 0.475947 0.879609 -0.246098
C21   C     C_R   0.680949 0.352700 0.059213 -0.158999
C22   C     C_R   0.252677 0.496035 0.915234 -0.144421
H1    H     H_    0.759784 0.307909 0.103890 0.197646
H2    H     H_    0.160226 0.515363 0.864040 0.198115
H3    H     H_    0.538012 0.437019 0.225689 0.168995
H4    H     H_    0.459992 0.535815 0.781604 0.169027
H5    H     H_    0.197445 0.561346 0.184329 0.191470
H6    H     H_    0.792625 0.408197 0.808619 0.189335
H7    H     H_    0.615205 0.337661 0.165843 0.150822
H8    H     H_    0.303651 0.480050 0.802219 0.149338
C23   C     C_R   0.537286 0.812040 0.500872 -0.095838
C24   C     C_R   0.462727 0.187990 0.499178 -0.095551
C25   C     C_R   0.331517 0.030921 0.454531 0.182766
C26   C     C_R   0.668481 0.969142 0.545424 0.181481
C27   C     C_R   0.345131 0.138377 0.463654 -0.232394
C28   C     C_R   0.654873 0.861679 0.536299 -0.232245
C29   C     C_R   0.568887 0.132114 0.529682 -0.274617
C30   C     C_R   0.431127 0.867915 0.470437 -0.275550
C31   C     C_R   0.560140 0.025659 0.519145 0.115376
C32   C     C_R   0.439866 0.974385 0.480895 0.115652
H9    H     H_    0.341558 0.826549 0.440101 0.173816
H10   H     H_    0.658456 0.173474 0.560125 0.174962
H11   H     H_    0.736166 0.816311 0.558413 0.165487
H12   H     H_    0.263835 0.183760 0.441462 0.165519
N1    N     N_R   0.799120 0.480200 0.517090 -0.099641
N2    N     N_R   0.200880 0.519800 0.482910 -0.098442
C33   C     C_R   0.006425 0.604112 0.414915 -0.311127
C34   C     C_R   0.993872 0.396254 0.585556 -0.326911
C35   C     C_R   0.126525 0.593575 0.422814 0.041984
C36   C     C_R   0.873608 0.406611 0.577414 0.034395
C37   C     C_R   0.159188 0.454559 0.536773 -0.051511
C38   C     C_R   0.840993 0.545625 0.463476 -0.043495
C39   C     C_R   0.038803 0.462210 0.531129 0.087385
C40   C     C_R   0.961453 0.538061 0.469254 0.088552
H13   H     H_    0.780514 0.603584 0.416119 0.129591
H14   H     H_    0.219735 0.396676 0.584206 0.127362
H15   H     H_    0.839660 0.355454 0.619513 0.131768
H16   H     H_    0.160479 0.644773 0.380748 0.129157
H17   H     H_    0.949349 0.663422 0.366722 0.151734
H18   H     H_    0.051067 0.337122 0.633947 0.151546
N3    N     N_R   0.870105 0.336087 0.989074 0.207935
O9    O     O_R   0.917810 0.280160 0.947080 -0.398713
O10   O     O_R   0.938251 0.362900 0.077745 -0.374370
N4    N     N_R   0.097134 0.579204 0.994048 0.198613
O11   O     O_R   0.004835 0.567281 0.017221 -0.350215
O12   O     O_R   0.093013 0.651238 0.930488 -0.407356
C41   C     C_3   0.200878 0.980927 0.415780 -0.427013
C42   C     C_3   0.174754 0.927578 0.496359 -0.846659
H19   H     H_    0.239682 0.865013 0.533170 0.264521
H20   H     H_    0.183958 0.985491 0.550348 0.265340
H21   H     H_    0.078559 0.892475 0.465643 0.249286
H22   H     H_    0.130934 0.040642 0.380680 0.215568
H23   H     H_    0.184750 0.925360 0.358329 0.204049
C43   C     C_3   0.799097 0.019183 0.584036 -0.420080
C44   C     C_3   0.824943 0.072733 0.503398 -0.854655
H24   H     H_    0.815456 0.014961 0.449216 0.264465
H25   H     H_    0.760056 0.135393 0.466834 0.263026
H26   H     H_    0.921177 0.107755 0.534003 0.251204
H27   H     H_    0.815366 0.074638 0.641605 0.207602
H28   H     H_    0.869093 0.959469 0.618943 0.217105

loop_
_geom_bond_atom_site_label_1
_geom_bond_atom_site_label_2
_geom_bond_distance
_ccdc_geom_bond_type
C26   C31   1.421952 A    
C15   C21   1.400880 A    
Zn2   N2    2.003211 S    
C1    C24   1.433808 S    
C16   C22   1.398918 A    
C8    C16   1.420367 A    
C29   C31   1.380512 A    
C11   H4    1.080004 S    
C41   C42   1.528264 S    
O5    C3    1.290740 A    
C12   H3    1.077757 S    
N4    O12   1.301292 A    
O1    C1    1.283310 A    
C18   C19   1.414796 A    
C14   C16   1.424382 A    
C42   H20   1.111314 S    
C33   C35   1.407051 A    
C41   H23   1.110066 S    
C34   C36   1.407264 A    
N1    C38   1.370161 A    
O4    Zn1   2.014407 S    
C37   C39   1.417975 A    
C38   C40   1.417925 A    
C3    C5    1.459426 S    
C37   H14   1.082757 S    
C30   H9    1.079757 S    
C4    C6    1.458525 S    
C36   H15   1.081915 S    
C2    C23   1.434089 S    
C6    C12   1.388082 A    
C23   C28   1.391708 A    
C21   H1    1.080150 S    
C13   C17   1.414428 A    
C6    C10   1.397763 A    
C30   C32   1.380531 A    
C8    N4    1.438964 S    
N1    C36   1.364304 A    
C17   C20   1.413887 A    
O2    C2    1.283342 A    
C43   H28   1.112309 S    
C26   C28   1.389699 A    
C44   H25   1.109426 S    
N4    O11   1.300940 A    
C43   C44   1.528333 S    
O4    C2    1.285297 A    
N3    O10   1.301258 A    
C42   H19   1.109416 S    
C34   H18   1.083278 S    
O3    C1    1.285224 A    
C44   H24   1.111326 S    
C24   C27   1.391619 A    
C22   H2    1.081063 S    
C5    C9    1.398586 A    
O7    Zn2   1.908230 S    
C9    H6    1.083387 S    
C35   H16   1.081879 S    
O7    C3    1.290806 A    
C5    C11   1.385461 A    
O6    C4    1.288278 A    
C19   H7    1.079473 S    
C20   H8    1.080529 S    
C25   C27   1.389604 A    
O3    Zn2   2.014405 S    
O8    C4    1.292287 A    
C27   H12   1.084243 S    
C7    N3    1.439012 S    
C11   C13   1.389665 A    
C12   C14   1.393077 A    
O1    Zn1   1.980775 S    
C43   H27   1.110096 S    
C33   C40   1.404906 A    
C44   H26   1.110865 S    
C34   C39   1.404953 A    
O6    Zn2   1.955626 S    
C38   H13   1.082678 S    
C14   C18   1.417731 A    
C26   C43   1.520501 S    
O8    Zn1   1.908232 S    
C25   C32   1.421986 A    
C29   H10   1.079773 S    
C25   C41   1.520435 S    
N2    C35   1.364082 A    
C7    C15   1.423219 A    
N3    O9    1.301399 A    
C19   C21   1.391212 A    
C20   C22   1.387362 A    
C10   H5    1.083552 S    
C42   H21   1.110844 S    
C41   H22   1.112320 S    
C28   H11   1.084233 S    
C7    C9    1.405064 A    
C23   C30   1.388637 A    
C8    C10   1.400711 A    
C24   C29   1.388552 A    
C13   C15   1.421066 A    
O2    Zn2   1.980775 S    
C39   C40   1.407368 A    
O5    Zn1   1.955627 S    
C31   C32   1.425722 A    
C17   C18   1.405849 A    
N2    C37   1.370370 A    
C33   H17   1.083226 S    
Zn1   N1    2.003209 S    
