data_mof_unit_66919.cif
_audit_creation_date              2013-03-05T15:57:27-0500
_audit_creation_method            fapswitch 2.2
_symmetry_space_group_name_H-M    P1
_symmetry_Int_Tables_number       1
_space_group_crystal_system       triclinic
_cell_length_a                    17.281772
_cell_length_b                    19.125936
_cell_length_c                    8.481301
_cell_angle_alpha                 90.0
_cell_angle_beta                  102.723292
_cell_angle_gamma                 90.213525
_cell_volume                      2734.46962637

loop_
_atom_site_label
_atom_site_type_symbol
_atom_site_description
_atom_site_fract_x
_atom_site_fract_y
_atom_site_fract_z
_atom_type_partial_charge
P1    P     P_3+3 0.834140 0.419320 0.003900 0.454273
P2    P     P_3+3 0.834140 0.580680 0.503900 0.458604
P3    P     P_3+3 0.334140 0.919320 0.003900 0.460830
P4    P     P_3+3 0.334140 0.080680 0.503900 0.460278
O1    O     O_2   0.841960 0.394640 0.833410 -0.346355
O2    O     O_2   0.841960 0.605360 0.333410 -0.356299
O3    O     O_2   0.341960 0.894640 0.833410 -0.360252
O4    O     O_2   0.341960 0.105360 0.333410 -0.353698
O5    O     O_3   0.907950 0.463080 0.102990 -0.402272
O6    O     O_3   0.907950 0.536920 0.602990 -0.381370
O7    O     O_3   0.407950 0.963080 0.102990 -0.383188
O8    O     O_3   0.407950 0.036920 0.602990 -0.401299
O9    O     O_3   0.972780 0.329600 0.629720 -0.346776
O10   O     O_3   0.972780 0.670400 0.129720 -0.387637
O11   O     O_3   0.472780 0.829600 0.629720 -0.390023
O12   O     O_3   0.472780 0.170400 0.129720 -0.380428
O13   O     O_2   0.843636 0.283059 0.711343 -0.411336
O14   O     O_2   0.840733 0.714425 0.197707 -0.413061
O15   O     O_2   0.343781 0.780039 0.707420 -0.411408
O16   O     O_2   0.350447 0.226860 0.216698 -0.411935
O17   O     O_3   0.758422 0.479965 0.932201 -0.600742
O18   O     O_3   0.758742 0.519272 0.442519 -0.586530
O19   O     O_3   0.259618 0.980751 0.938363 -0.582122
O20   O     O_3   0.258627 0.020335 0.425645 -0.593564
O21   O     O_3   0.936165 0.190071 0.637438 -0.494614
O22   O     O_3   0.933118 0.812924 0.146489 -0.523420
O23   O     O_3   0.428728 0.685297 0.606334 -0.548395
O24   O     O_3   0.437751 0.313449 0.086093 -0.560624
H1    H     H_    0.017512 0.222473 0.498963 0.009981
H2    H     H_    0.049562 0.780776 0.228331 0.111500
H3    H     H_    0.536411 0.720949 0.745063 0.136295
H4    H     H_    0.533098 0.300536 0.276890 0.164688
C1    C     C_3   0.044933 0.123123 0.602544 0.071711
C2    C     C_3   0.042387 0.889679 0.170815 -0.015040
C3    C     C_3   0.537291 0.611133 0.702976 -0.003128
C4    C     C_3   0.558008 0.377804 0.110442 -0.008302
H5    H     H_    0.519843 0.601659 0.819444 0.178121
H6    H     H_    0.619979 0.381089 0.181562 0.080901
H7    H     H_    0.082245 0.144249 0.716103 0.151525
H8    H     H_    0.040566 0.904255 0.296570 0.169080
P5    P     P_3+3 0.165830 0.418670 0.685610 0.441582
P6    P     P_3+3 0.165830 0.581330 0.185610 0.437414
P7    P     P_3+3 0.665830 0.918670 0.685610 0.459649
P8    P     P_3+3 0.665830 0.081330 0.185610 0.458141
P9    P     P_3+3 0.099912 0.266935 0.110150 0.445885
P10   P     P_3+3 0.098950 0.733883 0.611471 0.421377
P11   P     P_3+3 0.592131 0.761311 0.113586 0.419682
P12   P     P_3+3 0.589930 0.240506 0.615288 0.424942
O25   O     O_2   0.157990 0.394030 0.856030 -0.372908
O26   O     O_2   0.157990 0.605970 0.356030 -0.373182
O27   O     O_2   0.657990 0.894030 0.856030 -0.380644
O28   O     O_2   0.657990 0.105970 0.356030 -0.381078
O29   O     O_3   0.027110 0.329490 0.059550 -0.366600
O30   O     O_3   0.027110 0.670510 0.559550 -0.363365
O31   O     O_3   0.527110 0.829490 0.059550 -0.350708
O32   O     O_3   0.527110 0.170510 0.559550 -0.349214
O33   O     O_2   0.159879 0.277760 0.001702 -0.389796
O34   O     O_2   0.155999 0.727738 0.495131 -0.409166
O35   O     O_2   0.645223 0.759698 0.988344 -0.424541
O36   O     O_2   0.643024 0.244003 0.490115 -0.427337
O37   O     O_3   0.257053 0.461604 0.717709 -0.586096
O38   O     O_3   0.257481 0.540376 0.224921 -0.584162
O39   O     O_3   0.753222 0.967580 0.734316 -0.582531
O40   O     O_3   0.754155 0.033909 0.235514 -0.596300
O41   O     O_3   0.052593 0.188547 0.042761 -0.511567
O42   O     O_3   0.047627 0.811218 0.556316 -0.548268
O43   O     O_3   0.533165 0.686342 0.072900 -0.551608
O44   O     O_3   0.529887 0.314880 0.577559 -0.524669
C5    C     C_3   0.978920 0.188061 0.087405 0.455525
C6    C     C_3   0.976993 0.807785 0.612942 0.340355
C7    C     C_3   0.469033 0.693354 0.149505 0.303907
C8    C     C_3   0.469642 0.308554 0.664990 0.329424
H9    H     H_    0.933542 0.213023 0.990844 0.139599
H10   H     H_    0.929780 0.782039 0.520784 0.133118
H11   H     H_    0.420226 0.722634 0.069940 0.113253
H12   H     H_    0.421023 0.274884 0.597052 0.109477
H13   H     H_    0.979760 0.215546 0.203385 -0.011576
H14   H     H_    0.983306 0.779525 0.730032 0.056712
H15   H     H_    0.485300 0.721010 0.267633 0.065493
H16   H     H_    0.491661 0.285969 0.787468 0.048927
C9    C     C_3   0.955372 0.113277 0.107713 -0.978831
C10   C     C_3   0.952091 0.881097 0.640761 -0.868701
C11   C     C_3   0.439734 0.621150 0.182298 -0.805223
C12   C     C_3   0.436528 0.380543 0.687984 -0.820668
H17   H     H_    0.391423 0.625075 0.248775 0.256306
H18   H     H_    0.396350 0.377451 0.773216 0.250754
H19   H     H_    0.946582 0.086832 0.988889 0.326731
H20   H     H_    0.897664 0.880343 0.689670 0.249021
H21   H     H_    0.002281 0.086293 0.197093 0.276543
H22   H     H_    0.942349 0.909824 0.524721 0.271373
H23   H     H_    0.417518 0.592654 0.067778 0.255765
H24   H     H_    0.402830 0.401285 0.571612 0.264736
C13   C     C_3   0.248432 0.469293 0.238300 0.415190
C14   C     C_3   0.246006 0.531981 0.738929 0.436845
C15   C     C_3   0.744539 0.965539 0.285431 0.452055
C16   C     C_3   0.741566 0.035819 0.781565 0.475291
H25   H     H_    0.203320 0.446935 0.136156 0.114467
H26   H     H_    0.198275 0.554209 0.641672 0.117764
H27   H     H_    0.681393 0.949347 0.269791 0.108969
H28   H     H_    0.678072 0.051015 0.762175 0.107234
C17   C     C_3   0.328070 0.437530 0.234522 -0.569372
C18   C     C_3   0.322389 0.569698 0.731251 -0.606449
C19   C     C_3   0.786363 0.917253 0.188979 -0.638422
C20   C     C_3   0.783894 0.084755 0.687090 -0.650006
H29   H     H_    0.375289 0.464229 0.324911 0.301581
H30   H     H_    0.373326 0.544517 0.814849 0.257731
H31   H     H_    0.851369 0.927781 0.217155 0.260898
H32   H     H_    0.849055 0.076631 0.720770 0.276320
H33   H     H_    0.340009 0.445009 0.111906 0.266266
H34   H     H_    0.332109 0.566604 0.606061 0.279706
H35   H     H_    0.764459 0.926666 0.059525 0.259159
H36   H     H_    0.764829 0.074158 0.557602 0.255342
Ba1   Ba    Ba6+2 0.000000 0.447380 0.844850 1.532588
Ba2   Ba    Ba6+2 0.000000 0.552620 0.344850 1.526454
Ba3   Ba    Ba6+2 0.500000 0.947380 0.844850 1.536533
Ba4   Ba    Ba6+2 0.500000 0.052620 0.344850 1.537127
C21   C     C_3   0.741765 0.522579 0.054138 0.320507
C22   C     C_3   0.722666 0.504851 0.570480 0.212651
C23   C     C_3   0.223608 0.997888 0.064642 0.220101
C24   C     C_3   0.240225 0.974733 0.540316 0.272977
H37   H     H_    0.763939 0.576179 0.039691 0.091604
H38   H     H_    0.761108 0.469002 0.652600 0.183830
H39   H     H_    0.260624 0.037024 0.140003 0.177989
H40   H     H_    0.246384 0.920449 0.499085 0.074716
H41   H     H_    0.768985 0.504086 0.175637 0.150032
H42   H     H_    0.710474 0.552725 0.635390 0.090027
H43   H     H_    0.214197 0.952013 0.138089 0.085896
H44   H     H_    0.278522 0.981235 0.660020 0.168877
C25   C     C_3   0.652508 0.526502 0.037163 -0.939452
C26   C     C_3   0.644814 0.468076 0.504243 -0.779624
C27   C     C_3   0.144072 0.030559 0.994435 -0.802203
C28   C     C_3   0.154558 0.985315 0.548118 -0.906682
H45   H     H_    0.620458 0.490588 0.941405 0.284899
H46   H     H_    0.607144 0.502453 0.414187 0.307805
H47   H     H_    0.108474 0.994217 0.905157 0.309855
H48   H     H_    0.120157 0.007248 0.432586 0.269958
H49   H     H_    0.631279 0.580524 0.006653 0.238071
H50   H     H_    0.655210 0.417728 0.447437 0.237073
H51   H     H_    0.152651 0.080693 0.934829 0.242393
H52   H     H_    0.125706 0.935380 0.567100 0.253990
H53   H     H_    0.638569 0.512979 0.155034 0.285039
H54   H     H_    0.614059 0.457700 0.603137 0.262624
H55   H     H_    0.112218 0.040366 0.091822 0.259028
H56   H     H_    0.153308 0.020844 0.650396 0.272747
O45   O     O_3   0.092100 0.536880 0.086720 -0.413541
O46   O     O_3   0.092100 0.463120 0.586720 -0.415056
O47   O     O_3   0.592100 0.036880 0.086720 -0.388323
O48   O     O_3   0.592100 0.963120 0.586720 -0.391804
P13   P     P_3+3 0.895554 0.730791 0.082459 0.415984
P14   P     P_3+3 0.893527 0.270666 0.585068 0.438239
P15   P     P_3+3 0.395466 0.230077 0.078382 0.413303
P16   P     P_3+3 0.393756 0.770716 0.579265 0.409054
C29   C     C_3   0.984167 0.176041 0.528219 0.312690
C30   C     C_3   0.013010 0.815566 0.136460 0.384825
C31   C     C_3   0.511736 0.684264 0.645059 0.345887
C32   C     C_3   0.520194 0.309561 0.144978 0.394119
H57   H     H_    0.946775 0.154094 0.416171 0.059331
H58   H     H_    0.020425 0.800789 0.013703 0.020199
H59   H     H_    0.535598 0.697069 0.537118 0.029701
H60   H     H_    0.547855 0.268236 0.084080 0.009225
H61   H     H_    0.602467 0.605757 0.718968 0.075628
H62   H     H_    0.559477 0.379762 0.981258 0.101790
H63   H     H_    0.082798 0.112505 0.516103 0.040287
H64   H     H_    0.103998 0.893805 0.154649 0.061953
H65   H     H_    0.489612 0.591394 0.256179 0.314327
H66   H     H_    0.485432 0.417421 0.737745 0.284055
H67   H     H_    0.900257 0.111934 0.153695 0.221976
H68   H     H_    0.000140 0.906897 0.729793 0.318624
C33   C     C_R   0.134516 0.678602 0.926016 -0.520559
C34   C     C_R   0.132885 0.320016 0.426927 -0.510775
C35   C     C_R   0.636995 0.177247 0.922593 -0.480041
C36   C     C_R   0.638220 0.823250 0.422511 -0.477897
C37   C     C_R   0.837274 0.337596 0.288218 -0.276485
C38   C     C_R   0.840994 0.664095 0.782475 -0.300878
C39   C     C_R   0.337390 0.839099 0.285017 -0.326823
C40   C     C_R   0.334053 0.160062 0.787403 -0.315621
C41   C     C_R   0.786635 0.218892 0.302501 -0.268780
C42   C     C_R   0.789014 0.781989 0.801488 -0.241877
C43   C     C_R   0.282214 0.722497 0.307327 -0.212640
C44   C     C_R   0.281225 0.277164 0.807374 -0.213400
C45   C     C_R   0.833171 0.275761 0.374633 0.176552
C46   C     C_R   0.836922 0.725573 0.871389 0.212908
C47   C     C_R   0.330615 0.779045 0.375206 0.230633
C48   C     C_R   0.328666 0.220564 0.876583 0.227677
C49   C     C_R   0.803016 0.340923 0.120162 0.193628
C50   C     C_R   0.805569 0.661203 0.616352 0.184144
C51   C     C_R   0.303549 0.840491 0.118091 0.186472
C52   C     C_R   0.301085 0.158217 0.619199 0.204381
C53   C     C_R   0.746689 0.285787 0.051836 -0.066990
C54   C     C_R   0.748375 0.715589 0.550046 -0.064344
C55   C     C_R   0.246602 0.785592 0.051788 -0.074361
C56   C     C_R   0.244929 0.213368 0.551757 -0.069387
C57   C     C_R   0.235627 0.725313 0.149052 -0.085587
C58   C     C_R   0.234216 0.273834 0.649305 -0.075251
C59   C     C_R   0.738097 0.223778 0.146141 -0.059957
C60   C     C_R   0.739973 0.777278 0.645200 -0.076199
C61   C     C_R   0.177896 0.670635 0.085064 0.294490
C62   C     C_R   0.176858 0.328601 0.585492 0.311497
C63   C     C_R   0.681078 0.168887 0.081181 0.261465
C64   C     C_R   0.682318 0.831637 0.581056 0.261445
C65   C     C_R   0.148898 0.733692 0.828313 0.181455
C66   C     C_R   0.147697 0.265444 0.328188 0.156393
C67   C     C_R   0.646236 0.235794 0.828976 0.177129
C68   C     C_R   0.647500 0.765102 0.328234 0.190382
C69   C     C_R   0.198910 0.789349 0.893865 -0.041852
C70   C     C_R   0.198281 0.210191 0.392165 -0.042774
C71   C     C_R   0.696905 0.291042 0.895322 -0.073992
C72   C     C_R   0.697531 0.709774 0.394918 -0.065550
H69   H     H_    0.280740 0.676710 0.380952 0.196899
H70   H     H_    0.281043 0.323621 0.879412 0.188814
H71   H     H_    0.787817 0.171156 0.370271 0.173115
H72   H     H_    0.789245 0.829116 0.871223 0.185364
H73   H     H_    0.091254 0.639331 0.873867 0.177104
H74   H     H_    0.089768 0.359167 0.375121 0.174217
H75   H     H_    0.595745 0.136630 0.869235 0.174060
H76   H     H_    0.596988 0.863664 0.369507 0.172799
N1    N     N_3   0.326502 0.363853 0.271768 -0.216942
H77   H     H_    0.384881 0.346852 0.309630 0.246904
H78   H     H_    0.297056 0.338829 0.166208 0.203469
N2    N     N_3   0.314873 0.642040 0.776778 -0.221860
H79   H     H_    0.371000 0.662469 0.825463 0.219883
H80   H     H_    0.285402 0.668726 0.673878 0.212065
N3    N     N_3   0.770376 0.845473 0.225549 -0.194244
H81   H     H_    0.817770 0.827144 0.314298 0.176296
H82   H     H_    0.767231 0.816582 0.120969 0.229044
N4    N     N_3   0.764462 0.155998 0.718779 -0.191487
H83   H     H_    0.808459 0.175207 0.813698 0.170011
H84   H     H_    0.764735 0.184951 0.615713 0.224024
N5    N     N_3   0.692004 0.354965 0.807432 -0.152126
H85   H     H_    0.634627 0.374318 0.792825 0.114892
H86   H     H_    0.704273 0.345542 0.694194 0.183687
N6    N     N_3   0.691397 0.645404 0.308722 -0.157459
H87   H     H_    0.633818 0.625946 0.295960 0.141582
H88   H     H_    0.703148 0.654992 0.195289 0.177831
N7    N     N_3   0.193296 0.853180 0.806137 -0.154471
H89   H     H_    0.136233 0.872825 0.796660 0.129155
H90   H     H_    0.204120 0.843603 0.691814 0.175208
N8    N     N_3   0.195095 0.147658 0.299454 -0.150662
H91   H     H_    0.137946 0.127019 0.282113 0.111570
H92   H     H_    0.208280 0.158989 0.187744 0.181243
N9    N     N_3   0.877372 0.396803 0.376033 -0.139401
H93   H     H_    0.855029 0.442999 0.322949 0.151365
H94   H     H_    0.857632 0.401558 0.483462 0.171866
N10   N     N_3   0.880676 0.602954 0.860955 -0.139927
H95   H     H_    0.845168 0.559776 0.820224 0.138032
H96   H     H_    0.876757 0.600792 0.980973 0.172149
N11   N     N_3   0.379335 0.899509 0.363415 -0.139054
H97   H     H_    0.346287 0.943474 0.320456 0.149188
H98   H     H_    0.374487 0.902150 0.483276 0.168107
N12   N     N_3   0.375233 0.100605 0.869986 -0.137508
H99   H     H_    0.346262 0.055738 0.820858 0.156120
H100  H     H_    0.362912 0.097251 0.984851 0.174309
Cl1   Cl    Cl    0.995029 0.046246 0.643164 -0.701094
Cl2   Cl    Cl    0.979798 0.946814 0.035213 -0.705445
Cl3   Cl    Cl    0.487550 0.547269 0.564183 -0.712005
Cl4   Cl    Cl    0.501816 0.450208 0.152986 -0.691810
N13   N     N_3   0.227166 0.456699 0.390974 -0.157408
H101  H     H_    0.249211 0.409081 0.438801 0.100212
H102  H     H_    0.165405 0.455120 0.367020 0.116887
N14   N     N_3   0.227337 0.539747 0.895531 -0.168913
H103  H     H_    0.253347 0.584296 0.954366 0.113549
H104  H     H_    0.165834 0.543341 0.874554 0.113593
N15   N     N_3   0.784056 0.960450 0.454297 -0.190115
H105  H     H_    0.840419 0.983068 0.471121 0.186619
H106  H     H_    0.790802 0.908394 0.490189 0.084158
N16   N     N_3   0.778523 0.041929 0.951279 -0.192055
H107  H     H_    0.835184 0.020299 0.971831 0.204967
H108  H     H_    0.784632 0.094163 0.985543 0.073607

loop_
_geom_bond_atom_site_label_1
_geom_bond_atom_site_label_2
_geom_bond_distance
_ccdc_geom_bond_type
C28   H56   1.105917 S    
N11   H98   1.039497 S    
O25   Ba1   2.900287 S    
P1    O17   1.757343 S    
O23   P16   1.741636 S    
C6    H14   1.114881 S    
P2    Ba2   3.469627 S    
O39   C16   1.393564 S    
P3    O19   1.744696 S    
O13   P14   1.534552 D    
P3    O7    1.598028 S    
P5    O37   1.742133 S    
C8    H12   1.111469 S    
P7    O27   1.554144 D    
C38   C46   1.407198 A    
C7    H15   1.112386 S    
P7    O39   1.743948 S    
N15   H105  1.044946 S    
P2    O2    1.554841 D    
O24   P15   1.746767 S    
P8    O40   1.748547 S    
C11   H65   1.106924 S    
P12   C67   1.861028 S    
P9    O33   1.543081 D    
C3    H61   1.109592 S    
O31   Ba3   2.872511 S    
C57   C61   1.461939 A    
P1    O1    1.555146 D    
O5    Ba2   2.865917 S    
P11   O31   1.719649 S    
C3    H5    1.109187 S    
C12   H18   1.108590 S    
O9    P14   1.746383 S    
C30   H58   1.113246 S    
P3    O3    1.555146 D    
O12   P15   1.741451 S    
C29   H57   1.106495 S    
C40   N12   1.441063 S    
P4    O20   1.755798 S    
C15   H27   1.112702 S    
C38   N10   1.444197 S    
O44   C8    1.409838 S    
C25   H53   1.109023 S    
C14   H26   1.115548 S    
C36   H76   1.081809 S    
C17   H33   1.113015 S    
P2    C50   1.933485 S    
Ba3   O47   2.865852 S    
P8    O47   1.603415 S    
N10   H95   1.039565 S    
C19   H35   1.094808 S    
N9    H93   1.028789 S    
C55   C69   1.411606 A    
C58   C62   1.464284 A    
O3    Ba3   2.889490 S    
P4    O4    1.554841 D    
C36   C68   1.399897 A    
C21   H37   1.109306 S    
N2    H79   1.041510 S    
O17   C21   1.396265 S    
P7    O48   1.608442 S    
C36   C64   1.400838 A    
P7    Ba3   3.472057 S    
H4    C32   1.105257 S    
C10   H20   1.108497 S    
C5    H13   1.112558 S    
P6    Ba2   3.468678 S    
P10   C65   1.851532 S    
C14   N14   1.441997 S    
P5    O46   1.608442 S    
N3    H81   1.044451 S    
C15   C19   1.519841 S    
P9    C66   1.852018 S    
C33   H73   1.081164 S    
C6    H10   1.111406 S    
C23   C27   1.510019 S    
N7    H89   1.043064 S    
C5    H9    1.110628 S    
P7    C64   1.937322 S    
O26   Ba2   2.893117 S    
P4    O8    1.603000 S    
O14   P13   1.535144 D    
C21   C25   1.519457 S    
P6    O38   1.734954 S    
C51   C55   1.461433 A    
P12   O32   1.719719 S    
C54   C60   1.455105 A    
O8    Ba3   2.872993 S    
C19   N3    1.446446 S    
P8    O28   1.554451 D    
C39   N11   1.443589 S    
C35   C63   1.401646 A    
P9    O29   1.723926 S    
C9    H21   1.109338 S    
P10   O34   1.545581 D    
C44   C58   1.407553 A    
C3    Cl3   1.778487 S    
N7    H90   1.043472 S    
C26   H46   1.106188 S    
P1    Ba1   3.466321 S    
C26   H54   1.104963 S    
O12   Ba4   2.873094 S    
P11   O43   1.745754 S    
O11   P16   1.745756 S    
O29   Ba1   2.872511 S    
P12   O36   1.549853 D    
P14   C45   1.861066 S    
C59   C63   1.459401 A    
O28   Ba4   2.893117 S    
P5    C62   1.949004 S    
C16   N16   1.444968 S    
N8    H92   1.044636 S    
O20   C24   1.393514 S    
C17   H29   1.111619 S    
C31   H59   1.110722 S    
C41   C45   1.407421 A    
C43   C47   1.407816 A    
C68   C72   1.406640 A    
C32   H60   1.109747 S    
P1    O5    1.598028 S    
Ba2   O46   2.872929 S    
N14   H104  1.040837 S    
C13   C17   1.513226 S    
C60   C64   1.462387 A    
C20   H36   1.093554 S    
C27   H51   1.108567 S    
C40   C48   1.396991 A    
O37   C14   1.377568 S    
C71   N5    1.424969 S    
C10   H68   1.106320 S    
O32   Ba4   2.869768 S    
C34   C62   1.400686 A    
N12   H99   1.032260 S    
O10   Ba2   2.873094 S    
O21   C29   1.399415 S    
Ba3   O48   2.991361 S    
O27   Ba3   2.900287 S    
C44   C48   1.408268 A    
C8    C12   1.521924 S    
O21   P14   1.726448 S    
N9    H94   1.044972 S    
C56   C58   1.457822 A    
Ba1   O46   2.991361 S    
C50   C54   1.462191 A    
C55   C57   1.453583 A    
C22   H38   1.093685 S    
P2    O18   1.743013 S    
N5    H85   1.041249 S    
C22   C26   1.510128 S    
C17   N1    1.445575 S    
C1    H7    1.109572 S    
C53   C59   1.455797 A    
C12   H24   1.104178 S    
C69   N7    1.422152 S    
C28   H48   1.111216 S    
C37   C49   1.419405 A    
P10   O30   1.718246 S    
N13   H101  1.036173 S    
N6    H88   1.042212 S    
O15   P16   1.540682 D    
C9    H67   1.106085 S    
C42   H72   1.077591 S    
C70   N8    1.425549 S    
C4    Cl4   1.776296 S    
O22   P13   1.738123 S    
P12   O44   1.751357 S    
P16   C47   1.838684 S    
C44   H70   1.078739 S    
O7    Ba4   2.865917 S    
P8    Ba4   3.468678 S    
C42   C46   1.411255 A    
O6    Ba1   2.872993 S    
N16   H108  1.038922 S    
C49   C53   1.462634 A    
C72   N6    1.423470 S    
C5    C9    1.505867 S    
C67   C71   1.405698 A    
O11   Ba3   2.870343 S    
C54   C72   1.416162 A    
C11   H17   1.108333 S    
P6    O26   1.554451 D    
C2    C30   1.510410 S    
Ba1   O45   2.865852 S    
C16   C20   1.518617 S    
C26   H50   1.109549 S    
P9    O41   1.740157 S    
P13   C46   1.855138 S    
C25   H45   1.112293 S    
C18   N2    1.450444 S    
O22   C30   1.402587 S    
N1    H78   1.042626 S    
P2    O6    1.603000 S    
C13   H25   1.114077 S    
C33   C65   1.395477 A    
C20   H32   1.110607 S    
Ba2   O45   2.992556 S    
C27   H55   1.105214 S    
C4    C32   1.514723 S    
C33   C61   1.400098 A    
Ba1   Ba2   4.694095 S    
C43   C57   1.406177 A    
N15   H106  1.040550 S    
O18   C22   1.392597 S    
N8    H91   1.042109 S    
C40   C52   1.415218 A    
C41   C59   1.407686 A    
O1    Ba1   2.889490 S    
C24   C28   1.510802 S    
C39   C47   1.398761 A    
C56   C70   1.415861 A    
P4    Ba4   3.469627 S    
P6    C61   1.940050 S    
O40   C15   1.395043 S    
C3    C31   1.517156 S    
N14   H103  1.037006 S    
P3    C51   1.926178 S    
O30   Ba2   2.869768 S    
Ba4   O47   2.992556 S    
H3    C31   1.109944 S    
N11   H97   1.038234 S    
C24   H44   1.089785 S    
P10   O42   1.737882 S    
C20   N4    1.443906 S    
C34   H74   1.081175 S    
C23   H39   1.092854 S    
C28   H52   1.103849 S    
P5    O25   1.554144 D    
C11   H23   1.105440 S    
C43   H69   1.079033 S    
C27   H47   1.107500 S    
C13   N13   1.441791 S    
C10   H22   1.107478 S    
O16   P15   1.544964 D    
C2    Cl2   1.774166 S    
N2    H80   1.042934 S    
C52   C56   1.464499 A    
C19   H31   1.113460 S    
P1    C49   1.933246 S    
P4    C52   1.932387 S    
C39   C51   1.408001 A    
C4    H6    1.108920 S    
N1    H77   1.042322 S    
H1    C29   1.114221 S    
C35   H75   1.081778 S    
N5    H86   1.043930 S    
P3    Ba3   3.466321 S    
C38   C50   1.408110 A    
C7    H11   1.110505 S    
C15   N15   1.448012 S    
C9    H19   1.107475 S    
Ba4   O48   2.872929 S    
C41   H71   1.076725 S    
Ba3   Ba4   4.694095 S    
O42   C6    1.408077 S    
C42   C60   1.409970 A    
C53   C71   1.417741 A    
C18   H34   1.112531 S    
O41   C5    1.405967 S    
C16   H28   1.112859 S    
O10   P13   1.746942 S    
P5    Ba1   3.472057 S    
N6    H87   1.044123 S    
C1    H63   1.104189 S    
N10   H96   1.035752 S    
P11   C68   1.862057 S    
C18   H30   1.112547 S    
O2    Ba2   2.896587 S    
O43   C7    1.409525 S    
C37   C45   1.401109 A    
N3    H82   1.036123 S    
C35   C67   1.401558 A    
C2    H64   1.105615 S    
C6    C10   1.502048 S    
C34   C66   1.397370 A    
C12   H66   1.108297 S    
N16   H107  1.043172 S    
O4    Ba4   2.896587 S    
P11   O35   1.549384 D    
C21   H41   1.093610 S    
C37   N9    1.443613 S    
H2    C30   1.111407 S    
C25   H49   1.109111 S    
C14   C18   1.515879 S    
P8    C63   1.938484 S    
C8    H16   1.112447 S    
N4    H83   1.043779 S    
C66   C70   1.404748 A    
O38   C13   1.375458 S    
C1    Cl1   1.773652 S    
O24   C32   1.404365 S    
C65   C69   1.403828 A    
C2    H8    1.109561 S    
O19   C23   1.391730 S    
C7    C11   1.515798 S    
C22   H42   1.112821 S    
N13   H102  1.041943 S    
C1    C29   1.496950 S    
P6    O45   1.603415 S    
N12   H100  1.043938 S    
O9    Ba1   2.870343 S    
N4    H84   1.035656 S    
C24   H40   1.108506 S    
C23   H43   1.108107 S    
C4    H62   1.102156 S    
O23   C31   1.399558 S    
P15   C48   1.850185 S    
