data_mof_unit_51377.cif
_audit_creation_date              2012-12-10T21:29:38-0500
_audit_creation_method            fapswitch 2.2
_symmetry_space_group_name_H-M    P1
_symmetry_Int_Tables_number       1
_space_group_crystal_system       triclinic
_cell_length_a                    10.614245
_cell_length_b                    16.040534
_cell_length_c                    16.823711
_cell_angle_alpha                 87.055318
_cell_angle_beta                  89.896993
_cell_angle_gamma                 92.824167
_cell_volume                      2857.09066271

loop_
_atom_site_label
_atom_site_type_symbol
_atom_type_description
_atom_site_fract_x
_atom_site_fract_y
_atom_site_fract_z
_atom_type_partial_charge
C1    C     C_R   0.496511 0.488278 0.652808 0.898813
C2    C     C_R   0.503493 0.511722 0.347193 0.898830
C3    C     C_R   0.489764 0.478690 0.738529 -0.086957
C4    C     C_R   0.510298 0.521315 0.261472 -0.086970
C5    C     C_R   0.405555 0.524174 0.781939 0.162391
C6    C     C_R   0.594546 0.475843 0.218080 0.162375
C7    C     C_R   0.408452 0.516226 0.864477 -0.208045
C8    C     C_R   0.591744 0.483826 0.135541 -0.208025
C9    C     C_R   0.494925 0.464713 0.903681 0.267836
C10   C     C_R   0.505323 0.535361 0.096319 0.267823
C11   C     C_R   0.571061 0.414210 0.859948 0.201659
C12   C     C_R   0.429152 0.585855 0.140039 0.201660
C13   C     C_R   0.567949 0.421911 0.777233 -0.281807
C14   C     C_R   0.432168 0.578117 0.222754 -0.281792
C15   C     C_R   0.432266 0.762475 0.466325 -0.022464
C16   C     C_R   0.567741 0.237527 0.533671 -0.022461
C17   C     C_R   0.435961 0.849825 0.468395 -0.284762
C18   C     C_R   0.564051 0.150177 0.531600 -0.284760
C19   C     C_R   0.526664 0.891014 0.515864 0.338402
C20   C     C_R   0.473345 0.108987 0.484133 0.338407
C21   C     C_R   0.609966 0.842121 0.560255 -0.317401
C22   C     C_R   0.390038 0.157878 0.439744 -0.317401
C23   C     C_R   0.739877 0.501370 0.487674 0.889891
C24   C     C_R   0.260128 0.498629 0.512336 0.889908
C25   C     C_R   0.603031 0.754963 0.556358 -0.017583
C26   C     C_R   0.396969 0.245036 0.443643 -0.017587
C27   C     C_R   0.878918 0.352190 0.447555 -0.172786
C28   C     C_R   0.121097 0.647805 0.552473 -0.172768
C29   C     C_R   0.930013 0.274766 0.463244 -0.189598
C30   C     C_R   0.070013 0.725231 0.536778 -0.189578
C31   C     C_R   0.037419 0.268540 0.510563 0.145631
C32   C     C_R   0.962608 0.731460 0.489459 0.145626
C33   C     C_R   0.098402 0.341937 0.536029 -0.172856
C34   C     C_R   0.901614 0.658062 0.463999 -0.172869
C35   C     C_R   0.053397 0.421566 0.513838 0.062940
C36   C     C_R   0.946611 0.578432 0.486192 0.062941
C37   C     C_R   0.935153 0.425687 0.478142 0.087690
C38   C     C_R   0.064855 0.574309 0.521888 0.087688
C39   C     C_R   0.124025 0.497132 0.525004 -0.247555
C40   C     C_R   0.875983 0.502865 0.475022 -0.247543
H1    H     H_    0.631292 0.115739 0.566788 0.149185
H2    H     H_    0.368726 0.884264 0.433204 0.149189
H3    H     H_    0.680497 0.871534 0.597484 0.143684
H4    H     H_    0.319507 0.128465 0.402513 0.143681
H5    H     H_    0.668110 0.717637 0.590386 0.147163
H6    H     H_    0.331887 0.282361 0.409615 0.147160
H7    H     H_    0.795979 0.354025 0.410465 0.166487
H8    H     H_    0.204037 0.645965 0.589562 0.166470
H9    H     H_    0.884327 0.219492 0.439649 0.142035
H10   H     H_    0.115710 0.780506 0.560366 0.142034
H11   H     H_    0.180366 0.336475 0.573795 0.151985
H12   H     H_    0.819653 0.663527 0.426231 0.151999
H13   H     H_    0.655066 0.448436 0.101343 0.159941
H14   H     H_    0.345156 0.551622 0.898689 0.159955
H15   H     H_    0.629779 0.385491 0.742870 0.167752
H16   H     H_    0.370311 0.614533 0.257104 0.167746
H17   H     H_    0.637023 0.269088 0.570150 0.141252
H18   H     H_    0.362989 0.730914 0.429845 0.141254
N1    N     N_2   0.509162 0.465281 0.986745 -0.191530
N2    N     N_2   0.491126 0.534800 0.013252 -0.191537
N3    N     N_R   0.515300 0.716920 0.509720 -0.091909
N4    N     N_R   0.484700 0.283080 0.490280 -0.091908
N5    N     N_2   0.537916 0.979986 0.520989 -0.192067
N6    N     N_2   0.462094 0.020015 0.479008 -0.192067
O1    O     O_R   0.494530 0.422540 0.612660 -0.626102
O2    O     O_R   0.505470 0.577460 0.387340 -0.626092
O3    O     O_R   0.504350 0.561840 0.618900 -0.614228
O4    O     O_R   0.495650 0.438160 0.381100 -0.614223
O5    O     O_R   0.678310 0.430340 0.496890 -0.621988
O6    O     O_R   0.321690 0.569660 0.503110 -0.621981
O7    O     O_R   0.688140 0.569650 0.503130 -0.620842
O8    O     O_R   0.311860 0.430350 0.496870 -0.620839
Zn1   Zn    Zn3+2 0.493440 0.406980 0.495830 0.929824
Zn2   Zn    Zn3+2 0.506560 0.593020 0.504170 0.929828
C41   C     C_3   0.909738 0.815649 0.469841 -0.433477
C42   C     C_3   0.999398 0.871018 0.415815 -0.343789
C43   C     C_3   0.942105 0.954353 0.393088 -0.878211
H19   H     H_    0.854535 0.943949 0.358153 0.267122
H20   H     H_    0.919388 0.987605 0.447207 0.266335
H21   H     H_    0.010461 0.994305 0.356250 0.245423
H22   H     H_    0.090211 0.883533 0.446867 0.214478
H23   H     H_    0.019032 0.838499 0.360656 0.226369
H24   H     H_    0.817013 0.807946 0.439695 0.211230
H25   H     H_    0.893693 0.846952 0.526173 0.200203
C44   C     C_3   0.090302 0.184353 0.530174 -0.433474
C45   C     C_3   0.000652 0.128978 0.584200 -0.343775
C46   C     C_3   0.057932 0.045630 0.606896 -0.878197
H26   H     H_    0.080582 0.012380 0.552763 0.266332
H27   H     H_    0.145540 0.056013 0.641799 0.267124
H28   H     H_    0.989595 0.005686 0.643754 0.245419
H29   H     H_    0.981050 0.161484 0.639372 0.226360
H30   H     H_    0.909824 0.116482 0.553161 0.214483
H31   H     H_    0.106348 0.153055 0.473840 0.200215
H32   H     H_    0.183028 0.192059 0.560318 0.211220
C47   C     C_3   0.689070 0.420637 0.258230 -0.903997
H33   H     H_    0.639751 0.366131 0.290054 0.257611
H34   H     H_    0.755005 0.396265 0.214685 0.234812
H35   H     H_    0.746057 0.457022 0.300953 0.221622
C48   C     C_3   0.310980 0.579358 0.741807 -0.904009
H36   H     H_    0.360255 0.633863 0.709954 0.257601
H37   H     H_    0.253961 0.542957 0.699112 0.221616
H38   H     H_    0.245076 0.603734 0.785369 0.234820
C49   C     C_3   0.660520 0.354811 0.899087 -0.909884
H39   H     H_    0.654522 0.352649 0.964989 0.248781
H40   H     H_    0.638411 0.290698 0.879458 0.240189
H41   H     H_    0.758890 0.374128 0.881309 0.241061
C50   C     C_3   0.339752 0.645279 0.100884 -0.909929
H42   H     H_    0.345842 0.647478 0.034986 0.248792
H43   H     H_    0.241359 0.625956 0.118604 0.241072
H44   H     H_    0.361839 0.709377 0.120559 0.240196

loop_
_geom_bond_atom_site_label_1
_geom_bond_atom_site_label_2
_ccdc_geom_bond_type
C14   H16   S    
C46   H26   S    
C31   C44   S    
C27   C29   A    
C23   O5    A    
C2    C4    S    
C47   H33   S    
C32   C41   S    
C47   H35   S    
C24   O6    A    
C29   H9    S    
C43   H19   S    
C19   C21   A    
C37   C40   A    
C2    O4    A    
C45   H29   S    
C38   C39   A    
C33   C35   A    
C41   H25   S    
C23   C40   S    
O2    Zn2   S    
C24   C39   S    
O1    Zn1   S    
C7    C9    A    
C17   H2    S    
C17   C19   A    
C21   H3    S    
C44   H31   S    
C22   H4    S    
C5    C48   S    
C19   N5    S    
O6    Zn2   S    
C1    O1    A    
C50   H42   S    
C31   C33   A    
N4    Zn1   S    
O5    Zn1   S    
C18   C20   A    
C3    C13   A    
C30   H10   S    
N1    N2    D    
C50   H43   S    
C16   N4    A    
C43   H20   S    
C23   O7    A    
C36   C40   A    
C42   C43   S    
C4    C6    A    
C18   H1    S    
C42   H23   S    
C5    C7    A    
C45   C46   S    
C6    C8    A    
C3    C5    A    
O4    Zn1   S    
C44   C45   S    
C9    N1    S    
C32   C34   A    
C20   N6    S    
C10   N2    S    
C41   C42   S    
O7    Zn2   S    
C44   H32   S    
C48   H36   S    
C28   C38   A    
C15   N3    A    
C49   H40   S    
O3    Zn2   S    
C25   N3    A    
C9    C11   A    
C10   C12   A    
C16   C18   A    
C48   H37   S    
C20   C22   A    
C46   H27   S    
C15   H18   S    
C25   H5    S    
C24   O8    A    
C43   H21   S    
C27   H7    S    
C15   C17   A    
C21   C25   A    
C28   H8    S    
C35   C37   A    
C12   C14   A    
O8    Zn1   S    
C2    O2    A    
C8    H13   S    
C12   C50   S    
C47   H34   S    
C1    O3    A    
N3    Zn2   S    
C33   H11   S    
C34   H12   S    
C42   H22   S    
C28   C30   A    
C26   N4    A    
C29   C31   A    
C45   H30   S    
C30   C32   A    
C11   C13   A    
C41   H24   S    
C27   C37   A    
C35   C39   A    
C36   C38   A    
C50   H44   S    
C49   H41   S    
C34   C36   A    
C16   H17   S    
C4    C14   A    
C26   H6    S    
N5    N6    D    
C48   H38   S    
C8    C10   A    
C6    C47   S    
C22   C26   A    
C46   H28   S    
C49   H39   S    
C11   C49   S    
C7    H14   S    
C1    C3    S    
C13   H15   S    
