data_mof_unit_64580.cif
_audit_creation_date              2012-12-10T19:09:09-0500
_audit_creation_method            fapswitch 2.2
_symmetry_space_group_name_H-M    P1
_symmetry_Int_Tables_number       1
_space_group_crystal_system       triclinic
_cell_length_a                    30.236245
_cell_length_b                    30.236244
_cell_length_c                    18.247032
_cell_angle_alpha                 89.791054
_cell_angle_beta                  89.791119
_cell_angle_gamma                 89.993332
_cell_volume                      16681.7709762

loop_
_atom_site_label
_atom_site_type_symbol
_atom_type_description
_atom_site_fract_x
_atom_site_fract_y
_atom_site_fract_z
_atom_type_partial_charge
Br1   Br    Br    0.127956 0.921318 0.406646 -0.378916
Br2   Br    Br    0.582676 0.624090 0.910304 -0.368614
Br3   Br    Br    0.368602 0.578528 0.911649 -0.399152
Br4   Br    Br    0.421717 0.372060 0.906189 -0.375955
Br5   Br    Br    0.375910 0.417324 0.089696 -0.368613
Br6   Br    Br    0.421471 0.631397 0.088350 -0.399152
Br7   Br    Br    0.627940 0.578283 0.093811 -0.375955
Br8   Br    Br    0.578682 0.372044 0.093354 -0.378916
Br9   Br    Br    0.082676 0.124090 0.410305 -0.368614
Br10  Br    Br    0.868603 0.078529 0.411649 -0.399151
Br11  Br    Br    0.921717 0.872060 0.406189 -0.375955
Br12  Br    Br    0.875910 0.917324 0.589696 -0.368614
Br13  Br    Br    0.921471 0.131397 0.588350 -0.399151
Br14  Br    Br    0.127940 0.078283 0.593811 -0.375955
Br15  Br    Br    0.078682 0.872044 0.593353 -0.378916
Br16  Br    Br    0.627955 0.421318 0.906646 -0.378916
C1    C     C_R   0.225884 0.999880 0.499490 0.096726
C2    C     C_R   0.037445 0.201442 0.458023 0.001781
C3    C     C_R   0.991017 0.656358 0.566098 -0.076807
C4    C     C_R   0.657477 0.980251 0.442557 -0.090958
C5    C     C_R   0.984285 0.343495 0.435957 -0.128540
C6    C     C_R   0.343642 0.008984 0.433902 -0.076806
C7    C     C_R   0.009146 0.656768 0.434362 -0.081538
C8    C     C_R   0.843231 0.490853 0.065638 -0.081539
C9    C     C_R   0.519749 0.842522 0.057443 -0.090958
C10   C     C_R   0.156504 0.515715 0.064042 -0.128540
C11   C     C_R   0.491017 0.156358 0.066098 -0.076807
C12   C     C_R   0.157477 0.480251 0.942557 -0.090957
C13   C     C_R   0.795450 0.029077 0.467134 -0.180407
C14   C     C_R   0.484285 0.843495 0.935957 -0.128540
C15   C     C_R   0.843642 0.508984 0.933902 -0.076806
C16   C     C_R   0.509146 0.156769 0.934362 -0.081538
C17   C     C_R   0.366041 0.999981 0.499854 -0.134569
C18   C     C_R   0.000174 0.365752 0.498521 -0.104444
C19   C     C_R   0.634248 0.999826 0.501479 -0.104444
C20   C     C_R   0.000019 0.633959 0.500146 -0.134570
C21   C     C_R   0.866041 0.499980 0.999854 -0.134569
C22   C     C_R   0.500174 0.865752 0.998521 -0.104444
C23   C     C_R   0.134248 0.499826 0.001478 -0.104444
C24   C     C_R   0.967948 0.796898 0.460758 -0.093548
C25   C     C_R   0.500019 0.133959 0.000146 -0.134569
C26   C     C_R   0.274112 0.999796 0.499541 0.020567
C27   C     C_R   0.006261 0.273837 0.492341 0.030117
C28   C     C_R   0.726163 0.993739 0.507658 0.030117
C29   C     C_R   0.000204 0.725888 0.500459 0.020568
C30   C     C_R   0.774112 0.499796 0.999541 0.020567
C31   C     C_R   0.506261 0.773837 0.992341 0.030117
C32   C     C_R   0.226163 0.493739 0.007658 0.030117
C33   C     C_R   0.500204 0.225888 0.000459 0.020567
C34   C     C_2   0.272393 0.971411 0.630676 0.430282
C35   C     C_R   0.798558 0.962555 0.541977 0.001780
C36   C     C_2   0.044504 0.271553 0.615704 0.412916
C37   C     C_2   0.726918 0.037198 0.626462 0.517573
C38   C     C_2   0.971935 0.726833 0.631659 0.432225
C39   C     C_2   0.728447 0.955496 0.384295 0.412917
C40   C     C_2   0.962802 0.273082 0.373538 0.517573
C41   C     C_2   0.273167 0.028066 0.368342 0.432225
C42   C     C_2   0.028588 0.727606 0.369323 0.430282
C43   C     C_2   0.772393 0.471411 0.130676 0.430282
C44   C     C_2   0.544504 0.771553 0.115704 0.412917
C45   C     C_2   0.226918 0.537198 0.126462 0.517572
C46   C     C_R   0.970923 0.204550 0.532865 -0.180408
C47   C     C_2   0.471935 0.226833 0.131659 0.432224
C48   C     C_2   0.228447 0.455496 0.884295 0.412918
C49   C     C_2   0.462801 0.773082 0.873538 0.517573
C50   C     C_2   0.773167 0.528066 0.868342 0.432225
C51   C     C_2   0.528588 0.227606 0.869323 0.430281
C52   C     C_2   0.368862 0.982867 0.634000 0.366598
C53   C     C_2   0.036694 0.366392 0.623007 0.400601
C54   C     C_2   0.630590 0.031611 0.628726 0.344254
C55   C     C_2   0.982906 0.630295 0.634279 0.355343
C56   C     C_2   0.633608 0.963306 0.376993 0.400603
C57   C     C_R   0.203102 0.032052 0.539242 -0.093550
C58   C     C_2   0.968388 0.369409 0.371274 0.344255
C59   C     C_2   0.369705 0.017095 0.365721 0.355338
C60   C     C_2   0.017132 0.631138 0.365999 0.366598
C61   C     C_2   0.868862 0.482867 0.134000 0.366598
C62   C     C_2   0.536694 0.866392 0.123006 0.400601
C63   C     C_2   0.130590 0.531612 0.128726 0.344254
C64   C     C_2   0.482906 0.130295 0.134279 0.355342
C65   C     C_2   0.133608 0.463306 0.876993 0.400602
C66   C     C_2   0.468388 0.869409 0.871274 0.344255
C67   C     C_2   0.869705 0.517095 0.865721 0.355339
C68   C     C_R   0.032261 0.796856 0.540121 -0.094527
C69   C     C_2   0.517132 0.131138 0.865999 0.366595
C70   C     C_R   0.703144 0.467739 0.959879 -0.094523
C71   C     C_R   0.537445 0.701442 0.958023 0.001781
C72   C     C_R   0.295450 0.529077 0.967134 -0.180408
C73   C     C_R   0.004679 0.225701 0.493869 0.067144
C74   C     C_R   0.467948 0.296898 0.960758 -0.093547
C75   C     C_R   0.298558 0.462554 0.041977 0.001781
C76   C     C_R   0.470923 0.704550 0.032865 -0.180408
C77   C     C_R   0.703102 0.532052 0.039242 -0.093550
C78   C     C_R   0.532261 0.296856 0.040121 -0.094528
C79   C     C_R   0.157255 0.967618 0.459586 0.250751
C80   C     C_R   0.036205 0.155585 0.459824 0.235871
C81   C     C_R   0.841310 0.030489 0.464102 0.262384
C82   C     C_R   0.967748 0.842778 0.460170 0.252864
C83   C     C_R   0.844415 0.963795 0.540176 0.235871
C84   C     C_R   0.774299 0.995321 0.506131 0.067145
C85   C     C_R   0.969511 0.158690 0.535898 0.262385
C86   C     C_R   0.157222 0.032252 0.539830 0.252864
C87   C     C_R   0.032382 0.842745 0.540414 0.250751
C88   C     C_R   0.657255 0.467618 0.959586 0.250751
C89   C     C_R   0.536205 0.655585 0.959824 0.235871
C90   C     C_R   0.341310 0.530489 0.964102 0.262384
C91   C     C_R   0.467748 0.342778 0.960170 0.252863
C92   C     C_R   0.344415 0.463795 0.040176 0.235871
C93   C     C_R   0.469511 0.658690 0.035898 0.262385
C94   C     C_R   0.657222 0.532252 0.039830 0.252864
C95   C     C_R   0.000120 0.774115 0.500510 0.096725
C96   C     C_R   0.532382 0.342745 0.040414 0.250751
C97   C     C_R   0.134121 0.999990 0.499696 -0.165372
C98   C     C_R   0.002104 0.134056 0.498895 -0.168881
C99   C     C_R   0.865944 0.997896 0.501104 -0.168881
C100  C     C_R   0.000009 0.865879 0.500304 -0.165372
C101  C     C_R   0.634121 0.499990 0.999696 -0.165372
C102  C     C_R   0.502104 0.634056 0.998895 -0.168881
C103  C     C_R   0.365944 0.497896 0.001105 -0.168881
C104  C     C_R   0.500009 0.365879 0.000304 -0.165372
C105  C     C_R   0.413960 1.000000 0.499991 0.821922
C106  C     C_R   0.725885 0.499880 0.999490 0.096726
C107  C     C_R   0.000004 0.413843 0.499376 0.925277
C108  C     C_R   0.586157 0.999996 0.500624 0.925277
C109  C     C_R   0.000000 0.586040 0.500009 0.821921
C110  C     C_R   0.913960 0.500000 0.999991 0.821923
C111  C     C_R   0.500004 0.913843 0.999376 0.925277
C112  C     C_R   0.086157 0.499996 0.000624 0.925277
C113  C     C_R   0.500000 0.086040 0.000009 0.821922
C114  C     C_R   0.499637 0.000081 0.358950 0.974735
C115  C     C_R   0.000066 0.499954 0.358945 0.894874
C116  C     C_R   0.500045 0.999934 0.641055 0.894875
C117  C     C_R   0.504679 0.725701 0.993869 0.067144
C118  C     C_R   0.999919 0.500363 0.641050 0.974734
C119  C     C_R   0.999637 0.500081 0.858950 0.974735
C120  C     C_R   0.500066 0.999954 0.858945 0.894874
C121  C     C_R   0.000045 0.499934 0.141055 0.894875
C122  C     C_R   0.499919 0.000363 0.141050 0.974734
C123  C     C_R   0.999992 0.913699 0.500105 0.964855
C124  C     C_R   0.086301 0.000007 0.499895 0.964855
C125  C     C_R   0.000301 0.086288 0.499801 0.966285
C126  C     C_R   0.913712 0.999699 0.500198 0.966285
C127  C     C_R   0.499992 0.413699 0.000106 0.964855
C128  C     C_R   0.274299 0.495321 0.006131 0.067144
C129  C     C_R   0.586301 0.500008 0.999895 0.964855
C130  C     C_R   0.500301 0.586288 0.999801 0.966285
C131  C     C_R   0.413712 0.499699 0.000199 0.966285
C132  C     C_1   0.499620 0.000273 0.282418 -0.093295
C133  C     C_1   0.000176 0.499857 0.282418 -0.109963
C134  C     C_1   0.500143 0.999824 0.717581 -0.109964
C135  C     C_1   0.999727 0.500379 0.717582 -0.093296
C136  C     C_1   0.999620 0.500273 0.782418 -0.093295
C137  C     C_1   0.500176 0.999857 0.782418 -0.109963
C138  C     C_1   0.000143 0.499824 0.217582 -0.109963
C139  C     C_R   0.500120 0.274115 0.000510 0.096726
C140  C     C_1   0.499727 0.000379 0.217582 -0.093296
C141  C     C_R   0.296783 0.988309 0.564785 -0.033716
C142  C     C_R   0.023970 0.296314 0.553450 -0.087387
C143  C     C_R   0.703027 0.014212 0.565997 -0.031216
C144  C     C_R   0.988676 0.702823 0.565571 -0.034201
C145  C     C_R   0.703686 0.976030 0.446550 -0.087386
C146  C     C_R   0.985788 0.296973 0.434003 -0.031216
C147  C     C_R   0.297177 0.011325 0.434429 -0.034201
C148  C     C_R   0.011690 0.703216 0.435214 -0.033716
C149  C     C_R   0.796784 0.488309 0.064785 -0.033716
C150  C     C_R   0.203144 0.967739 0.459879 -0.094523
C151  C     C_R   0.523971 0.796314 0.053450 -0.087386
C152  C     C_R   0.203027 0.514212 0.065997 -0.031216
C153  C     C_R   0.488676 0.202823 0.065571 -0.034200
C154  C     C_R   0.203686 0.476029 0.946550 -0.087387
C155  C     C_R   0.485788 0.796973 0.934003 -0.031216
C156  C     C_R   0.797177 0.511325 0.934429 -0.034201
C157  C     C_R   0.511690 0.203216 0.935214 -0.033716
C158  C     C_R   0.343231 0.990853 0.565638 -0.081539
C159  C     C_R   0.019749 0.342523 0.557443 -0.090957
C160  C     C_R   0.656505 0.015715 0.564042 -0.128540
H1    H     H_    0.221196 0.942721 0.429697 0.170005
H2    H     H_    0.563767 0.718291 0.928701 0.181069
H3    H     H_    0.276195 0.554211 0.939271 0.173370
H4    H     H_    0.443033 0.278875 0.930517 0.171177
H5    H     H_    0.281708 0.436233 0.071299 0.181069
H6    H     H_    0.445789 0.723805 0.060729 0.173369
H7    H     H_    0.721124 0.556967 0.069483 0.171177
H8    H     H_    0.557280 0.278804 0.070303 0.170004
H9    H     H_    0.284602 0.977187 0.685435 0.144451
H10   H     H_    0.040794 0.283406 0.671425 0.071451
H11   H     H_    0.712638 0.066532 0.651148 0.099850
H12   H     H_    0.063767 0.218291 0.428701 0.181069
H13   H     H_    0.977854 0.714304 0.686328 0.144542
H14   H     H_    0.716594 0.959207 0.328575 0.071451
H15   H     H_    0.933467 0.287362 0.348853 0.099850
H16   H     H_    0.285696 0.022149 0.313673 0.144541
H17   H     H_    0.022812 0.715398 0.314565 0.144451
H18   H     H_    0.784602 0.477187 0.185435 0.144451
H19   H     H_    0.540794 0.783406 0.171425 0.071451
H20   H     H_    0.212638 0.566532 0.151148 0.099850
H21   H     H_    0.477854 0.214304 0.186327 0.144542
H22   H     H_    0.216594 0.459207 0.828575 0.071451
H23   H     H_    0.776195 0.054211 0.439271 0.173369
H24   H     H_    0.433467 0.787362 0.848853 0.099850
H25   H     H_    0.785696 0.522149 0.813673 0.144541
H26   H     H_    0.522813 0.215398 0.814565 0.144451
H27   H     H_    0.397516 0.961279 0.633178 0.097062
H28   H     H_    0.066868 0.355550 0.649586 0.072440
H29   H     H_    0.599626 0.049069 0.621487 0.101995
H30   H     H_    0.961167 0.601767 0.633256 0.090387
H31   H     H_    0.644450 0.933132 0.350414 0.072440
H32   H     H_    0.950931 0.400374 0.378514 0.101995
H33   H     H_    0.398232 0.038834 0.366744 0.090389
H34   H     H_    0.943033 0.778875 0.430518 0.171177
H35   H     H_    0.038720 0.602484 0.366821 0.097061
H36   H     H_    0.897516 0.461279 0.133178 0.097062
H37   H     H_    0.566868 0.855550 0.149586 0.072440
H38   H     H_    0.099626 0.549069 0.121486 0.101995
H39   H     H_    0.461167 0.101767 0.133256 0.090388
H40   H     H_    0.144450 0.433132 0.850414 0.072439
H41   H     H_    0.450931 0.900374 0.878513 0.101995
H42   H     H_    0.898232 0.538834 0.866744 0.090389
H43   H     H_    0.538720 0.102484 0.866821 0.097062
H44   H     H_    0.781708 0.936233 0.571299 0.181069
H45   H     H_    0.945789 0.223805 0.560729 0.173369
H46   H     H_    0.221124 0.056967 0.569483 0.171177
H47   H     H_    0.057280 0.778804 0.570303 0.170004
H48   H     H_    0.721196 0.442721 0.929697 0.170005
O1    O     O_R   0.434530 0.036970 0.500000 -0.614468
O2    O     O_R   0.463030 0.934530 0.000000 -0.627417
O3    O     O_R   0.065470 0.463030 0.000000 -0.600763
O4    O     O_R   0.536970 0.065470 0.000000 -0.618844
O5    O     O_R   0.065470 0.536970 0.000000 -0.627417
O6    O     O_R   0.536970 0.934530 0.000000 -0.600763
O7    O     O_R   0.934530 0.463030 0.000000 -0.618844
O8    O     O_R   0.463030 0.065470 0.000000 -0.614467
O9    O     O_R   0.500010 0.036970 0.392670 -0.612739
O10   O     O_R   0.963030 0.500010 0.392670 -0.609546
O11   O     O_R   0.499990 0.963030 0.392670 -0.593577
O12   O     O_R   0.963030 0.434530 0.500000 -0.627417
O13   O     O_R   0.036970 0.499990 0.392670 -0.612986
O14   O     O_R   0.499990 0.036970 0.607330 -0.609546
O15   O     O_R   0.036970 0.500010 0.607330 -0.593577
O16   O     O_R   0.500010 0.963030 0.607330 -0.612986
O17   O     O_R   0.963030 0.499990 0.607330 -0.612739
O18   O     O_R   0.000010 0.536970 0.892670 -0.612739
O19   O     O_R   0.463030 0.000010 0.892670 -0.609546
O20   O     O_R   0.999990 0.463030 0.892670 -0.593577
O21   O     O_R   0.536970 0.999990 0.892670 -0.612986
O22   O     O_R   0.999990 0.536970 0.107330 -0.609546
O23   O     O_R   0.565470 0.963030 0.500000 -0.600763
O24   O     O_R   0.536970 0.000010 0.107330 -0.593577
O25   O     O_R   0.000010 0.463030 0.107330 -0.612986
O26   O     O_R   0.463030 0.999990 0.107330 -0.612739
O27   O     O_R   0.999990 0.934550 0.439420 -0.585264
O28   O     O_R   0.065450 0.999990 0.439420 -0.584238
O29   O     O_R   0.000010 0.065450 0.439420 -0.586442
O30   O     O_R   0.934550 0.000010 0.439420 -0.583883
O31   O     O_R   0.000010 0.934550 0.560580 -0.584238
O32   O     O_R   0.934550 0.999990 0.560580 -0.586442
O33   O     O_R   0.999990 0.065450 0.560580 -0.583883
O34   O     O_R   0.036970 0.565470 0.500000 -0.618844
O35   O     O_R   0.065450 0.000010 0.560580 -0.585265
O36   O     O_R   0.499990 0.434550 0.939420 -0.585264
O37   O     O_R   0.565450 0.499990 0.939420 -0.584238
O38   O     O_R   0.500010 0.565450 0.939420 -0.586442
O39   O     O_R   0.434550 0.500010 0.939420 -0.583883
O40   O     O_R   0.500010 0.434550 0.060580 -0.584238
O41   O     O_R   0.434550 0.499990 0.060580 -0.586442
O42   O     O_R   0.499990 0.565450 0.060580 -0.583883
O43   O     O_R   0.565450 0.500010 0.060580 -0.585265
O44   O     O_2   0.238810 0.949336 0.624472 -0.529308
O45   O     O_R   0.565470 0.036970 0.500000 -0.627417
O46   O     O_2   0.066591 0.238336 0.605399 -0.513856
O47   O     O_2   0.761921 0.023383 0.650505 -0.535848
O48   O     O_2   0.949847 0.760458 0.625728 -0.526747
O49   O     O_2   0.761663 0.933409 0.394601 -0.513856
O50   O     O_2   0.976618 0.238079 0.349494 -0.535847
O51   O     O_2   0.239541 0.050153 0.374273 -0.526748
O52   O     O_2   0.050663 0.761190 0.375527 -0.529308
O53   O     O_2   0.738810 0.449336 0.124472 -0.529308
O54   O     O_2   0.566591 0.738336 0.105399 -0.513856
O55   O     O_2   0.261920 0.523382 0.150506 -0.535847
O56   O     O_R   0.036970 0.434530 0.500000 -0.600763
O57   O     O_2   0.449847 0.260458 0.125727 -0.526747
O58   O     O_2   0.261663 0.433409 0.894601 -0.513856
O59   O     O_2   0.476618 0.738079 0.849494 -0.535847
O60   O     O_2   0.739541 0.550153 0.874273 -0.526748
O61   O     O_2   0.550663 0.261190 0.875527 -0.529308
O62   O     O_2   0.359735 0.002284 0.690595 -0.556462
O63   O     O_2   0.016412 0.397479 0.649222 -0.565573
O64   O     O_2   0.642841 0.023876 0.691171 -0.538299
O65   O     O_2   0.002370 0.638923 0.690934 -0.562289
O66   O     O_2   0.602521 0.983588 0.350778 -0.565575
O67   O     O_R   0.434530 0.963030 0.500000 -0.618844
O68   O     O_2   0.976123 0.357159 0.308829 -0.538298
O69   O     O_2   0.361077 0.997631 0.309066 -0.562287
O70   O     O_2   0.997714 0.640265 0.309405 -0.556462
O71   O     O_2   0.859735 0.502284 0.190595 -0.556462
O72   O     O_2   0.516412 0.897479 0.149222 -0.565574
O73   O     O_2   0.142841 0.523876 0.191171 -0.538298
O74   O     O_2   0.502369 0.138923 0.190934 -0.562288
O75   O     O_2   0.102521 0.483588 0.850778 -0.565574
O76   O     O_2   0.476123 0.857159 0.808829 -0.538298
O77   O     O_2   0.861077 0.497631 0.809066 -0.562287
O78   O     O_R   0.963030 0.565470 0.500000 -0.614467
O79   O     O_2   0.497714 0.140265 0.809405 -0.556461
O80   O     O_R   0.934530 0.536970 0.000000 -0.614468
Zn1   Zn    Zn3+2 0.500000 0.049360 0.500000 1.044778
Zn2   Zn    Zn3+2 0.000000 1.000000 0.580910 1.149437
Zn3   Zn    Zn3+2 0.500000 0.500000 0.919090 1.149437
Zn4   Zn    Zn3+2 0.500000 0.500000 0.080910 1.149437
Zn5   Zn    Zn3+2 0.950640 0.500000 0.500000 1.044778
Zn6   Zn    Zn3+2 0.500000 0.950640 0.500000 1.052598
Zn7   Zn    Zn3+2 0.049360 0.500000 0.500000 1.052598
Zn8   Zn    Zn3+2 0.000000 0.549360 0.000000 1.044778
Zn9   Zn    Zn3+2 0.450640 0.000000 0.000000 1.044778
Zn10  Zn    Zn3+2 0.000000 0.450640 0.000000 1.052598
Zn11  Zn    Zn3+2 0.549360 0.000000 0.000000 1.052597
Zn12  Zn    Zn3+2 1.000000 1.000000 0.419090 1.149437

loop_
_geom_bond_atom_site_label_1
_geom_bond_atom_site_label_2
_ccdc_geom_bond_type
C38   H13   S    
C48   H22   S    
C116  C134  S    
C76   C117  A    
C131  O41   A    
C27   C142  A    
C42   C148  S    
C33   C157  A    
C27   C73   S    
Br11  C82   S    
C19   C108  S    
C74   C91   A    
C65   O75   D    
C24   C82   A    
C66   O76   D    
C76   C93   A    
Br14  C86   S    
C65   H40   S    
C15   C156  A    
C40   C146  S    
C114  O11   A    
C105  O1    A    
C14   C22   A    
C46   H45   S    
O43   Zn4   S    
C50   H25   S    
Br16  C88   S    
C36   O46   D    
C37   O47   D    
C34   C141  S    
O38   Zn3   S    
C81   C99   A    
O33   Zn2   S    
C11   C153  A    
O6    Zn11  S    
C77   C94   A    
C46   C85   A    
C40   H15   S    
O42   Zn4   S    
C115  O10   A    
O67   Zn6   S    
C80   C98   A    
C29   C144  A    
O15   Zn7   S    
C93   C102  A    
C42   O52   D    
C36   C142  S    
Br4   C91   S    
C37   C143  S    
C105  O67   A    
C41   H16   S    
O21   Zn11  S    
C96   C104  A    
C67   H42   S    
C47   H21   S    
C14   C66   S    
C118  O17   A    
C150  H1    S    
C45   H20   S    
O45   Zn1   S    
C12   C154  A    
C69   O79   D    
O2    Zn9   S    
C40   O50   D    
C89   C102  A    
C115  C133  S    
C26   C141  A    
C28   C145  A    
C131  O39   A    
C79   C150  A    
C91   C104  A    
C72   H3    S    
C88   C101  A    
O80   Zn8   S    
C114  O9    A    
C2    C73   A    
C33   C139  S    
O9    Zn1   S    
C68   H47   S    
C31   C155  A    
C29   C95   S    
O22   Zn8   S    
C16   C157  A    
C42   H17   S    
C45   C152  S    
C110  O7    A    
C76   H6    S    
O37   Zn3   S    
C120  C137  S    
C77   H7    S    
C118  C135  S    
C113  O4    A    
C30   C156  A    
C8    C149  A    
C107  O12   A    
C48   O58   D    
C8    C61   S    
C7    C20   A    
O28   Zn12  S    
C28   C143  A    
C30   C106  S    
C127  O40   A    
C53   C159  S    
Br15  C87   S    
C54   C160  S    
C30   C149  A    
C3    C55   S    
C7    C60   S    
C70   C88   A    
O56   Zn7   S    
C32   C128  S    
O29   Zn12  S    
C3    C144  A    
C1    C150  A    
C119  C136  S    
O24   Zn11  S    
C126  O32   A    
C56   O66   D    
Br12  C83   S    
C4    C19   A    
O17   Zn5   S    
C78   C139  A    
C71   C89   A    
C111  O2    A    
C38   O48   D    
C16   C25   A    
C43   C149  S    
C141  C158  A    
C1    C57   A    
C36   H10   S    
C67   O77   D    
C74   H4    S    
C44   C151  S    
C9    C62   S    
C98   C125  S    
C39   C145  S    
C11   C64   S    
C13   H23   S    
C109  O34   A    
Br10  C81   S    
O10   Zn5   S    
C9    C22   A    
C41   C147  S    
Br1   C79   S    
C8    C21   A    
C17   C158  A    
O5    Zn8   S    
O12   Zn5   S    
C143  C160  A    
C129  O37   A    
O19   Zn9   S    
Br6   C93   S    
C7    C148  A    
C35   C84   A    
C5    C146  A    
C120  O19   A    
C122  O26   A    
C87   C100  A    
C126  O30   A    
Br7   C94   S    
C116  O16   A    
C28   C84   S    
C66   H41   S    
O18   Zn8   S    
O78   Zn5   S    
C78   C96   A    
C48   C154  S    
O11   Zn6   S    
C27   C146  A    
C142  C159  A    
C110  O80   A    
C53   H28   S    
C125  O33   A    
C4    C56   S    
O20   Zn10  S    
O23   Zn6   S    
C44   H19   S    
C112  O5    A    
C90   C103  A    
C118  O15   A    
C124  O28   A    
C63   O73   D    
C54   H29   S    
C104  C127  S    
C113  O8    A    
C21   C110  S    
O34   Zn7   S    
Br8   C96   S    
C83   C99   A    
C10   C23   A    
O32   Zn2   S    
C103  C131  S    
C24   C95   A    
C46   C73   A    
C24   H34   S    
O27   Zn12  S    
C94   C101  A    
C101  C129  S    
C1    C26   S    
C18   C159  A    
C61   H36   S    
O25   Zn10  S    
C63   H38   S    
C134  C137  T    
C70   C106  A    
C135  C136  T    
C23   C112  S    
C100  C123  S    
C99   C126  S    
C44   O54   D    
C31   C117  S    
C85   C98   A    
C45   O55   D    
C92   C103  A    
O41   Zn4   S    
C78   H8    S    
C62   H37   S    
C64   H39   S    
C41   O51   D    
Br3   C90   S    
C34   O44   D    
C68   C95   A    
O36   Zn3   S    
C77   C106  A    
C107  O56   A    
C5    C18   A    
C12   C23   A    
O3    Zn10  S    
C119  O20   A    
C123  O31   A    
C133  C138  T    
C60   O70   D    
C61   O71   D    
C49   H24   S    
C62   O72   D    
C129  O43   A    
C58   O68   D    
Br9   C80   S    
C32   C154  A    
C57   C86   A    
C53   O63   D    
C54   O64   D    
C75   H5    S    
C59   H33   S    
C13   C84   A    
C75   C92   A    
C121  O25   A    
C10   C63   S    
C125  O29   A    
O30   Zn12  S    
C59   O69   D    
C86   C97   A    
C71   H2    S    
C33   C153  A    
C51   C157  S    
C16   C69   S    
C2    H12   S    
C121  C138  S    
C130  O38   A    
C111  O6    A    
C69   H43   S    
C38   C144  S    
C15   C21   A    
C132  C140  T    
Br5   C92   S    
C18   C107  S    
C121  O22   A    
C124  O35   A    
C2    C80   A    
C71   C117  A    
C20   C109  S    
C22   C111  S    
C58   H32   S    
C9    C151  A    
O8    Zn9   S    
O7    Zn10  S    
C10   C152  A    
C57   H46   S    
C49   C155  S    
C19   C160  A    
C119  O18   A    
C50   C156  S    
C29   C148  A    
C115  O13   A    
C3    C20   A    
C47   C153  S    
C15   C67   S    
C130  O42   A    
C116  O14   A    
O31   Zn2   S    
O1    Zn1   S    
C55   H30   S    
C31   C151  A    
O40   Zn4   S    
C64   O74   D    
O13   Zn7   S    
C52   H27   S    
C17   C105  S    
C70   H48   S    
C6    C59   S    
O35   Zn2   S    
C56   H31   S    
C43   H18   S    
C35   C83   A    
C108  O45   A    
C39   O49   D    
C114  C132  S    
C39   H14   S    
C102  C130  S    
O4    Zn11  S    
C52   C158  S    
C26   C147  A    
O26   Zn9   S    
O16   Zn6   S    
O14   Zn1   S    
C5    C58   S    
C72   C90   A    
C11   C25   A    
C82   C100  A    
C32   C152  A    
C97   C124  S    
C49   O59   D    
C50   O60   D    
C109  O78   A    
C60   H35   S    
C52   O62   D    
Br13  C85   S    
C47   O57   D    
C75   C128  A    
C122  C140  S    
C6    C17   A    
C12   C65   S    
C123  O27   A    
C127  O36   A    
C35   H44   S    
Br2   C89   S    
C13   C81   A    
C108  O23   A    
C43   O53   D    
C37   H11   S    
O39   Zn3   S    
C51   O61   D    
C51   H26   S    
C25   C113  S    
C6    C147  A    
C79   C97   A    
C112  O3    A    
C4    C145  A    
C120  O21   A    
C14   C155  A    
C122  O24   A    
C68   C87   A    
C55   O65   D    
C74   C139  A    
C34   H9    S    
C72   C128  A    
