data_mof_unit_7127.cif
_audit_creation_date              2012-12-10T19:46:52-0500
_audit_creation_method            fapswitch 2.2
_symmetry_space_group_name_H-M    P1
_symmetry_Int_Tables_number       1
_space_group_crystal_system       triclinic
_cell_length_a                    10.903887
_cell_length_b                    10.896531
_cell_length_c                    13.118505
_cell_angle_alpha                 90.02749
_cell_angle_beta                  90.222888
_cell_angle_gamma                 90.16191
_cell_volume                      1558.65096791

loop_
_atom_site_label
_atom_site_type_symbol
_atom_type_description
_atom_site_fract_x
_atom_site_fract_y
_atom_site_fract_z
_atom_type_partial_charge
C1    C     C_R   0.492094 0.259657 0.499812 0.824747
C2    C     C_R   0.507898 0.740344 0.500190 0.824749
C3    C     C_R   0.872919 0.492012 0.501602 -0.097419
C4    C     C_R   0.127085 0.507998 0.498395 -0.097427
C5    C     C_R   0.940566 0.457605 0.589144 -0.001792
C6    C     C_R   0.059439 0.542422 0.410858 -0.001794
C7    C     C_R   0.233829 0.230330 0.242284 -0.169048
C8    C     C_R   0.766126 0.769764 0.757778 -0.169069
C9    C     C_R   0.287020 0.175916 0.327999 -0.122742
C10   C     C_R   0.712950 0.824156 0.672054 -0.122800
C11   C     C_R   0.401566 0.118166 0.320521 0.055161
C12   C     C_R   0.598369 0.881834 0.679496 0.055209
C13   C     C_R   0.461768 0.114784 0.226088 -0.159364
C14   C     C_R   0.538106 0.885155 0.773900 -0.159254
C15   C     C_R   0.408818 0.170837 0.140592 0.329492
C16   C     C_R   0.591038 0.829121 0.859405 0.329496
C17   C     C_R   0.294855 0.228631 0.148818 -0.154222
C18   C     C_R   0.705047 0.771410 0.851218 -0.154177
C19   C     C_R   0.468642 0.933501 0.412753 -0.240247
C20   C     C_R   0.531340 0.066500 0.587255 -0.240196
C21   C     C_R   0.508867 0.873052 0.500632 -0.096672
C22   C     C_R   0.491111 0.126949 0.499376 -0.096672
C23   C     C_R   0.259674 0.507235 0.499482 0.819459
C24   C     C_R   0.740329 0.492778 0.500517 0.819455
C25   C     C_R   0.542854 0.939949 0.588453 0.021500
C26   C     C_R   0.457108 0.060051 0.411559 0.021525
C27   C     C_1   0.499971 0.500045 0.173567 0.178882
C28   C     C_1   0.500027 0.499946 0.826433 0.178895
C29   C     C_1   0.499977 0.500029 0.050689 -0.010685
C30   C     C_1   0.500021 0.499949 0.949311 -0.010681
C31   C     C_R   0.236234 0.746869 0.228395 -0.108799
C32   C     C_R   0.763661 0.253424 0.771740 -0.108745
C33   C     C_R   0.187626 0.699072 0.318677 -0.114213
C34   C     C_R   0.812316 0.301093 0.681430 -0.114129
C35   C     C_R   0.115926 0.591602 0.316314 0.129284
C36   C     C_R   0.884079 0.408520 0.683720 0.129268
C37   C     C_R   0.091925 0.534705 0.222061 -0.155225
C38   C     C_R   0.908111 0.465495 0.777931 -0.155207
C39   C     C_R   0.142239 0.581755 0.132374 -0.157542
C40   C     C_R   0.857770 0.418563 0.867646 -0.157579
C41   C     C_R   0.214374 0.687746 0.135554 -0.088049
C42   C     C_R   0.785563 0.312622 0.864538 -0.088190
C43   C     C_R   0.932679 0.532671 0.413686 -0.240045
C44   C     C_R   0.067326 0.467336 0.586310 -0.240058
Cu1   Cu    Cu3+1 0.499990 0.499990 0.592680 0.987648
Cu2   Cu    Cu3+1 0.500010 0.500010 0.407320 0.987667
H1    H     H_    0.252226 0.724779 0.065907 0.173774
H2    H     H_    0.747682 0.275693 0.934208 0.173652
H3    H     H_    0.549980 0.070072 0.219351 0.169411
H4    H     H_    0.449860 0.929807 0.780605 0.169390
H5    H     H_    0.442162 0.881629 0.345803 0.159835
H6    H     H_    0.557841 0.118372 0.654201 0.159822
H7    H     H_    0.289841 0.830424 0.229892 0.144286
H8    H     H_    0.709974 0.169918 0.770297 0.144338
H9    H     H_    0.204767 0.746238 0.390045 0.106062
H10   H     H_    0.795140 0.253872 0.610096 0.106061
H11   H     H_    0.033774 0.454194 0.218006 0.117719
H12   H     H_    0.966300 0.545981 0.781929 0.117733
H13   H     H_    0.124224 0.536738 0.060263 0.130386
H14   H     H_    0.875809 0.463641 0.939723 0.130372
H15   H     H_    0.879965 0.560950 0.347466 0.161830
H16   H     H_    0.120040 0.439062 0.652531 0.161844
H17   H     H_    0.253479 0.271914 0.082902 0.153994
H18   H     H_    0.746417 0.728150 0.917141 0.153982
H19   H     H_    0.144993 0.273239 0.248440 0.140685
H20   H     H_    0.854994 0.726918 0.751654 0.140687
H21   H     H_    0.238919 0.178338 0.400085 0.120067
H22   H     H_    0.761092 0.821777 0.599988 0.120091
N1    N     N_1   0.500030 0.500030 0.268070 -0.133240
N2    N     N_1   0.499970 0.499970 0.731930 -0.133243
O1    O     O_R   0.499980 0.319630 0.578260 -0.583310
O2    O     O_R   0.500020 0.680370 0.421740 -0.583284
O3    O     O_R   0.500000 0.319650 0.421740 -0.568678
O4    O     O_R   0.500000 0.680350 0.578260 -0.568694
O5    O     O_R   0.319630 0.500000 0.578260 -0.585646
O6    O     O_R   0.680370 0.500000 0.421740 -0.585641
O7    O     O_R   0.319650 0.500020 0.421740 -0.568283
O8    O     O_R   0.680350 0.499980 0.578260 -0.568285
Br1   Br    Br    0.492098 0.169133 0.012748 -0.569014
Br2   Br    Br    0.507670 0.830739 0.987209 -0.569097

loop_
_geom_bond_atom_site_label_1
_geom_bond_atom_site_label_2
_ccdc_geom_bond_type
C33   H9    S    
C34   H10   S    
C40   H14   S    
Cu1   O1    S    
Cu2   O6    S    
C39   C41   A    
Cu1   Cu2   S    
C8    H20   S    
C3    C43   A    
C1    O1    A    
C19   C21   A    
C27   C29   S    
C20   C25   A    
C5    C36   S    
C6    C35   S    
C7    C9    A    
C19   C26   A    
Cu2   N1    S    
C38   H12   S    
C15   Br1   S    
C7    C17   A    
C31   C33   A    
Cu1   O8    S    
Cu2   O2    S    
C27   N1    T    
C40   C42   A    
C1    C22   S    
C3    C24   S    
C2    O2    A    
C32   H8    S    
C4    C6    A    
C23   O5    A    
C4    C23   S    
C24   O6    A    
C4    C44   A    
C11   C26   S    
C44   H16   S    
C31   H7    S    
Cu1   O4    S    
C16   Br2   S    
C32   C34   A    
C9    H21   S    
C29   C30   T    
C7    H19   S    
C39   H13   S    
C2    C21   S    
C41   H1    S    
C16   C18   A    
C42   H2    S    
C23   O7    A    
C9    C11   A    
C10   C12   A    
C13   H3    S    
C24   O8    A    
C5    C44   A    
C12   C14   A    
C6    C43   A    
C13   C15   A    
C14   C16   A    
C43   H15   S    
C15   C17   A    
C21   C25   A    
C31   C41   A    
C35   C37   A    
Cu1   N2    S    
C8    C10   A    
C28   N2    T    
C20   C22   A    
C3    C5    A    
C2    O4    A    
Cu2   O7    S    
C10   H22   S    
C12   C25   S    
Cu1   O5    S    
C1    O3    A    
C28   C30   S    
C37   C39   A    
C17   H17   S    
C38   C40   A    
C11   C13   A    
C18   H18   S    
C14   H4    S    
C36   C38   A    
C33   C35   A    
C34   C36   A    
C8    C18   A    
C19   H5    S    
C20   H6    S    
C22   C26   A    
C32   C42   A    
Cu2   O3    S    
C37   H11   S    
