data_mof_unit_58216.cif
_audit_creation_date              2013-03-05T15:46:55-0500
_audit_creation_method            fapswitch 2.2
_symmetry_space_group_name_H-M    P1
_symmetry_Int_Tables_number       1
_space_group_crystal_system       triclinic
_cell_length_a                    19.289398
_cell_length_b                    11.067388
_cell_length_c                    9.893401
_cell_angle_alpha                 112.698051
_cell_angle_beta                  98.513525
_cell_angle_gamma                 90.617333
_cell_volume                      1921.68338407

loop_
_atom_site_label
_atom_site_type_symbol
_atom_site_description
_atom_site_fract_x
_atom_site_fract_y
_atom_site_fract_z
_atom_type_partial_charge
O1    O     O_R   0.506480 0.332340 0.577400 -0.588917
O2    O     O_R   0.493520 0.667660 0.422600 -0.592442
O3    O     O_R   0.485980 0.295500 0.332650 -0.539136
O4    O     O_R   0.514020 0.704500 0.667350 -0.530616
C1    C     C_R   0.494372 0.252970 0.438389 0.820178
C2    C     C_R   0.506182 0.746924 0.561580 0.822636
O5    O     O_R   0.410390 0.518410 0.622410 -0.579887
O6    O     O_R   0.589610 0.481590 0.377590 -0.580487
O7    O     O_R   0.389900 0.481570 0.377660 -0.561698
O8    O     O_R   0.610100 0.518430 0.622340 -0.565609
C3    C     C_R   0.367694 0.499271 0.500864 0.815209
C4    C     C_R   0.632218 0.501435 0.499444 0.830219
Cu1   Cu    Cu3+1 0.512140 0.521810 0.644910 1.025158
Cu2   Cu    Cu3+1 0.487860 0.478190 0.355090 1.020567
C5    C     C_R   0.263472 0.614883 0.589795 -0.037212
C6    C     C_R   0.737427 0.379609 0.430673 -0.039261
C7    C     C_R   0.190532 0.617193 0.593318 0.086757
C8    C     C_R   0.810624 0.376431 0.430009 0.082728
C9    C     C_R   0.146819 0.500417 0.512332 -0.075065
C10   C     C_R   0.853505 0.495957 0.496624 -0.067875
C11   C     C_R   0.175264 0.381818 0.431932 -0.017371
C12   C     C_R   0.823740 0.617625 0.558827 -0.025359
C13   C     C_R   0.248100 0.380152 0.425481 0.041040
C14   C     C_R   0.750472 0.620456 0.559550 0.043490
C15   C     C_R   0.291721 0.497929 0.503924 -0.144090
C16   C     C_R   0.708079 0.500674 0.497186 -0.133658
N1    N     N_R   0.039896 0.446570 0.590095 -0.209804
N2    N     N_R   0.960810 0.550709 0.420307 -0.208549
N3    N     N_R   0.970595 0.444331 0.585189 -0.202666
N4    N     N_R   0.030127 0.553354 0.425594 -0.190179
C17   C     C_R   0.929908 0.495126 0.499031 0.451566
C18   C     C_R   0.070640 0.501253 0.510464 0.443646
H1    H     H_    0.469251 0.862296 0.382526 0.219554
H2    H     H_    0.527748 0.139509 0.620664 0.217776
C19   C     C_2   0.490064 0.110791 0.399858 -0.183816
C20   C     C_2   0.512328 0.888901 0.600263 -0.214268
C21   C     C_2   0.506307 0.068769 0.510489 -0.165193
C22   C     C_2   0.493673 0.931957 0.491227 -0.191672
H3    H     H_    0.452398 0.420579 0.841864 0.188690
H4    H     H_    0.542403 0.589159 0.159962 0.180539
N5    N     N_2   0.469620 0.445420 0.137370 -0.247882
N6    N     N_2   0.530380 0.554580 0.862630 -0.251250
C23   C     C_2   0.503527 0.513519 0.082410 -0.042748
C24   C     C_2   0.493687 0.491161 0.918524 -0.050922
C25   C     C_2   0.310626 0.736040 0.672488 0.844437
O9    O     O_2   0.323572 0.779818 0.808156 -0.556931
O10   O     O_R   0.340835 0.798418 0.594330 -0.771370
H5    H     H_    0.370651 0.881488 0.662797 0.348480
C26   C     C_2   0.690810 0.256375 0.362302 0.821157
O11   O     O_2   0.658056 0.221556 0.439429 -0.604520
O12   O     O_R   0.684393 0.180884 0.210047 -0.738170
H6    H     H_    0.650897 0.099745 0.176652 0.360397
C27   C     C_3   0.159386 0.744341 0.681931 -0.409066
C28   C     C_3   0.149376 0.833545 0.596266 -0.715126
H7    H     H_    0.200557 0.863107 0.575290 0.267872
H8    H     H_    0.114132 0.782467 0.488359 0.273320
H9    H     H_    0.125242 0.923594 0.662121 0.248478
H10   H     H_    0.107950 0.725333 0.710317 0.222811
H11   H     H_    0.193230 0.797609 0.790952 0.238443
C29   C     C_3   0.843060 0.246209 0.358249 -0.379685
C30   C     C_3   0.858240 0.226541 0.204226 -0.706630
H12   H     H_    0.809269 0.230032 0.131458 0.286818
H13   H     H_    0.897660 0.303379 0.211329 0.260700
H14   H     H_    0.879458 0.129251 0.153158 0.241344
H15   H     H_    0.892074 0.240519 0.428993 0.224543
H16   H     H_    0.808638 0.161069 0.347617 0.225543
C31   C     C_2   0.127609 0.260266 0.353227 0.847979
O13   O     O_2   0.136388 0.165243 0.386289 -0.585249
O14   O     O_R   0.071403 0.256618 0.244459 -0.751682
H17   H     H_    0.041969 0.169764 0.200600 0.339316
C32   C     C_2   0.870298 0.741305 0.624924 0.848022
O15   O     O_2   0.859252 0.829422 0.580650 -0.578123
O16   O     O_R   0.927647 0.755288 0.735706 -0.748388
H18   H     H_    0.955999 0.842605 0.770343 0.339814
C33   C     C_3   0.278651 0.253672 0.332968 -0.382491
C34   C     C_3   0.260176 0.223804 0.167183 -0.671362
H19   H     H_    0.277790 0.308780 0.144299 0.261723
H20   H     H_    0.286707 0.136402 0.103234 0.287867
H21   H     H_    0.202729 0.202621 0.128368 0.240682
H22   H     H_    0.336593 0.258039 0.361947 0.201496
H23   H     H_    0.259786 0.169745 0.356004 0.239030
C35   C     C_3   0.717162 0.750374 0.626766 -0.384030
C36   C     C_3   0.686518 0.798896 0.506883 -0.696187
H24   H     H_    0.727700 0.810085 0.444342 0.286199
H25   H     H_    0.643333 0.729028 0.427715 0.236744
H26   H     H_    0.665164 0.895798 0.559308 0.252755
H27   H     H_    0.675245 0.740456 0.688112 0.237052
H28   H     H_    0.755359 0.827568 0.711917 0.231540
C37   C     C_2   0.539962 0.978460 0.756239 0.884093
O17   O     O_2   0.593010 0.954021 0.822434 -0.559101
O18   O     O_R   0.504341 0.088321 0.828548 -0.747244
H29   H     H_    0.528466 0.141042 0.934154 0.357843
C38   C     C_2   0.468244 0.019521 0.242008 0.885270
O19   O     O_2   0.418529 0.042541 0.165717 -0.533701
O20   O     O_R   0.505747 0.909566 0.179663 -0.756035
H30   H     H_    0.485883 0.855709 0.071525 0.360018
C39   C     C_2   0.593403 0.631876 0.947593 1.020415
O21   O     O_2   0.636224 0.590026 0.019991 -0.621878
O22   O     O_R   0.608538 0.751922 0.938796 -0.711491
H31   H     H_    0.655304 0.796876 0.000715 0.333784
C40   C     C_2   0.411404 0.356464 0.047599 1.006374
O23   O     O_2   0.407146 0.245931 0.046350 -0.544268
O24   O     O_R   0.357165 0.397680 0.968477 -0.787565
H32   H     H_    0.318609 0.325523 0.910250 0.325816

loop_
_geom_bond_atom_site_label_1
_geom_bond_atom_site_label_2
_geom_bond_distance
_ccdc_geom_bond_type
C20   C37   1.487447 S    
C38   O19   1.222107 D    
N1    N3    1.330077 A    
H2    C21   1.083081 S    
O16   H18   1.013877 S    
O20   H30   1.014030 S    
C34   H21   1.108732 S    
O7    Cu2   1.934375 S    
C39   O21   1.224303 D    
C27   H11   1.108869 S    
C27   C28   1.526969 S    
O5    C3    1.294453 A    
C40   O23   1.220345 D    
O1    C1    1.298353 A    
C34   H20   1.109999 S    
C9    C11   1.412665 A    
C14   C16   1.415212 A    
O14   H17   1.013913 S    
C5    C15   1.413398 A    
C3    C15   1.470279 S    
C35   H27   1.108585 S    
O4    Cu1   1.946355 S    
C30   H13   1.109250 S    
C14   C35   1.526758 S    
H4    C23   1.082697 S    
O10   H5    1.013660 S    
N5    C40   1.423078 S    
C26   O12   1.397737 S    
C37   O18   1.398036 S    
C33   H22   1.107679 S    
C25   O10   1.396696 S    
C29   H16   1.108681 S    
C40   O24   1.399573 S    
Cu1   Cu2   2.683859 S    
C11   C31   1.487973 S    
N5    C23   1.304764 D    
O2    C2    1.298024 A    
N6    C24   1.305404 D    
C9    C18   1.467009 S    
Cu1   N6    2.016177 S    
C39   O22   1.395126 S    
C19   C38   1.488328 S    
C6    C16   1.412427 A    
C28   H8    1.110194 S    
O12   H6    1.014074 S    
C6    C26   1.485863 S    
O4    C2    1.293130 A    
N6    C39   1.426997 S    
O18   H29   1.014059 S    
C32   O16   1.398334 S    
C33   H23   1.108053 S    
C25   O9    1.222675 D    
C31   O13   1.222520 D    
C4    C16   1.466855 S    
C29   C30   1.527297 S    
C31   O14   1.398262 S    
C30   H14   1.110423 S    
C33   C34   1.527231 S    
C21   C22   1.464241 S    
C36   H24   1.109840 S    
O6    C4    1.294404 A    
C34   H19   1.109672 S    
O7    C3    1.296035 A    
O3    Cu2   1.946357 S    
O8    C4    1.294041 A    
Cu2   N5    2.016176 S    
C8    C29   1.527702 S    
C36   H25   1.109423 S    
C10   C12   1.415384 A    
C29   H15   1.107743 S    
C35   C36   1.528165 S    
C11   C13   1.415816 A    
C23   C24   1.524605 S    
C12   C14   1.414980 A    
O1    Cu1   1.935915 S    
C5    C25   1.483713 S    
C7    C27   1.527031 S    
C12   C32   1.488842 S    
C5    C7    1.412812 A    
C28   H7    1.109432 S    
O6    Cu2   1.940548 S    
C19   C21   1.344199 D    
N1    C18   1.355424 A    
N2    C17   1.356322 A    
C13   C33   1.527470 S    
O3    C1    1.293689 A    
O8    Cu1   1.934377 S    
C27   H10   1.109553 S    
H3    C24   1.081787 S    
H1    C22   1.084043 S    
O22   H31   1.013919 S    
C20   C22   1.343760 D    
C32   O15   1.222640 D    
N3    C17   1.356396 A    
N4    C18   1.355464 A    
C38   O20   1.398738 S    
C35   H28   1.108901 S    
C1    C19   1.467370 S    
N2    N4    1.329917 A    
C7    C9    1.414414 A    
C2    C20   1.465601 S    
C8    C10   1.417965 A    
C13   C15   1.418335 A    
C30   H12   1.110392 S    
O2    Cu2   1.935913 S    
O5    Cu1   1.940548 S    
C36   H26   1.110109 S    
C6    C8    1.413664 A    
C26   O11   1.222440 D    
O24   H32   1.013905 S    
C37   O17   1.222030 D    
C10   C17   1.470626 S    
C28   H9    1.110470 S    
