data_mof_unit_27073.cif
_audit_creation_date              2012-12-11T15:39:00-0500
_audit_creation_method            fapswitch 2.2
_symmetry_space_group_name_H-M    P1
_symmetry_Int_Tables_number       1
_space_group_crystal_system       triclinic
_cell_length_a                    14.275799
_cell_length_b                    14.735556
_cell_length_c                    33.189724
_cell_angle_alpha                 97.08484
_cell_angle_beta                  90.692058
_cell_angle_gamma                 118.573701
_cell_volume                      6064.39755312

loop_
_atom_site_label
_atom_site_type_symbol
_atom_type_description
_atom_site_fract_x
_atom_site_fract_y
_atom_site_fract_z
_atom_type_partial_charge
C1    C     C_R   0.617086 0.910900 0.436894 0.554036
C2    C     C_R   0.760473 0.425095 0.187423 0.020272
C3    C     C_R   0.688648 0.898107 0.661400 0.274740
C4    C     C_R   0.592000 0.811765 0.669179 0.047309
C5    C     C_R   0.623588 0.862410 0.589444 -0.025265
C6    C     C_R   0.005695 0.754794 0.068543 0.577639
C7    C     C_R   0.743875 0.485582 0.066050 0.522803
C8    C     C_R   0.742578 0.789009 0.066317 0.537326
C9    C     C_R   0.025586 0.735222 0.948182 0.565522
C10   C     C_R   0.711564 0.436324 0.949555 0.549605
C11   C     C_R   0.711715 0.739711 0.949397 0.606792
C12   C     C_R   0.817768 0.399423 0.158459 0.002837
C13   C     C_R   0.805706 0.407931 0.117496 0.263509
C14   C     C_R   0.735216 0.310073 0.239359 0.202776
C15   C     C_R   0.726591 0.292587 0.280292 0.225330
C16   C     C_R   0.747213 0.375536 0.311325 -0.050056
C17   C     C_R   0.786515 0.477602 0.302506 0.288479
C18   C     C_R   0.802561 0.497124 0.262182 0.270724
C19   C     C_R   0.770952 0.411901 0.230303 -0.015085
C20   C     C_R   0.602575 0.302532 0.356597 -0.085905
C21   C     C_R   0.594218 0.206550 0.456767 0.543865
C22   C     C_R   0.563875 0.264889 0.392820 0.239093
C23   C     C_R   0.748291 0.330692 0.420556 0.171217
C24   C     C_R   0.784797 0.368459 0.384049 -0.046513
C25   C     C_R   0.712013 0.351280 0.351772 -0.006446
C26   C     C_R   0.636201 0.271956 0.424119 0.009707
C27   C     C_R   0.221630 0.870665 0.398233 -0.029502
C28   C     C_R   0.225774 0.956870 0.382614 -0.161860
C29   C     C_R   0.177039 0.944877 0.344459 -0.162989
C30   C     C_R   0.123069 0.846506 0.321097 0.038729
C31   C     C_R   0.111295 0.757499 0.336710 0.319000
C32   C     C_R   0.291439 0.891471 0.435436 0.534572
C33   C     C_R   0.157793 0.768787 0.376224 0.224353
C34   C     C_R   0.047823 0.720361 0.177533 0.178683
C35   C     C_R   0.040635 0.707210 0.134991 0.258462
C36   C     C_R   0.044689 0.875443 0.136058 0.156208
C37   C     C_R   0.051115 0.888231 0.179175 0.257441
C38   C     C_R   0.053547 0.811301 0.199554 -0.019435
C39   C     C_1   0.070892 0.829188 0.243207 0.069605
C40   C     C_1   0.091128 0.838814 0.279191 0.073403
C41   C     C_R   0.034797 0.782357 0.113497 -0.069136
C42   C     C_R   0.637805 0.880413 0.395117 -0.065590
C43   C     C_R   0.613068 0.904504 0.552054 0.566581
C44   C     C_R   0.550512 0.807164 0.368065 -0.184629
C45   C     C_R   0.560639 0.795024 0.326175 0.241297
C46   C     C_R   0.661389 0.849686 0.311326 -0.016598
C47   C     C_R   0.752729 0.915045 0.338538 0.196633
C48   C     C_R   0.739677 0.935033 0.380085 0.304195
C49   C     C_R   0.773518 0.918506 0.174079 -0.157160
C50   C     C_R   0.789334 0.906782 0.132764 -0.121607
C51   C     C_R   0.616662 0.749710 0.120905 -0.108535
C52   C     C_R   0.599430 0.762481 0.162089 0.294930
C53   C     C_R   0.680929 0.844108 0.188987 0.039188
C54   C     C_R   0.589790 0.199236 0.571239 0.542267
C55   C     C_1   0.673641 0.846498 0.232045 0.039125
C56   C     C_1   0.667959 0.846893 0.268102 0.030865
C57   C     C_R   0.713404 0.819295 0.106227 -0.027990
C58   C     C_R   0.621370 0.245728 0.615136 -0.041155
C59   C     C_R   0.548991 0.264093 0.639441 0.201277
C60   C     C_R   0.559267 0.270509 0.681883 0.309837
C61   C     C_R   0.645712 0.267588 0.700945 -0.058547
C62   C     C_R   0.724246 0.262362 0.677733 -0.154591
C63   C     C_R   0.713402 0.252042 0.635126 0.239470
C64   C     C_R   0.741533 0.301541 0.849416 0.236290
C65   C     C_R   0.288063 0.886121 0.548415 0.536208
C66   C     C_R   0.753190 0.335294 0.891677 0.266752
C67   C     C_R   0.595283 0.356182 0.884963 -0.190216
C68   C     C_R   0.582950 0.323223 0.842547 0.219381
C69   C     C_R   0.658462 0.298411 0.825001 0.000725
C70   C     C_1   0.656919 0.281540 0.781212 0.036825
C71   C     C_1   0.654142 0.273346 0.744590 -0.008888
C72   C     C_R   0.684240 0.370385 0.909047 -0.066694
C73   C     C_R   0.086252 0.769523 0.911899 -0.011766
C74   C     C_R   0.087793 0.854433 0.895248 0.203978
C75   C     C_R   0.114442 0.867326 0.855314 -0.142318
C76   C     C_R   0.739189 0.448851 0.105681 -0.038284
C77   C     C_R   0.144875 0.801468 0.832607 0.028334
C78   C     C_R   0.161468 0.728761 0.850985 0.349163
C79   C     C_R   0.134235 0.713942 0.891059 0.197741
C80   C     C_R   0.249391 0.859345 0.772940 0.247741
C81   C     C_R   0.251885 0.865848 0.731343 -0.184916
C82   C     C_R   0.156719 0.827839 0.706740 -0.029110
C83   C     C_R   0.057038 0.779776 0.722976 0.284666
C84   C     C_R   0.053546 0.763008 0.764027 0.227611
C85   C     C_R   0.150150 0.805847 0.788923 0.016839
C86   C     C_R   0.170440 0.919064 0.646823 0.334751
C87   C     C_R   0.679164 0.470780 0.134692 -0.144480
C88   C     C_R   0.194495 0.929557 0.606138 0.242493
C89   C     C_R   0.208352 0.769912 0.600096 -0.173794
C90   C     C_R   0.178209 0.756673 0.639304 -0.170065
C91   C     C_R   0.163991 0.832966 0.663251 0.045502
C92   C     C_R   0.224123 0.859680 0.583984 -0.037588
C93   C     C_R   0.662483 0.750608 0.911608 0.014298
C94   C     C_R   0.552821 0.685743 0.898783 0.148179
C95   C     C_R   0.512606 0.690971 0.860085 0.239423
C96   C     C_R   0.578731 0.769815 0.837565 0.048274
C97   C     C_R   0.683680 0.842766 0.852972 0.188258
C98   C     C_R   0.687510 0.456937 0.175131 0.255007
C99   C     C_R   0.728626 0.826787 0.887529 0.186826
C100  C     C_R   0.550470 0.853086 0.781295 -0.089540
C101  C     C_R   0.566009 0.869957 0.740517 0.266902
C102  C     C_R   0.565269 0.791158 0.711480 0.044055
C103  C     C_R   0.542296 0.694388 0.723411 0.226816
C104  C     C_R   0.545962 0.686240 0.765201 0.300148
C105  C     C_R   0.549146 0.765770 0.794260 0.056581
C106  C     C_R   0.519865 0.745149 0.636552 -0.120849
C107  C     C_R   0.538414 0.765313 0.596873 0.202611
C108  C     C_R   0.704010 0.924594 0.621312 0.219230
Cr1   Cr    Cr6+3 0.424820 0.846020 0.489780 1.059108
Cr2   Cr    Cr6+3 0.657880 0.078580 0.505700 1.079942
Cr3   Cr    Cr6+3 0.417280 0.075360 0.504550 1.053041
Cr4   Cr    Cr6+3 0.903360 0.812540 0.006510 1.105883
Cr5   Cr    Cr6+3 0.914630 0.587050 0.006280 1.079073
Cr6   Cr    Cr6+3 0.673560 0.582680 0.008540 1.047593
H1    H     H_    0.628722 0.503148 0.126553 0.165714
H2    H     H_    0.871349 0.371527 0.167707 0.179970
H3    H     H_    0.271272 0.035062 0.399115 0.194700
H4    H     H_    0.186162 0.013405 0.332312 0.152240
H5    H     H_    0.864263 0.961780 0.122291 0.195191
H6    H     H_    0.835996 0.982435 0.194718 0.139406
H7    H     H_    0.472013 0.764263 0.378917 0.169562
H8    H     H_    0.556784 0.681703 0.101033 0.140811
H9    H     H_    0.869918 0.408395 0.380418 0.165147
H10   H     H_    0.792761 0.263103 0.692525 0.137235
H11   H     H_    0.539001 0.376859 0.899107 0.160111
H12   H     H_    0.173179 0.690294 0.652017 0.124996
H13   H     H_    0.328172 0.901045 0.718115 0.156098
H14   H     H_    0.107516 0.926653 0.841186 0.112884
H15   H     H_    0.226969 0.713127 0.583618 0.175292
H16   H     H_    0.549666 0.912599 0.803641 0.147751
H17   H     H_    0.446205 0.678056 0.641552 0.157678
H18   H     H_    0.546510 0.289273 0.331339 0.132853
O1    O     O_R   0.318160 0.824460 0.443680 -0.499267
O2    O     O_R   0.645130 0.163230 0.552140 -0.448721
O3    O     O_R   0.498360 0.178430 0.555780 -0.495143
O4    O     O_R   0.328690 0.978040 0.538950 -0.479295
O5    O     O_3   0.499990 0.999990 0.500010 -0.264344
O6    O     O_R   0.828710 0.851830 0.052170 -0.495182
O7    O     O_R   0.005980 0.823990 0.047210 -0.492737
O8    O     O_R   0.031900 0.688850 0.050170 -0.481675
O9    O     O_R   0.830940 0.518420 0.048680 -0.474814
O10   O     O_R   0.668160 0.499860 0.053480 -0.521775
O11   O     O_R   0.689170 0.693840 0.050110 -0.508989
O12   O     O_R   0.525040 0.857250 0.449830 -0.513327
O13   O     O_R   0.803860 0.812940 0.962540 -0.437313
O14   O     O_R   0.982950 0.787950 0.964120 -0.416144
O15   O     O_R   0.007050 0.649970 0.960540 -0.503246
O16   O     O_R   0.807910 0.482370 0.965590 -0.451466
O17   O     O_R   0.643310 0.460980 0.963840 -0.514005
O18   O     O_R   0.666140 0.657800 0.967020 -0.450454
O19   O     O_3   0.830520 0.660760 0.007110 -0.297392
O20   O     O_R   0.684760 0.998800 0.456360 -0.473967
O21   O     O_R   0.647540 0.166310 0.470260 -0.506551
O22   O     O_R   0.500960 0.181750 0.467450 -0.475276
O23   O     O_R   0.331100 0.981120 0.457080 -0.497150
O24   O     O_R   0.315560 0.821140 0.532010 -0.498615
O25   O     O_R   0.522630 0.854180 0.531710 -0.452371
O26   O     O_R   0.682160 0.995480 0.544690 -0.450283
O27   O     O_3   0.454555 0.207926 0.395100 -0.557476
C109  C     C_3   0.412738 0.277651 0.400731 -0.117346
H19   H     H_    0.419597 0.316593 0.373420 0.108635
H20   H     H_    0.452300 0.336983 0.428351 0.118651
H21   H     H_    0.326393 0.232569 0.405334 0.139758
O28   O     O_3   0.824294 0.350740 0.451388 -0.704314
H22   H     H_    0.791757 0.346905 0.477735 0.325842
O29   O     O_3   0.030593 0.614926 0.114429 -0.476539
C110  C     C_3   0.133512 0.624232 0.112138 -0.037339
H23   H     H_    0.168994 0.627180 0.142577 0.143111
H24   H     H_    0.188625 0.693928 0.098200 0.093450
H25   H     H_    0.126020 0.554186 0.092445 0.156115
O30   O     O_3   0.048032 0.640891 0.195908 -0.699692
H26   H     H_    0.053533 0.657068 0.225880 0.354658
O31   O     O_3   0.055085 0.661381 0.312434 -0.666311
H27   H     H_    0.054158 0.605917 0.326739 0.373119
O32   O     O_3   0.140138 0.680125 0.392064 -0.701925
H28   H     H_    0.138183 0.693452 0.421944 0.344411
O33   O     O_3   0.057989 0.976253 0.202418 -0.692115
H29   H     H_    0.050848 0.021968 0.184539 0.367026
O34   O     O_3   0.049700 0.955279 0.116974 -0.709287
H30   H     H_    0.105002 0.970205 0.097258 0.345320
O35   O     O_3   0.860670 0.376434 0.090383 -0.663801
H31   H     H_    0.823411 0.357776 0.062844 0.324483
O36   O     O_3   0.855138 0.963559 0.325859 -0.689128
H32   H     H_    0.855387 0.933621 0.297513 0.335109
O37   O     O_3   0.827572 0.005390 0.406432 -0.514349
C111  C     C_3   0.854571 0.108216 0.400477 -0.044831
H33   H     H_    0.783471 0.120663 0.399544 0.124008
H34   H     H_    0.896620 0.128554 0.372347 0.152300
H35   H     H_    0.910313 0.163363 0.426481 0.154865
O38   O     O_3   0.508630 0.687499 0.176598 -0.536623
C112  C     C_3   0.428910 0.717785 0.175196 -0.109077
H36   H     H_    0.454256 0.793910 0.194850 0.117446
H37   H     H_    0.355967 0.658247 0.187070 0.154821
H38   H     H_    0.407091 0.721622 0.143364 0.093513
O39   O     O_3   0.472275 0.727356 0.299594 -0.535299
C113  C     C_3   0.408266 0.774928 0.294617 -0.096162
H39   H     H_    0.454486 0.851703 0.283651 0.116074
H40   H     H_    0.372183 0.784299 0.323296 0.130576
H41   H     H_    0.341611 0.723626 0.271185 0.151939
O40   O     O_3   0.837737 0.341577 0.914865 -0.523973
C114  C     C_3   0.798394 0.254457 0.935817 -0.085350
H42   H     H_    0.758720 0.179793 0.914367 0.108143
H43   H     H_    0.742378 0.256904 0.958403 0.101652
H44   H     H_    0.866838 0.256338 0.952804 0.150392
O41   O     O_3   0.808739 0.267044 0.832237 -0.588788
C115  C     C_3   0.901754 0.353809 0.822729 -0.110920
H45   H     H_    0.946810 0.409612 0.850609 0.191096
H46   H     H_    0.882470 0.394186 0.800414 0.080881
H47   H     H_    0.954867 0.325807 0.808425 0.129867
O42   O     O_3   0.788848 0.238589 0.613397 -0.495897
C116  C     C_3   0.866969 0.337129 0.605074 -0.094941
H48   H     H_    0.908695 0.391440 0.633694 0.101272
H49   H     H_    0.831563 0.371955 0.585999 0.101807
H50   H     H_    0.927897 0.326910 0.587627 0.148854
O43   O     O_3   0.465446 0.273296 0.622907 -0.661278
H51   H     H_    0.491873 0.313753 0.599947 0.326060
O44   O     O_3   0.498206 0.311694 0.817002 -0.565052
C117  C     C_3   0.459497 0.381298 0.830626 -0.108241
H52   H     H_    0.525523 0.462162 0.840740 0.147482
H53   H     H_    0.404751 0.351707 0.855032 0.123671
H54   H     H_    0.411621 0.385020 0.804991 0.157038
O45   O     O_3   0.479560 0.272820 0.704406 -0.559278
C118  C     C_3   0.511214 0.377395 0.719849 -0.063402
H55   H     H_    0.532138 0.427148 0.695247 0.160679
H56   H     H_    0.579613 0.409587 0.743243 0.135964
H57   H     H_    0.443406 0.379585 0.734804 0.157082
O46   O     O_3   0.060107 0.922136 0.917821 -0.636089
H58   H     H_    0.069431 0.978502 0.902070 0.323186
O47   O     O_3   0.154500 0.644106 0.908397 -0.645972
H59   H     H_    0.172082 0.669265 0.937994 0.335465
O48   O     O_3   0.685029 0.192145 0.289637 -0.573365
C119  C     C_3   0.770793 0.173366 0.298007 -0.123051
H60   H     H_    0.817506 0.178254 0.270976 0.132612
H61   H     H_    0.737663 0.093008 0.305602 0.147602
H62   H     H_    0.824339 0.228119 0.324709 0.113898
O49   O     O_3   0.343106 0.898811 0.797749 -0.540448
C120  C     C_3   0.396112 0.008944 0.802098 -0.099982
H63   H     H_    0.342776 0.040936 0.813023 0.131720
H64   H     H_    0.428702 0.037308 0.773179 0.148793
H65   H     H_    0.464872 0.040011 0.825296 0.133400
O50   O     O_3   0.964436 0.742839 0.697732 -0.575911
C121  C     C_3   0.916830 0.806552 0.707793 -0.078535
H66   H     H_    0.974649 0.890904 0.708408 0.168559
H67   H     H_    0.880544 0.793373 0.737382 0.159825
H68   H     H_    0.851348 0.785274 0.684111 0.151401
O51   O     O_3   0.957131 0.710850 0.781245 -0.580336
C122  C     C_3   0.901520 0.604912 0.763198 -0.118788
H69   H     H_    0.849409 0.558239 0.785628 0.115995
H70   H     H_    0.955140 0.571704 0.754318 0.087733
H71   H     H_    0.848770 0.594894 0.736306 0.160065
O52   O     O_3   0.148350 0.990088 0.670078 -0.576530
C123  C     C_3   0.245787 0.079635 0.685009 -0.054560
H72   H     H_    0.289200 0.121551 0.659866 0.234399
H73   H     H_    0.297943 0.060014 0.703157 0.123233
H74   H     H_    0.228014 0.133887 0.705506 0.147574
O53   O     O_3   0.191001 0.009610 0.589777 -0.666532
H75   H     H_    0.173833 0.988106 0.559981 0.324817
O54   O     O_3   0.212653 0.678163 0.831617 -0.468774
C124  C     C_3   0.139050 0.591342 0.803882 -0.063427
H76   H     H_    0.141489 0.613880 0.773069 0.102100
H77   H     H_    0.055577 0.556001 0.813061 0.075981
H78   H     H_    0.163710 0.530167 0.801929 0.152872
O55   O     O_3   0.487825 0.617929 0.924132 -0.698599
H79   H     H_    0.413517 0.604115 0.918528 0.344456
O56   O     O_3   0.703678 0.228888 0.207429 -0.713254
H80   H     H_    0.676637 0.161585 0.218013 0.362745
O57   O     O_3   0.838097 0.882275 0.897310 -0.647783
H81   H     H_    0.875355 0.912909 0.873483 0.357616
O58   O     O_3   0.765370 0.955049 0.693493 -0.714871
H82   H     H_    0.827773 0.013814 0.684008 0.354548
O59   O     O_3   0.579001 0.961440 0.728010 -0.555178
C125  C     C_3   0.662318 0.049367 0.752490 -0.059840
H83   H     H_    0.728474 0.035804 0.762920 0.172930
H84   H     H_    0.629988 0.075022 0.779111 0.115297
H85   H     H_    0.698554 0.113511 0.733985 0.160164
O60   O     O_3   0.411131 0.619068 0.842921 -0.645716
H86   H     H_    0.387848 0.552908 0.854073 0.324693
O61   O     O_3   0.525635 0.610979 0.694550 -0.586578
C126  C     C_3   0.416015 0.535509 0.692209 -0.130636
H87   H     H_    0.362605 0.568931 0.686472 0.094493
H88   H     H_    0.394564 0.499563 0.720508 0.153144
H89   H     H_    0.399445 0.472708 0.666518 0.153096
O62   O     O_3   0.550970 0.602471 0.777771 -0.576640
C127  C     C_3   0.657976 0.622167 0.777575 -0.129989
H90   H     H_    0.715377 0.700025 0.794711 0.151636
H91   H     H_    0.680679 0.615445 0.745863 0.144599
H92   H     H_    0.665501 0.562966 0.792896 0.125082
O63   O     O_3   0.463595 0.694352 0.566238 -0.539399
C128  C     C_3   0.507337 0.635818 0.545502 -0.107273
H93   H     H_    0.526533 0.592290 0.566398 0.118508
H94   H     H_    0.579698 0.686287 0.530441 0.104369
H95   H     H_    0.446966 0.577485 0.521316 0.138093
O64   O     O_3   0.747341 0.920251 0.830461 -0.599071
C129  C     C_3   0.765275 0.017654 0.851055 -0.126550
H96   H     H_    0.810563 0.037963 0.881224 0.149660
H97   H     H_    0.688850 0.019457 0.854892 0.107309
H98   H     H_    0.814392 0.079225 0.832605 0.177641
O65   O     O_3   0.630857 0.483210 0.203365 -0.541589
C130  C     C_3   0.527647 0.396926 0.202362 -0.092417
H99   H     H_    0.531197 0.327018 0.209939 0.129059
H100  H     H_    0.482434 0.378551 0.172254 0.128781
H101  H     H_    0.482927 0.416905 0.225716 0.158536
O66   O     O_3   0.792435 0.015814 0.614467 -0.526437
C131  C     C_3   0.869604 0.990286 0.598751 -0.091372
H102  H     H_    0.839891 0.939108 0.568743 0.114448
H103  H     H_    0.894624 0.952547 0.620506 0.126525
H104  H     H_    0.941639 0.063446 0.593977 0.171522
O67   O     O_3   0.811549 0.559076 0.333731 -0.508912
C132  C     C_3   0.725980 0.581654 0.335453 -0.059043
H105  H     H_    0.649949 0.512427 0.340713 0.081570
H106  H     H_    0.715157 0.611023 0.307415 0.188265
H107  H     H_    0.744663 0.644249 0.361478 0.146256
O68   O     O_3   0.844716 0.599555 0.255284 -0.631699
H108  H     H_    0.860109 0.604351 0.226450 0.343451

loop_
_geom_bond_atom_site_label_1
_geom_bond_atom_site_label_2
_ccdc_geom_bond_type
C21   C26   S    
Cr5   O19   S    
C18   O68   S    
C118  H55   S    
C55   C56   T    
C43   O26   A    
C118  H57   S    
C127  H90   S    
C65   O24   A    
Cr2   O20   S    
C67   H11   S    
C32   O1    A    
C86   C88   A    
C49   H6    S    
C22   O27   S    
O59   C125  S    
C54   O2    A    
C44   H7    S    
C16   C25   S    
C89   H15   S    
C8    O6    A    
C34   C35   A    
C131  H104  S    
C66   C72   A    
C125  H83   S    
C4    C102  S    
C121  H67   S    
C51   C57   A    
C100  H16   S    
C87   H1    S    
C61   C71   S    
C5    C43   S    
C59   C60   A    
C36   O34   S    
C42   C44   A    
C20   H18   S    
C104  C105  A    
C121  H68   S    
Cr1   O1    S    
C51   C52   A    
C109  H21   S    
Cr4   O6    S    
O52   C123  S    
C47   O36   S    
C115  H45   S    
C77   C78   A    
C82   C91   S    
C64   C66   A    
O36   H32   S    
C37   C38   A    
C8    C57   S    
C11   O18   A    
O46   H58   S    
C14   C15   A    
C119  H61   S    
C90   H12   S    
Cr4   O19   S    
O65   C130  S    
Cr6   O18   S    
C63   O42   S    
C90   C91   A    
Cr3   O5    S    
C5    C107  A    
C122  H71   S    
C86   O52   S    
O41   C115  S    
C28   C29   A    
C2    C19   S    
C50   C57   A    
C14   C19   A    
C127  H92   S    
C113  H39   S    
C124  H77   S    
C64   O41   S    
Cr6   O11   S    
C112  H38   S    
O32   H28   S    
C30   C31   A    
C125  H85   S    
C49   C53   A    
Cr1   O12   S    
C59   O43   S    
C126  H88   S    
C69   C70   S    
O39   C113  S    
C106  C107  A    
C21   O21   A    
C111  H33   S    
Cr3   O23   S    
C66   O40   S    
C34   O30   S    
C10   O16   A    
C123  H72   S    
O38   C112  S    
C80   O49   S    
Cr1   O25   S    
C128  H95   S    
C62   H10   S    
O68   H108  S    
C110  H24   S    
C27   C33   A    
C29   C30   A    
Cr5   O16   S    
C36   C37   A    
C75   H14   S    
C104  O62   S    
C38   C39   S    
Cr3   O4    S    
C9    O14   A    
Cr4   O13   S    
C1    O20   A    
C84   O51   S    
O50   C121  S    
C6    O7    A    
Cr1   O24   S    
C79   O47   S    
C23   C24   A    
C131  H103  S    
C77   C85   S    
C120  H63   S    
C96   C97   A    
C114  H43   S    
C113  H41   S    
O47   H59   S    
C128  H93   S    
C132  H106  S    
C39   C40   T    
C68   C69   A    
O44   C117  S    
C4    C106  A    
C24   H9    S    
C109  H20   S    
O64   C129  S    
C117  H53   S    
C83   C84   A    
C17   C18   A    
C73   C79   A    
C42   C48   A    
C64   C69   A    
C75   C77   A    
C76   C87   A    
C123  H74   S    
C82   C83   A    
C13   O35   S    
Cr2   O2    S    
C3    C4    A    
C7    O9    A    
C52   C53   A    
C117  H54   S    
C23   O28   S    
O51   C122  S    
C15   O48   S    
C43   O25   A    
O57   H81   S    
C118  H56   S    
C7    C76   S    
C3    C108  A    
C37   O33   S    
C29   H4    S    
C3    O58   S    
C127  H91   S    
C68   O44   S    
C48   O37   S    
C1    O12   A    
C11   C93   S    
C54   O3    A    
C17   O67   S    
C100  C101  A    
Cr5   O9    S    
C8    O11   A    
C61   C62   A    
C35   C41   A    
C130  H101  S    
C116  H50   S    
C12   C13   A    
C125  H84   S    
C49   C50   A    
C120  H65   S    
C46   C56   S    
O62   C127  S    
O61   C126  S    
C103  O61   S    
C12   H2    S    
C10   C72   S    
C96   C105  S    
C101  C102  A    
C73   C74   A    
O55   H79   S    
C45   C46   A    
C101  O59   S    
C97   O64   S    
O28   H22   S    
C86   C91   A    
C54   C58   S    
C129  H96   S    
C115  H46   S    
C20   C25   A    
C35   O29   S    
C18   C19   A    
C23   C26   A    
C16   C17   A    
C126  H87   S    
C70   C71   T    
C93   C99   A    
Cr2   O26   S    
C14   O56   S    
C87   C98   A    
C94   O55   S    
O58   H82   S    
C81   H13   S    
C36   C41   A    
Cr6   O19   S    
C122  H70   S    
C106  H17   S    
C67   C68   A    
C84   C85   A    
C129  H98   S    
C113  H40   S    
C110  H23   S    
C58   C59   A    
C132  H105  S    
C112  H36   S    
C60   C61   A    
C130  H99   S    
C112  H37   S    
C80   C85   A    
O27   C109  S    
C121  H66   S    
C78   O54   S    
C52   O38   S    
C20   C22   A    
C111  H34   S    
C44   C45   A    
C123  H73   S    
C46   C47   A    
C27   C32   S    
Cr2   O5    S    
C60   O45   S    
C83   O50   S    
Cr5   O15   S    
C111  H35   S    
C10   O17   A    
C109  H19   S    
Cr3   O3    S    
O37   C111  S    
C119  H60   S    
Cr4   O14   S    
O54   C124  S    
C6    O8    A    
C94   C95   A    
C65   O4    A    
C95   O60   S    
O34   H30   S    
C108  O66   S    
C1    C42   S    
O33   H29   S    
C22   C26   A    
C103  C104  A    
Cr2   O21   S    
C51   H8    S    
Cr6   O17   S    
C89   C90   A    
C5    C108  A    
C45   O39   S    
C65   C92   S    
O30   H26   S    
C93   C94   A    
C114  H42   S    
C95   C96   A    
O43   H51   S    
C124  H78   S    
C2    C12   A    
C81   C82   A    
C88   O53   S    
O31   H27   S    
O49   C120  S    
C99   O57   S    
C100  C105  A    
C62   C63   A    
Cr6   O10   S    
C67   C72   A    
C28   H3    S    
C15   C16   A    
O35   H31   S    
Cr1   O5    S    
C126  H89   S    
O66   C131  S    
O40   C114  S    
C6    C41   S    
C21   O22   A    
C31   C33   A    
O56   H80   S    
Cr4   O7    S    
C102  C103  A    
C9    C73   S    
C97   C99   A    
C110  H25   S    
C53   C55   S    
C74   C75   A    
C50   H5    S    
C88   C92   A    
C24   C25   A    
C78   C79   A    
C11   O13   A    
C9    O15   A    
C119  H62   S    
C116  H48   S    
C74   O46   S    
C32   O23   A    
C47   C48   A    
C13   C76   A    
O53   H75   S    
Cr5   O8    S    
C30   C40   S    
O60   H86   S    
C89   C92   A    
C130  H100  S    
C131  H102  S    
C116  H49   S    
C120  H64   S    
O29   C110  S    
C114  H44   S    
C124  H76   S    
C98   O65   S    
O48   C119  S    
O67   C132  S    
C31   O31   S    
C132  H107  S    
C58   C63   A    
C34   C38   A    
C80   C81   A    
C122  H69   S    
O63   C128  S    
C107  O63   S    
C129  H97   S    
C115  H47   S    
C117  H52   S    
C128  H94   S    
O45   C118  S    
C33   O32   S    
Cr3   O22   S    
C2    C98   A    
O42   C116  S    
C27   C28   A    
C7    O10   A    
