data_mof_unit_48148.cif
_audit_creation_date              2012-12-10T17:56:17-0500
_audit_creation_method            fapswitch 2.2
_symmetry_space_group_name_H-M    P1
_symmetry_Int_Tables_number       1
_space_group_crystal_system       triclinic
_cell_length_a                    12.968933
_cell_length_b                    10.787598
_cell_length_c                    9.594553
_cell_angle_alpha                 88.891807
_cell_angle_beta                  94.884413
_cell_angle_gamma                 92.160582
_cell_volume                      1336.31203485

loop_
_atom_site_label
_atom_site_type_symbol
_atom_type_description
_atom_site_fract_x
_atom_site_fract_y
_atom_site_fract_z
_atom_type_partial_charge
C1    C     C_R   0.502612 0.262624 0.501468 0.799937
C2    C     C_R   0.497706 0.737272 0.498669 0.784142
C3    C     C_R   0.496701 0.871100 0.497193 -0.080540
C4    C     C_R   0.503644 0.128570 0.503222 -0.072242
C5    C     C_R   0.434711 0.422595 0.070958 -0.053924
C6    C     C_R   0.565291 0.577405 0.929047 -0.056621
C7    C     C_R   0.432730 0.422243 0.922864 0.251958
C8    C     C_R   0.567363 0.577627 0.077134 0.251288
C9    C     C_R   0.300874 0.498884 0.474830 0.786184
C10   C     C_R   0.699124 0.501913 0.525173 0.793946
C11   C     C_R   0.811578 0.507007 0.539243 -0.043232
C12   C     C_R   0.188417 0.493520 0.460936 -0.043411
C13   C     C_R   0.027094 0.430633 0.331952 -0.217026
C14   C     C_R   0.972897 0.569122 0.668679 -0.218527
C15   C     C_R   0.134588 0.441229 0.341908 -0.200134
C16   C     C_R   0.865383 0.559029 0.658418 -0.199180
C17   C     C_R   0.134523 0.537937 0.568494 -0.272627
C18   C     C_R   0.865492 0.461963 0.432068 -0.273197
C19   C     C_R   0.027070 0.527016 0.559909 0.174332
C20   C     C_R   0.972940 0.472685 0.440761 0.177218
C21   C     C_R   0.433869 0.066275 0.407017 -0.246302
C22   C     C_R   0.566589 0.933212 0.593233 -0.246574
C23   C     C_R   0.428691 0.937333 0.403198 0.155611
C24   C     C_R   0.572023 0.062165 0.597055 0.159982
Cu1   Cu    Cu3+1 0.500000 0.500020 0.640660 0.921568
Cu2   Cu    Cu3+1 0.500000 0.499980 0.359340 0.923931
H1    H     H_    0.823853 0.417798 0.342583 0.147537
H2    H     H_    0.176172 0.581790 0.658197 0.147231
H3    H     H_    0.824260 0.593912 0.742311 0.147014
H4    H     H_    0.175682 0.406526 0.257886 0.147506
H5    H     H_    0.986479 0.389276 0.239900 0.136597
H6    H     H_    0.013501 0.610380 0.760793 0.136501
H7    H     H_    0.381346 0.118642 0.336398 0.144006
H8    H     H_    0.619306 0.880330 0.662983 0.138692
H9    H     H_    0.383573 0.360359 0.125071 0.138728
H10   H     H_    0.616566 0.639516 0.874988 0.138923
N1    N     N_R   0.500030 0.500030 0.852080 -0.197148
N2    N     N_R   0.499970 0.499970 0.147920 -0.194436
O1    O     O_R   0.499990 0.319660 0.618740 -0.608528
O2    O     O_R   0.500010 0.680340 0.381260 -0.596233
O3    O     O_R   0.499990 0.319630 0.381170 -0.581163
O4    O     O_R   0.500010 0.680370 0.618830 -0.582179
O5    O     O_R   0.349000 0.499990 0.599490 -0.583122
O6    O     O_R   0.651000 0.500010 0.400510 -0.585350
O7    O     O_R   0.348990 0.499960 0.361920 -0.587718
O8    O     O_R   0.651010 0.500040 0.638080 -0.582168
C25   C     C_3   0.346474 0.875041 0.303708 -0.391956
C26   C     C_3   0.380168 0.874806 0.155138 -0.792202
H11   H     H_    0.453100 0.824693 0.152446 0.258100
H12   H     H_    0.319185 0.827443 0.084898 0.235013
H13   H     H_    0.392308 0.971338 0.115808 0.236414
H14   H     H_    0.327574 0.778550 0.337661 0.208054
H15   H     H_    0.273124 0.925234 0.303459 0.187300
C27   C     C_3   0.655271 0.124375 0.695372 -0.412809
C28   C     C_3   0.744569 0.176812 0.615638 -0.799594
H16   H     H_    0.716396 0.242227 0.531651 0.240095
H17   H     H_    0.801981 0.226914 0.688684 0.243407
H18   H     H_    0.783526 0.100268 0.567745 0.245176
H19   H     H_    0.623107 0.198059 0.755879 0.226596
H20   H     H_    0.687561 0.056675 0.774809 0.189933
C29   C     C_3   0.353781 0.332010 0.851416 -0.377542
C30   C     C_3   0.242968 0.365309 0.874984 -0.871564
H21   H     H_    0.225436 0.342514 0.983991 0.232205
H22   H     H_    0.231989 0.465718 0.855027 0.260153
H23   H     H_    0.187184 0.311596 0.803087 0.250781
H24   H     H_    0.358346 0.325582 0.739080 0.263963
H25   H     H_    0.367881 0.237083 0.894283 0.164895
C31   C     C_3   0.646977 0.667052 0.148583 -0.379448
C32   C     C_3   0.757436 0.631778 0.125816 -0.868114
H26   H     H_    0.813613 0.684521 0.198127 0.250982
H27   H     H_    0.767086 0.531117 0.145606 0.259782
H28   H     H_    0.775577 0.654236 0.016967 0.231483
H29   H     H_    0.634229 0.761996 0.104958 0.162600
H30   H     H_    0.641900 0.674396 0.260765 0.265046

loop_
_geom_bond_atom_site_label_1
_geom_bond_atom_site_label_2
_ccdc_geom_bond_type
C12   C17   A    
C10   O8    A    
C32   H28   S    
C30   H22   S    
C28   H16   S    
C11   C18   A    
C9    O7    A    
C25   H14   S    
C14   C16   A    
C29   H24   S    
C11   C16   A    
C29   H25   S    
C3    C23   A    
C19   C20   A    
C30   H23   S    
C12   C15   A    
C25   H15   S    
C1    C4    S    
Cu1   O5    S    
C26   H12   S    
C2    C3    S    
Cu1   Cu2   S    
C6    N1    A    
Cu2   O6    S    
C27   H20   S    
C5    N2    A    
Cu1   O1    S    
C4    C21   A    
Cu2   O2    S    
C30   H21   S    
Cu1   O4    S    
C8    N2    A    
C2    O4    A    
C4    C24   A    
C10   O6    A    
C5    H9    S    
C1    O3    A    
C26   H11   S    
C17   C19   A    
C6    H10   S    
C8    C31   S    
C18   C20   A    
C27   H19   S    
C28   H17   S    
C13   C15   A    
C7    N1    A    
C32   H26   S    
C22   H8    S    
C9    C12   S    
C22   C24   A    
C9    O5    A    
C21   H7    S    
C10   C11   S    
C1    O1    A    
C31   H30   S    
C31   H29   S    
C2    O2    A    
C23   C25   S    
C29   C30   S    
Cu1   O8    S    
C15   H4    S    
C32   H27   S    
C28   H18   S    
C5    C7    A    
C27   C28   S    
C14   C19   A    
C3    C22   A    
C6    C8    A    
C13   C20   A    
Cu1   N1    S    
C16   H3    S    
C17   H2    S    
C24   C27   S    
C21   C23   A    
C13   H5    S    
C26   H13   S    
Cu2   N2    S    
C18   H1    S    
C25   C26   S    
Cu2   O3    S    
C14   H6    S    
C31   C32   S    
Cu2   O7    S    
C7    C29   S    
