data_mof_unit_11455.cif
_audit_creation_date              2012-12-11T14:08:31-0500
_audit_creation_method            fapswitch 2.2
_symmetry_space_group_name_H-M    P1
_symmetry_Int_Tables_number       1
_space_group_crystal_system       triclinic
_cell_length_a                    10.937435
_cell_length_b                    10.971852
_cell_length_c                    18.785223
_cell_angle_alpha                 90.014549
_cell_angle_beta                  90.003167
_cell_angle_gamma                 60.396792
_cell_volume                      1960.04031702

loop_
_atom_site_label
_atom_site_type_symbol
_atom_type_description
_atom_site_fract_x
_atom_site_fract_y
_atom_site_fract_z
_atom_type_partial_charge
C1    C     C_R   0.242393 0.641975 0.610029 0.568112
C2    C     C_2   0.776628 0.163916 0.708796 -0.169477
C3    C     C_2   0.180689 0.657043 0.681346 0.275681
C4    C     C_R   0.651139 0.618811 0.603033 0.535771
C5    C     C_2   0.195964 0.663322 0.840835 -0.086930
C6    C     C_2   0.192984 0.563303 0.801538 -0.109937
C7    C     C_2   0.234410 0.544473 0.725882 0.260077
C8    C     C_2   0.653917 0.652868 0.318958 -0.091491
C9    C     C_2   0.640664 0.665793 0.161282 -0.152216
C10   C     C_2   0.728934 0.552470 0.198514 -0.082566
C11   C     C_2   0.745653 0.549228 0.275549 0.262818
C12   C     C_3   0.680702 0.535759 0.802755 0.519255
C13   C     C_2   0.635724 0.188223 0.321538 -0.051209
C14   C     C_2   0.639124 0.198280 0.166132 0.273113
C15   C     C_2   0.531529 0.210619 0.204821 -0.132513
C16   C     C_R   0.627089 0.229748 0.602523 0.560562
C17   C     C_2   0.521546 0.246216 0.279019 -0.110574
C18   C     C_2   0.189881 0.660553 0.326194 -0.096892
C19   C     C_2   0.182539 0.644640 0.173344 -0.103967
C20   C     C_2   0.239511 0.710999 0.206788 -0.160738
C21   C     C_2   0.269462 0.688721 0.281892 -0.136232
C22   C     C_R   0.703304 0.101772 0.897576 0.532108
C23   C     C_3   0.696102 0.670611 0.814075 0.082714
C24   C     C_R   0.723295 0.688129 0.888703 0.553803
C25   C     C_R   0.118638 0.707031 0.907657 0.532925
C26   C     C_R   0.674328 0.112568 0.102153 0.547072
C27   C     C_R   0.692340 0.688024 0.094266 0.542121
C28   C     C_R   0.225680 0.647812 0.400171 0.538271
C29   C     C_R   0.098932 0.705728 0.110787 0.550577
C30   C     C_R   0.642341 0.622081 0.393177 0.558522
C31   C     C_R   0.614946 0.231643 0.394499 0.541940
C32   C     C_3   0.559018 0.801083 0.786115 -0.253344
C33   C     C_3   0.538209 0.781588 0.706808 -0.253125
C34   C     C_3   0.664989 0.643124 0.678709 -0.009035
C35   C     C_3   0.817817 0.668924 0.769598 -0.258511
C36   C     C_3   0.298166 0.310366 0.721307 -0.128836
C37   C     C_3   0.971239 0.851767 0.651519 -0.132999
C38   C     C_3   0.976750 0.447582 0.304574 -0.125196
C39   C     C_3   0.859900 0.174997 0.190472 -0.097969
C40   C     C_3   0.928210 0.353563 0.810589 -0.129864
C41   C     C_3   0.548864 0.524416 0.902141 -0.060845
C42   C     C_3   0.801075 0.648480 0.690357 -0.272173
C43   C     C_3   0.670246 0.518492 0.721154 -0.120489
C44   C     C_2   0.670898 0.164228 0.672371 -0.122094
C45   C     C_2   0.687575 0.167991 0.828502 -0.086550
C46   C     C_2   0.797795 0.125831 0.784556 -0.117529
Cr1   Cr    Cr6+3 0.393010 0.398050 0.501480 1.026890
Cr2   Cr    Cr6+3 0.398820 0.707980 0.501630 1.009073
Cr3   Cr    Cr6+3 0.708140 0.393940 0.496850 1.035408
Cr4   Cr    Cr6+3 0.937950 0.938450 0.008940 1.012666
Cr5   Cr    Cr6+3 0.626180 0.937030 0.994750 1.003058
Cr6   Cr    Cr6+3 0.937790 0.625760 0.001410 1.005449
H1    H     H_    0.756944 0.418647 0.701331 0.116857
H2    H     H_    0.416500 0.315245 0.299563 0.143636
H3    H     H_    0.740659 0.116976 0.302330 0.102586
H4    H     H_    0.249633 0.794612 0.181417 0.143985
H5    H     H_    0.438538 0.778552 0.700328 0.162161
H6    H     H_    0.182384 0.554219 0.196967 0.094415
H7    H     H_    0.106697 0.641387 0.308132 0.062831
H8    H     H_    0.527968 0.872785 0.675928 0.119543
H9    H     H_    0.816664 0.770334 0.776701 0.138065
H10   H     H_    0.794729 0.737263 0.659326 0.114861
H11   H     H_    0.574035 0.511699 0.708758 0.151067
H12   H     H_    0.923036 0.589008 0.787955 0.126752
H13   H     H_    0.566257 0.898348 0.792262 0.126396
H14   H     H_    0.904425 0.058640 0.803427 0.167559
H15   H     H_    0.581415 0.235526 0.809023 0.132940
H16   H     H_    0.605375 0.128234 0.697896 0.104257
H17   H     H_    0.183982 0.347480 0.713892 0.085233
H18   H     H_    0.330641 0.276311 0.777130 0.105597
H19   H     H_    0.355788 0.217067 0.686772 0.146066
H20   H     H_    0.465194 0.817959 0.817072 0.159618
H21   H     H_    0.867348 0.899726 0.677448 0.135986
H22   H     H_    0.969020 0.779471 0.610430 0.086124
H23   H     H_    0.894344 0.551400 0.670754 0.132423
H24   H     H_    0.985327 0.934493 0.625109 0.155138
H25   H     H_    0.812914 0.462659 0.171283 0.179262
H26   H     H_    0.958535 0.535096 0.340965 0.118817
H27   H     H_    0.005642 0.466213 0.250418 0.097380
H28   H     H_    0.067551 0.350638 0.325644 0.138349
H29   H     H_    0.908011 0.182653 0.139830 0.140053
H30   H     H_    0.890716 0.064009 0.202484 0.115825
H31   H     H_    0.904711 0.209632 0.233578 0.174221
H32   H     H_    0.351241 0.708428 0.302091 0.154688
H33   H     H_    0.989601 0.380475 0.847913 0.147812
H34   H     H_    0.851278 0.186773 0.682447 0.137677
H35   H     H_    0.939861 0.383281 0.756070 0.068856
H36   H     H_    0.979259 0.237709 0.811024 0.128314
H37   H     H_    0.622423 0.539633 0.936599 0.151545
H38   H     H_    0.575134 0.413225 0.904346 0.152716
H39   H     H_    0.442283 0.588438 0.925078 0.107281
H40   H     H_    0.155839 0.496592 0.824275 0.100899
H41   H     H_    0.237872 0.726800 0.818747 0.151377
H42   H     H_    0.551393 0.755275 0.185245 0.086181
H43   H     H_    0.569306 0.750132 0.298250 0.034794
H44   H     H_    0.460046 0.175775 0.185766 0.106311
O1    O     O_R   0.507110 0.256280 0.580300 -0.487330
O2    O     O_R   0.837080 0.593860 0.915300 -0.514788
O3    O     O_R   0.064770 0.636080 0.932550 -0.510277
O4    O     O_R   0.280830 0.527190 0.577940 -0.478359
O5    O     O_R   0.068250 0.829200 0.092940 -0.527666
O6    O     O_R   0.799650 0.057040 0.080330 -0.509248
O7    O     O_R   0.586130 0.079760 0.077080 -0.542175
O8    O     O_R   0.627700 0.809630 0.066580 -0.495649
O9    O     O_R   0.816140 0.597180 0.075920 -0.522857
O10   O     O_R   0.045360 0.639170 0.081440 -0.502876
O11   O     O_3   0.833980 0.833750 0.001700 -0.245551
O12   O     O_R   0.524640 0.695370 0.425100 -0.516976
O13   O     O_R   0.261360 0.738990 0.584270 -0.527305
O14   O     O_R   0.532590 0.694780 0.574370 -0.509178
O15   O     O_R   0.744470 0.503750 0.577000 -0.536548
O16   O     O_R   0.698520 0.277230 0.571620 -0.515639
O17   O     O_R   0.498530 0.256920 0.419280 -0.533432
O18   O     O_R   0.272880 0.527780 0.428680 -0.509249
O19   O     O_R   0.252780 0.739630 0.423250 -0.514967
O20   O     O_3   0.334342 0.412641 0.701261 -0.557169
O21   O     O_3   0.074238 0.785998 0.704963 -0.624303
O22   O     O_3   0.858523 0.428269 0.302506 -0.536866
O23   O     O_R   0.735890 0.504390 0.415980 -0.445271
O24   O     O_3   0.712700 0.265661 0.188602 -0.571647
O25   O     O_3   0.788294 0.408833 0.835361 -0.551965
O26   O     O_3   0.546600 0.565704 0.830485 -0.600770
O27   O     O_R   0.690560 0.277820 0.422350 -0.477018
O28   O     O_3   0.499990 0.499990 0.499980 -0.259147
O29   O     O_R   0.089190 0.825870 0.932320 -0.518680
O30   O     O_R   0.819070 0.053960 0.931440 -0.486700
O31   O     O_R   0.607070 0.076440 0.916460 -0.531153
O32   O     O_R   0.647110 0.806550 0.917690 -0.520381

loop_
_geom_bond_atom_site_label_1
_geom_bond_atom_site_label_2
_ccdc_geom_bond_type
C41   O26   S    
Cr1   O18   S    
C41   H37   S    
C37   H22   S    
C18   C21   D    
Cr2   O14   S    
C19   C20   D    
C34   C42   S    
C20   H4    S    
Cr1   O28   S    
C43   H11   S    
C32   H20   S    
Cr2   O12   S    
C45   C46   D    
C2    C46   S    
C40   O25   S    
C12   C23   S    
C16   O16   A    
C42   H23   S    
C24   O2    A    
Cr5   O32   S    
C40   H35   S    
C46   H14   S    
C12   C43   S    
C3    C7    D    
C5    C6    D    
C16   O1    A    
C22   O30   A    
C30   O23   A    
C27   O9    A    
Cr5   O7    S    
C39   O24   S    
Cr3   O27   S    
C27   O8    A    
Cr1   O17   S    
C35   C42   S    
C25   O29   A    
C4    O14   A    
C3    O21   S    
C1    O13   A    
C43   H1    S    
C12   O25   S    
Cr6   O11   S    
C2    C44   D    
C45   H15   S    
C23   C24   S    
C2    H34   S    
C35   H12   S    
Cr4   O30   S    
C9    C10   D    
C42   H10   S    
C36   H19   S    
Cr3   O15   S    
Cr2   O13   S    
Cr6   O10   S    
C8    H43   S    
C1    O4    A    
C10   H25   S    
C36   H18   S    
C19   H6    S    
C4    C34   S    
C18   C28   S    
C39   H29   S    
C12   O26   S    
C15   H44   S    
C38   H26   S    
Cr5   O8    S    
Cr3   O28   S    
Cr1   O4    S    
C1    C3    S    
C7    O20   S    
C28   O19   A    
C26   O7    A    
C21   H32   S    
C33   C34   S    
C29   O5    A    
C35   H9    S    
Cr4   O29   S    
C14   C26   S    
C28   O18   A    
Cr3   O16   S    
C5    C25   S    
C41   H39   S    
C4    O15   A    
Cr6   O9    S    
Cr4   O6    S    
C33   H8    S    
C23   C35   S    
Cr2   O19   S    
Cr4   O11   S    
C29   O10   A    
C44   H16   S    
C19   C29   S    
C36   H17   S    
C9    C27   S    
C15   C17   S    
C37   H21   S    
C33   H5    S    
C40   H33   S    
C30   O12   A    
C16   C44   S    
C34   C43   S    
C39   H30   S    
Cr2   O28   S    
C5    H41   S    
C6    C7    S    
Cr6   O3    S    
C14   O24   S    
Cr1   O1    S    
C13   C17   D    
C8    C30   S    
C23   C32   S    
C40   H36   S    
C25   O3    A    
C39   H31   S    
C32   C33   S    
C22   O31   A    
Cr3   O23   S    
C38   H28   S    
Cr5   O31   S    
C8    C11   D    
C6    H40   S    
C9    H42   S    
Cr6   O2    S    
C37   H24   S    
C41   H38   S    
C13   C31   S    
C10   C11   S    
C31   O27   A    
C38   O22   S    
C18   H7    S    
C22   C45   S    
C37   O21   S    
C20   C21   S    
Cr4   O5    S    
Cr5   O11   S    
C38   H27   S    
C24   O32   A    
C14   C15   D    
C11   O22   S    
C17   H2    S    
C31   O17   A    
C26   O6    A    
C32   H13   S    
C13   H3    S    
C36   O20   S    
