data_mof_unit_19318.cif
_audit_creation_date              2012-12-10T18:06:39-0500
_audit_creation_method            fapswitch 2.2
_symmetry_space_group_name_H-M    P1
_symmetry_Int_Tables_number       1
_space_group_crystal_system       triclinic
_cell_length_a                    12.613125
_cell_length_b                    13.084707
_cell_length_c                    15.422265
_cell_angle_alpha                 84.422895
_cell_angle_beta                  99.118645
_cell_angle_gamma                 97.663399
_cell_volume                      2483.13029842

loop_
_atom_site_label
_atom_site_type_symbol
_atom_type_description
_atom_site_fract_x
_atom_site_fract_y
_atom_site_fract_z
_atom_type_partial_charge
Br1   Br    Br    0.665306 0.748277 0.306968 -0.510534
Br2   Br    Br    0.554020 0.925652 0.704189 -0.550129
Br3   Br    Br    0.189485 0.584386 0.262386 -0.518340
C1    C     C_R   0.443305 0.308369 0.509932 0.847754
C2    C     C_R   0.640458 0.392476 0.936916 0.173606
C3    C     C_R   0.536142 0.418774 0.901600 0.090549
C4    C     C_R   0.434372 0.510716 0.335736 0.911667
C5    C     C_R   0.719053 0.393778 0.881615 -0.183759
C6    C     C_R   0.696017 0.425217 0.792250 -0.187024
C7    C     C_R   0.516642 0.454088 0.813014 -0.244505
C8    C     C_R   0.623372 0.941368 0.354776 -0.219324
C9    C     C_R   0.580506 0.800793 0.461563 -0.135401
C10   C     C_R   0.379998 0.164791 0.608729 -0.241657
C11   C     C_R   0.409543 0.073394 0.653422 -0.151334
C12   C     C_R   0.419712 0.442533 0.103069 0.095601
C13   C     C_R   0.473434 0.013961 0.617733 0.251787
C14   C     C_R   0.492123 0.036841 0.528221 0.028100
C15   C     C_R   0.463272 0.130870 0.484314 0.023996
C16   C     C_R   0.554487 0.691486 0.485070 0.910428
C17   C     C_R   0.539734 0.971933 0.481123 0.066232
C18   C     C_R   0.574475 0.007858 0.398617 0.077376
C19   C     C_R   0.550264 0.105200 0.358492 0.166108
C20   C     C_R   0.488999 0.161605 0.399270 -0.213048
C21   C     C_R   0.539741 0.867719 0.508480 -0.224041
C22   C     C_R   0.624631 0.837735 0.384646 0.248017
C23   C     C_R   0.313570 0.462298 0.066117 0.118151
C24   C     C_R   0.416468 0.198007 0.528623 -0.086460
C25   C     C_R   0.148475 0.564167 0.665696 -0.302782
C26   C     C_R   0.753958 0.396968 0.382486 0.045365
C27   C     C_R   0.846879 0.372220 0.356055 -0.238323
C28   C     C_R   0.563554 0.484109 0.664085 0.847585
C29   C     C_R   0.946751 0.401244 0.405025 -0.138511
C30   C     C_R   0.953381 0.454031 0.481542 -0.013909
C31   C     C_R   0.856711 0.477178 0.507297 0.205757
C32   C     C_R   0.052613 0.490161 0.531425 -0.026032
C33   C     C_R   0.053227 0.520122 0.617329 0.159558
C34   C     C_R   0.489642 0.412343 0.049172 0.090573
C35   C     C_R   0.956415 0.518549 0.649137 -0.314058
C36   C     C_R   0.865176 0.528877 0.586581 0.142900
C37   C     C_R   0.150433 0.503901 0.497903 0.006907
C38   C     C_R   0.241119 0.582170 0.626596 0.026127
C39   C     C_R   0.390302 0.500734 0.242184 -0.120188
C40   C     C_R   0.594709 0.456824 0.758054 -0.049855
C41   C     C_R   0.246959 0.499816 0.116978 -0.226099
C42   C     C_R   0.284834 0.521246 0.204020 0.275025
C43   C     C_R   0.455796 0.462271 0.190820 -0.290234
C44   C     C_3   0.581221 0.149152 0.270023 -0.452641
C45   C     C_R   0.457015 0.418338 0.957079 0.070660
C46   C     C_3   0.501127 0.105192 0.193875 -0.795357
C47   C     C_3   0.826813 0.634020 0.588765 -0.356660
C48   C     C_3   0.853115 0.707605 0.509662 -0.736590
C49   C     C_R   0.347429 0.427723 0.923377 -0.224928
C50   C     C_R   0.276545 0.448515 0.977626 -0.203623
C51   C     C_R   0.592607 0.381199 0.083052 -0.217582
C52   C     C_R   0.665678 0.368858 0.027248 -0.220286
H1    H     H_    0.194130 0.459280 0.949163 0.145361
H2    H     H_    0.958705 0.544590 0.714255 0.148283
H3    H     H_    0.150288 0.588057 0.731331 0.150181
H4    H     H_    0.158496 0.476901 0.435790 0.157416
H5    H     H_    0.676188 0.374546 0.344590 0.117681
H6    H     H_    0.017274 0.379125 0.383520 0.150289
H7    H     H_    0.841430 0.330631 0.297843 0.146191
H8    H     H_    0.757239 0.425239 0.750331 0.163368
H9    H     H_    0.744320 0.346403 0.055391 0.150662
H10   H     H_    0.166347 0.516209 0.087925 0.170629
H11   H     H_    0.537343 0.451768 0.219524 0.175554
H12   H     H_    0.798609 0.372176 0.907723 0.140332
H13   H     H_    0.314637 0.419288 0.855029 0.146375
H14   H     H_    0.618897 0.365176 0.152364 0.135237
H15   H     H_    0.498054 0.019844 0.196210 0.270666
H16   H     H_    0.418963 0.125221 0.196794 0.260683
H17   H     H_    0.526246 0.139104 0.130359 0.255293
H18   H     H_    0.581472 0.234373 0.263610 0.189293
H19   H     H_    0.664995 0.136083 0.264610 0.203417
H20   H     H_    0.942211 0.724630 0.512295 0.246188
H21   H     H_    0.819601 0.672939 0.446931 0.297369
H22   H     H_    0.819302 0.781398 0.511167 0.248561
H23   H     H_    0.652519 0.966012 0.293019 0.183966
H24   H     H_    0.743574 0.628893 0.601452 0.234201
H25   H     H_    0.869420 0.674365 0.647179 0.184158
H26   H     H_    0.495149 0.834328 0.560517 0.201804
H27   H     H_    0.343500 0.216392 0.642913 0.168916
H28   H     H_    0.393230 0.055196 0.720410 0.181371
H29   H     H_    0.462937 0.232199 0.364589 0.138609
H30   H     H_    0.316333 0.614127 0.663561 0.147976
H31   H     H_    0.441494 0.483666 0.786336 0.159281
N1    N     N_R   0.239390 0.551900 0.544730 -0.103780
N2    N     N_R   0.759950 0.448600 0.455730 -0.121547
O1    O     O_R   0.374950 0.371210 0.521360 -0.617206
O2    O     O_R   0.542050 0.338030 0.492790 -0.605892
O3    O     O_R   0.368720 0.526070 0.390200 -0.574367
O4    O     O_R   0.535820 0.492890 0.361630 -0.615105
O5    O     O_R   0.457950 0.661970 0.507210 -0.599506
O6    O     O_R   0.625050 0.628790 0.478640 -0.589562
O7    O     O_R   0.464180 0.507110 0.638370 -0.627095
O8    O     O_R   0.631280 0.473930 0.609800 -0.628942
Zn1   Zn    Zn3+2 0.388420 0.522150 0.519080 0.969518
Zn2   Zn    Zn3+2 0.611580 0.477850 0.480920 0.957554

loop_
_geom_bond_atom_site_label_1
_geom_bond_atom_site_label_2
_ccdc_geom_bond_type
C32   C33   A    
C47   H24   S    
C23   C41   A    
C44   C46   S    
C41   C42   A    
C28   C40   S    
C37   N1    A    
C48   H20   S    
C29   H6    S    
C43   H11   S    
C35   C36   A    
O6    Zn2   S    
C28   O8    A    
C25   C38   A    
C14   C17   A    
C39   C43   A    
C4    C39   S    
C12   C34   A    
C26   N2    A    
C17   C21   A    
C5    C6    A    
C46   H17   S    
O8    Zn2   S    
Br2   C13   S    
C16   O5    A    
C19   C44   S    
C37   H4    S    
C10   C11   A    
Br1   C22   S    
C41   H10   S    
C11   H28   S    
C14   C15   A    
C1    O2    A    
C38   N1    A    
C6    C40   A    
C20   H29   S    
O4    Zn2   S    
C15   C20   A    
C48   H21   S    
C44   H18   S    
C13   C14   A    
C12   C23   A    
C47   C48   S    
C49   H13   S    
C10   H27   S    
Br3   C42   S    
C31   C36   A    
O1    Zn1   S    
C39   C42   A    
C21   H26   S    
C48   H22   S    
C26   C27   A    
C8    H23   S    
C35   H2    S    
C26   H5    S    
C4    O3    A    
C52   H9    S    
C30   C31   A    
C31   N2    A    
O3    Zn1   S    
C34   C45   A    
C16   O6    A    
C3    C45   A    
C34   C51   A    
C46   H15   S    
C27   H7    S    
C11   C13   A    
C23   C50   A    
O5    Zn1   S    
C1    C24   S    
C49   C50   A    
C1    O1    A    
C50   H1    S    
C51   C52   A    
C7    H31   S    
C7    C40   A    
C6    H8    S    
C2    C52   A    
C15   C24   A    
C44   H19   S    
C47   H25   S    
C3    C7    A    
C2    C5    A    
O7    Zn1   S    
C25   H3    S    
C38   H30   S    
C9    C21   A    
C9    C22   A    
C29   C30   A    
C33   C35   A    
C32   C37   A    
C27   C29   A    
C2    C3    A    
C51   H14   S    
C28   O7    A    
C4    O4    A    
C9    C16   S    
C30   C32   A    
C8    C18   A    
C45   C49   A    
C36   C47   S    
C17   C18   A    
C25   C33   A    
C5    H12   S    
C46   H16   S    
C8    C22   A    
C19   C20   A    
C10   C24   A    
C12   C43   A    
C18   C19   A    
O2    Zn2   S    
N2    Zn2   S    
N1    Zn1   S    
