data_mof_unit_22573.cif
_audit_creation_date              2013-03-05T15:42:11-0500
_audit_creation_method            fapswitch 2.2
_symmetry_space_group_name_H-M    P1
_symmetry_Int_Tables_number       1
_space_group_crystal_system       triclinic
_cell_length_a                    15.15428
_cell_length_b                    15.713597
_cell_length_c                    9.825767
_cell_angle_alpha                 89.303144
_cell_angle_beta                  90.327912
_cell_angle_gamma                 90.02355
_cell_volume                      2339.58118113

loop_
_atom_site_label
_atom_site_type_symbol
_atom_site_description
_atom_site_fract_x
_atom_site_fract_y
_atom_site_fract_z
_atom_type_partial_charge
O1    O     O_R   0.410990 0.910970 0.617040 -0.588689
O2    O     O_R   0.410990 0.089030 0.617040 -0.573749
O3    O     O_R   0.910990 0.410970 0.617040 -0.588658
O4    O     O_R   0.910990 0.589030 0.617040 -0.573894
O5    O     O_R   0.410950 0.910970 0.382900 -0.589407
O6    O     O_R   0.410950 0.089030 0.382900 -0.585403
O7    O     O_R   0.910950 0.410970 0.382900 -0.589453
O8    O     O_R   0.910950 0.589030 0.382900 -0.585369
C1    C     C_R   0.380742 0.884949 0.500164 0.842271
C2    C     C_R   0.384661 0.118687 0.499308 0.835739
C3    C     C_R   0.880741 0.384950 0.500165 0.842233
C4    C     C_R   0.884662 0.618687 0.499308 0.835708
Cu1   Cu    Cu3+1 0.500020 0.000000 0.638630 0.951229
Cu2   Cu    Cu3+1 0.000020 0.500000 0.638630 0.951204
Cu3   Cu    Cu3+1 0.499980 0.000000 0.361370 0.964159
Cu4   Cu    Cu3+1 0.999980 0.500000 0.361370 0.964163
O9    O     O_R   0.589050 0.089030 0.617100 -0.600638
O10   O     O_R   0.589050 0.910970 0.617100 -0.605142
O11   O     O_R   0.089050 0.589030 0.617100 -0.600597
O12   O     O_R   0.089050 0.410970 0.617100 -0.605164
O13   O     O_R   0.589010 0.089030 0.382960 -0.551807
O14   O     O_R   0.589010 0.910970 0.382960 -0.571465
O15   O     O_R   0.089010 0.589030 0.382960 -0.551784
O16   O     O_R   0.089010 0.410970 0.382960 -0.571463
C5    C     C_R   0.620728 0.113654 0.499900 0.763247
C6    C     C_R   0.613546 0.879530 0.500780 0.770970
C7    C     C_R   0.120729 0.613653 0.499901 0.763254
C8    C     C_R   0.113546 0.379530 0.500780 0.770982
C9    C     C_2   0.714774 0.782582 0.393707 -0.165187
C10   C     C_2   0.713615 0.219884 0.394309 -0.165998
C11   C     C_2   0.214771 0.282579 0.393706 -0.165174
C12   C     C_2   0.213632 0.719869 0.394304 -0.165981
C13   C     C_2   0.664122 0.800635 0.502386 -0.148519
C14   C     C_2   0.700180 0.165648 0.499728 -0.141595
C15   C     C_2   0.164122 0.300634 0.502386 -0.148536
C16   C     C_2   0.200184 0.665643 0.499733 -0.141598
H1    H     H_    0.714623 0.824501 0.304937 0.156760
H2    H     H_    0.667705 0.221587 0.308939 0.168848
H3    H     H_    0.214619 0.324496 0.304934 0.156767
H4    H     H_    0.167733 0.721564 0.308920 0.168867
C17   C     C_2   0.276737 0.211303 0.389548 -0.110197
C18   C     C_2   0.284974 0.782487 0.389916 -0.103357
C19   C     C_2   0.776740 0.711306 0.389548 -0.110190
C20   C     C_2   0.784955 0.282503 0.389915 -0.103374
C21   C     C_2   0.324360 0.189863 0.499511 -0.238211
C22   C     C_2   0.308747 0.824574 0.501783 -0.239549
C23   C     C_2   0.824361 0.689864 0.499512 -0.238196
C24   C     C_2   0.808744 0.324577 0.501787 -0.239512
H5    H     H_    0.286606 0.179802 0.293036 0.163581
H6    H     H_    0.314625 0.796928 0.291933 0.163771
H7    H     H_    0.786611 0.679808 0.293035 0.163552
H8    H     H_    0.814592 0.296957 0.291926 0.163793
H9    H     H_    0.318256 0.224907 0.593605 0.153077
H10   H     H_    0.274963 0.813999 0.597729 0.149139
H11   H     H_    0.818255 0.724905 0.593608 0.153067
H12   H     H_    0.774971 0.313994 0.597739 0.149140
C25   C     C_2   0.428535 0.987832 0.922854 0.242164
C26   C     C_2   0.928512 0.487934 0.922835 0.242331
N1    N     N_2   0.498660 1.000000 0.846910 -0.261068
N2    N     N_2   0.998660 0.500000 0.846910 -0.261086
C27   C     C_2   0.427082 0.997986 0.077859 0.290705
C28   C     C_2   0.927078 0.498041 0.077856 0.290607
N3    N     N_2   0.498630 1.000000 0.153040 -0.268557
N4    N     N_2   0.998630 0.500000 0.153040 -0.268530
H13   H     H_    0.556687 0.981004 0.109477 0.162222
H14   H     H_    0.056674 0.480965 0.109480 0.162271
C29   C     C_2   0.647444 0.740087 0.617518 0.389657
H15   H     H_    0.628385 0.764123 0.716152 0.079648
O17   O     O_2   0.649704 0.663160 0.601558 -0.518298
C30   C     C_2   0.766358 0.147566 0.609237 0.360443
H16   H     H_    0.744686 0.124091 0.707825 0.074480
O18   O     O_2   0.845472 0.153760 0.588254 -0.511828
C31   C     C_2   0.147446 0.240088 0.617521 0.389689
H17   H     H_    0.128389 0.264126 0.716156 0.079650
O19   O     O_2   0.149704 0.163161 0.601564 -0.518280
C32   C     C_2   0.266350 0.647573 0.609265 0.360431
H18   H     H_    0.244667 0.624112 0.707856 0.074536
O20   O     O_2   0.345466 0.653761 0.588300 -0.511844
C33   C     C_3   0.343523 0.959061 0.854580 -0.734837
H19   H     H_    0.282469 0.968679 0.912561 0.191088
H20   H     H_    0.329763 0.997261 0.762209 0.269390
H21   H     H_    0.347088 0.889860 0.834340 0.226922
C34   C     C_3   0.843451 0.459300 0.854530 -0.734770
H22   H     H_    0.829840 0.497399 0.762011 0.269481
H23   H     H_    0.846816 0.390056 0.834488 0.226751
H24   H     H_    0.782388 0.469252 0.912390 0.191143
C35   C     C_2   0.566595 0.055411 0.893869 0.536124
H25   H     H_    0.634911 0.040371 0.872436 0.023485
O21   O     O_2   0.548937 0.122476 0.949354 -0.567172
C36   C     C_2   0.066674 0.555324 0.893866 0.536017
H26   H     H_    0.134968 0.540207 0.872394 0.023536
O22   O     O_2   0.049112 0.622403 0.949383 -0.567196
C37   C     C_3   0.336343 0.000375 0.142408 -0.750029
H27   H     H_    0.297632 0.054044 0.098108 0.201009
H28   H     H_    0.302147 0.938938 0.125161 0.189627
H29   H     H_    0.333062 0.006847 0.251539 0.270921
C38   C     C_3   0.836342 0.500475 0.142408 -0.750068
H30   H     H_    0.802037 0.439118 0.124920 0.189634
H31   H     H_    0.833073 0.506780 0.251576 0.270954
H32   H     H_    0.797723 0.554273 0.098306 0.200982

loop_
_geom_bond_atom_site_label_1
_geom_bond_atom_site_label_2
_geom_bond_distance
_ccdc_geom_bond_type
C26   C28   1.533652 S    
C35   H25   1.084397 S    
N3    H13   1.026660 S    
C37   H27   1.110575 S    
C31   H17   1.085147 S    
C25   C33   1.520254 S    
O10   C6    1.306489 A    
C38   H30   1.109935 S    
O7    C3    1.303369 A    
Cu1   O10   1.958118 S    
C12   C16   1.349634 D    
C32   O20   1.221317 D    
C27   C37   1.518272 S    
C25   N1    1.314582 D    
C26   N2    1.314551 D    
C9    C13   1.351626 D    
C10   H2    1.086826 S    
C18   C22   1.337277 D    
C27   N3    1.309071 D    
O2    Cu1   1.952820 S    
C28   N4    1.309115 D    
C16   C32   1.491564 S    
O6    Cu3   1.958117 S    
Cu3   O14   1.952821 S    
C8    C15   1.457674 S    
C30   H16   1.084972 S    
O15   C7    1.305898 A    
O4    C4    1.302429 A    
O11   C7    1.304466 A    
C14   C30   1.491559 S    
C5    C14   1.454779 S    
C20   H8    1.086216 S    
O8    Cu4   1.958117 S    
C21   H9    1.086264 S    
C1    C22   1.445562 S    
Cu4   O16   1.952821 S    
C9    C19   1.462977 S    
C31   O19   1.221330 D    
C10   C20   1.462013 S    
C3    C24   1.445560 S    
C4    C23   1.444607 S    
C17   H5    1.086169 S    
C38   H31   1.079838 S    
C10   C14   1.349635 D    
C29   H15   1.085148 S    
Cu2   O12   1.958118 S    
O1    C1    1.304359 A    
C32   H18   1.084975 S    
C33   H20   1.101024 S    
O12   C8    1.306490 A    
C29   O17   1.221331 D    
N4    H14   1.026651 S    
O5    C1    1.303365 A    
C28   C38   1.518274 S    
C6    C13   1.457673 S    
C36   O22   1.222826 D    
C34   H22   1.100939 S    
O8    C4    1.304802 A    
C22   H10   1.086337 S    
C2    C21   1.444608 S    
Cu3   N3    2.046987 S    
O3    Cu2   1.955721 S    
C18   H6    1.086214 S    
O7    Cu4   1.953644 S    
C34   H23   1.109356 S    
Cu4   O15   1.955720 S    
C35   O21   1.222813 D    
C11   C15   1.351625 D    
O1    Cu1   1.955721 S    
O2    C2    1.302429 A    
C38   H32   1.110637 S    
C13   C29   1.491889 S    
C23   H11   1.086264 S    
C24   H12   1.086337 S    
O13   C5    1.305892 A    
C15   C31   1.491889 S    
C12   C18   1.462011 S    
C11   C17   1.462981 S    
Cu2   O11   1.953643 S    
O16   C8    1.305309 A    
O6    C2    1.304800 A    
C33   H21   1.109201 S    
C25   C27   1.533590 S    
Cu1   N1    2.046732 S    
N2    C36   1.426379 S    
C7    C16   1.454786 S    
C37   H29   1.079769 S    
Cu2   N2    2.046732 S    
Cu1   O9    1.953643 S    
O9    C5    1.304470 A    
Cu1   Cu3   2.724288 S    
C26   C34   1.520346 S    
C19   H7    1.086166 S    
C36   H26   1.084409 S    
C11   H3    1.086590 S    
Cu2   Cu4   2.724288 S    
C12   H4    1.086827 S    
O4    Cu2   1.952820 S    
N1    C35   1.426365 S    
O5    Cu3   1.953644 S    
O3    C3    1.304355 A    
C33   H19   1.100769 S    
Cu3   O13   1.955720 S    
C34   H24   1.101033 S    
C37   H28   1.109864 S    
O14   C6    1.305308 A    
C9    H1    1.086592 S    
C17   C21   1.335734 D    
C30   O18   1.221316 D    
Cu4   N4    2.046987 S    
C19   C23   1.335733 D    
C20   C24   1.337273 D    
