data_mof_unit_68109.cif
_audit_creation_date              2012-12-11T16:06:24-0500
_audit_creation_method            fapswitch 2.2
_symmetry_space_group_name_H-M    P1
_symmetry_Int_Tables_number       1
_space_group_crystal_system       triclinic
_cell_length_a                    7.199923
_cell_length_b                    14.365333
_cell_length_c                    15.916147
_cell_angle_alpha                 89.998143
_cell_angle_beta                  90.000203
_cell_angle_gamma                 90.012867
_cell_volume                      1646.19576475

loop_
_atom_site_label
_atom_site_type_symbol
_atom_type_description
_atom_site_fract_x
_atom_site_fract_y
_atom_site_fract_z
_atom_type_partial_charge
O1    O     O_R   0.388780 0.834790 0.412340 -0.540806
O2    O     O_R   0.111220 0.165210 0.912340 -0.540674
O3    O     O_R   0.888780 0.665210 0.587660 -0.541713
O4    O     O_R   0.611220 0.334790 0.087660 -0.541644
O5    O     O_R   0.059040 0.845930 0.587040 -0.546873
O6    O     O_R   0.440960 0.154070 0.087040 -0.546890
O7    O     O_R   0.559040 0.654070 0.412960 -0.546846
O8    O     O_R   0.940960 0.345930 0.912960 -0.546855
C1    C     C_R   0.227875 0.868543 0.614854 0.685164
C2    C     C_R   0.272124 0.131430 0.114830 0.685087
C3    C     C_R   0.727867 0.631338 0.385236 0.685345
C4    C     C_R   0.772129 0.368688 0.885262 0.685282
O9    O     O_R   0.059070 0.845930 0.412970 -0.518341
O10   O     O_R   0.440930 0.154070 0.912970 -0.518126
O11   O     O_R   0.559070 0.654070 0.587030 -0.519764
O12   O     O_R   0.940930 0.345930 0.087030 -0.519646
O13   O     O_R   0.888760 0.665210 0.412340 -0.528570
O14   O     O_R   0.611240 0.334790 0.912340 -0.528598
O15   O     O_R   0.388760 0.834790 0.587660 -0.528509
O16   O     O_R   0.111240 0.165210 0.087660 -0.528513
C5    C     C_R   0.227354 0.866940 0.383828 0.685310
C6    C     C_R   0.272648 0.133006 0.883873 0.684901
C7    C     C_R   0.727366 0.633189 0.616267 0.686475
C8    C     C_R   0.772635 0.366839 0.116245 0.686165
O17   O     O_3   0.222280 0.690700 0.500000 -0.371975
O18   O     O_3   0.277720 0.309300 0.000000 -0.371925
O19   O     O_3   0.722280 0.809300 0.500000 -0.370454
O20   O     O_3   0.777720 0.190700 0.000000 -0.370321
V1    V     V_3+5 0.947430 0.761000 0.500000 1.442474
V2    V     V_3+5 0.552570 0.239000 0.000000 1.442818
V3    V     V_3+5 0.447430 0.739000 0.500000 1.441458
V4    V     V_3+5 0.052570 0.261000 0.000000 1.441771
C9    C     C_3   0.863284 0.602305 0.761092 -0.286118
C10   C     C_3   0.637453 0.397554 0.261218 -0.286296
C11   C     C_3   0.355794 0.896117 0.237419 -0.287351
C12   C     C_3   0.145434 0.104078 0.737255 -0.287550
H1    H     H_    0.005322 0.615055 0.736223 0.174961
H2    H     H_    0.495345 0.384574 0.236535 0.175346
H3    H     H_    0.498333 0.881055 0.260446 0.178152
H4    H     H_    0.002858 0.119523 0.759993 0.178573
H5    H     H_    0.810617 0.671189 0.782084 0.173132
H6    H     H_    0.690674 0.328749 0.282148 0.172993
H7    H     H_    0.297486 0.828121 0.217102 0.171801
H8    H     H_    0.204658 0.171919 0.717069 0.171613
C13   C     C_3   0.876836 0.531613 0.835828 0.019145
C14   C     C_3   0.623948 0.468230 0.335966 0.019009
C15   C     C_3   0.368890 0.966723 0.162571 0.018714
C16   C     C_3   0.132389 0.033503 0.662386 0.018557
H9    H     H_    0.024913 0.509774 0.841390 0.156383
H10   H     H_    0.475757 0.489812 0.341744 0.156670
H11   H     H_    0.517896 0.986026 0.154800 0.158499
H12   H     H_    0.983273 0.014606 0.654266 0.158804
H13   H     H_    0.961068 0.482760 0.630753 0.167944
H14   H     H_    0.537968 0.516884 0.130989 0.168232
H15   H     H_    0.469615 0.013657 0.366825 0.171447
H16   H     H_    0.029011 0.986898 0.866411 0.171994
H17   H     H_    0.988222 0.381059 0.741123 0.148804
H18   H     H_    0.510811 0.618540 0.241370 0.148975
H19   H     H_    0.497496 0.114528 0.255956 0.151077
H20   H     H_    0.001200 0.886084 0.755520 0.151403
C17   C     C_3   0.821870 0.470828 0.659189 -0.419240
C18   C     C_3   0.677285 0.529071 0.159224 -0.418769
C19   C     C_3   0.329737 0.027907 0.340000 -0.416768
C20   C     C_3   0.169024 0.972251 0.839915 -0.416090
C21   C     C_3   0.541030 0.543179 0.727178 0.133516
C22   C     C_3   0.959096 0.457223 0.226866 0.133493
C23   C     C_3   0.040025 0.960379 0.275594 0.133245
C24   C     C_3   0.460097 0.039000 0.776083 0.133294
C25   C     C_3   0.737080 0.564467 0.689429 0.040765
C26   C     C_3   0.762936 0.435586 0.189382 0.040796
C27   C     C_3   0.236891 0.935769 0.310737 0.040689
C28   C     C_3   0.263150 0.064137 0.810818 0.040634
H21   H     H_    0.450285 0.514477 0.676798 0.116218
H22   H     H_    0.049340 0.486033 0.176350 0.116292
H23   H     H_    0.954210 0.990031 0.327269 0.116599
H24   H     H_    0.545098 0.009178 0.827955 0.116629
C29   C     C_3   0.760880 0.441672 0.815473 0.018877
C30   C     C_3   0.739129 0.558374 0.315427 0.018950
C31   C     C_3   0.260746 0.058550 0.184694 0.020343
C32   C     C_3   0.239281 0.941385 0.684752 0.020332
C33   C     C_3   0.839657 0.400329 0.732667 -0.359779
C34   C     C_3   0.659469 0.599552 0.232715 -0.359865
C35   C     C_3   0.348132 0.098198 0.266404 -0.361360
C36   C     C_3   0.150627 0.901992 0.766288 -0.361326
C37   C     C_3   0.555185 0.469790 0.798038 -0.322162
C38   C     C_3   0.944911 0.530630 0.297700 -0.322048
C39   C     C_3   0.054493 0.034032 0.205017 -0.321113
C40   C     C_3   0.445565 0.965332 0.705530 -0.321025
H25   H     H_    0.489495 0.495783 0.856708 0.169905
H26   H     H_    0.011219 0.504790 0.356286 0.170037
H27   H     H_    0.982721 0.009657 0.147238 0.171141
H28   H     H_    0.518263 0.989462 0.647903 0.171319
H29   H     H_    0.474407 0.407150 0.778880 0.148300
H30   H     H_    0.025080 0.593414 0.278395 0.148908
H31   H     H_    0.979846 0.097984 0.225637 0.153220
H32   H     H_    0.519241 0.901177 0.726354 0.153874
H33   H     H_    0.731852 0.440088 0.609873 0.149478
H34   H     H_    0.766714 0.559964 0.109755 0.149263
H35   H     H_    0.244606 0.060061 0.390277 0.150064
H36   H     H_    0.253204 0.939874 0.890411 0.149638
H37   H     H_    0.763908 0.335470 0.716188 0.200148
H38   H     H_    0.734586 0.664554 0.216109 0.200284
H39   H     H_    0.278864 0.164494 0.283958 0.198883
H40   H     H_    0.218962 0.835504 0.783994 0.198590
C41   C     C_3   0.822715 0.577626 0.920435 -0.375263
C42   C     C_3   0.969209 0.647342 0.950481 -0.736084
H41   H     H_    0.104639 0.611840 0.960014 0.233063
H42   H     H_    0.987365 0.704634 0.904413 0.240509
H43   H     H_    0.924843 0.678175 0.011231 0.224457
H44   H     H_    0.686816 0.613667 0.915047 0.227902
H45   H     H_    0.808747 0.523517 0.969644 0.151726
C43   C     C_3   0.679008 0.422301 0.420490 -0.374892
C44   C     C_3   0.533062 0.352440 0.450813 -0.737150
H46   H     H_    0.397610 0.387825 0.460637 0.232894
H47   H     H_    0.514635 0.295170 0.404751 0.240453
H48   H     H_    0.578112 0.321603 0.511460 0.224402
H49   H     H_    0.815000 0.386391 0.414871 0.228072
H50   H     H_    0.693233 0.476426 0.469663 0.151666
C45   C     C_3   0.305409 0.921843 0.078811 -0.376127
C46   C     C_3   0.444921 0.849882 0.046420 -0.738546
H51   H     H_    0.581221 0.883440 0.034050 0.232052
H52   H     H_    0.464259 0.792662 0.092457 0.238911
H53   H     H_    0.393143 0.819217 0.986808 0.227067
H54   H     H_    0.167739 0.887995 0.086253 0.229039
H55   H     H_    0.291137 0.976319 0.029963 0.151011
C47   C     C_3   0.197320 0.078227 0.578790 -0.375939
C48   C     C_3   0.059014 0.150621 0.546129 -0.739658
H56   H     H_    0.922547 0.117445 0.533301 0.231887
H57   H     H_    0.039609 0.207766 0.592225 0.238691
H58   H     H_    0.111940 0.181315 0.486738 0.227149
H59   H     H_    0.335274 0.111683 0.586569 0.229278
H60   H     H_    0.211557 0.023734 0.529967 0.151016
Br1   Br    Br    0.414875 0.654545 0.769322 -0.711664
Br2   Br    Br    0.086222 0.346101 0.268944 -0.711475
Br3   Br    Br    0.904500 0.851412 0.234192 -0.709580
Br4   Br    Br    0.597132 0.147578 0.734831 -0.709162

loop_
_geom_bond_atom_site_label_1
_geom_bond_atom_site_label_2
_ccdc_geom_bond_type
O17   V3    S    
C31   C35   S    
C41   H44   S    
C40   H32   S    
O1    C5    A    
C47   C48   S    
C14   C43   S    
O19   V1    S    
C9    C13   S    
C7    C25   S    
O3    C7    A    
C10   H6    S    
C15   C31   S    
C32   C36   S    
C11   C15   S    
C31   C39   S    
C8    C26   S    
C33   H37   S    
C45   H54   S    
O7    C3    A    
C35   H39   S    
C5    C27   S    
O9    V1    S    
H19   C35   S    
C22   C38   S    
C39   H27   S    
H18   C34   S    
C43   H49   S    
O4    C8    A    
C21   C25   S    
C20   H36   S    
C42   H41   S    
C22   H22   S    
O1    V3    S    
O13   V1    S    
C18   C26   S    
O2    V4    S    
O3    V1    S    
C20   C36   S    
C12   H4    S    
C19   H35   S    
C38   H30   S    
C18   H34   S    
H13   C17   S    
C1    O15   A    
C40   H28   S    
C46   H52   S    
H15   C19   S    
O2    C6    A    
H16   C20   S    
C10   C14   S    
C47   H60   S    
C11   H7    S    
C10   C26   S    
C46   H53   S    
C9    C25   S    
C44   H48   S    
C30   C38   S    
O11   C7    A    
C18   C34   S    
O15   V3    S    
O12   C8    A    
C22   Br2   S    
C11   C27   S    
C37   H29   S    
O10   V2    S    
C6    C28   S    
C43   C44   S    
C13   C41   S    
O5    V1    S    
O7    V3    S    
O8    V4    S    
C24   Br4   S    
C38   H26   S    
C21   H21   S    
C2    O16   A    
C14   C30   S    
C37   H25   S    
O18   V4    S    
C15   H11   S    
H14   C18   S    
C9    H1    S    
C19   C35   S    
C24   C28   S    
C1    C32   S    
C23   Br3   S    
C48   H57   S    
O5    C1    A    
C3    C30   S    
C30   C34   S    
C13   H9    S    
O8    C4    A    
C4    C29   S    
C34   H38   S    
O9    C5    A    
C24   H24   S    
C45   C46   S    
O11   V3    S    
O14   V2    S    
C45   H55   S    
O6    V2    S    
C19   C27   S    
C24   C40   S    
H17   C33   S    
C12   H8    S    
C23   H23   S    
C48   H56   S    
C46   H51   S    
C44   H46   S    
O16   V4    S    
C17   C25   S    
C39   H31   S    
C3    O13   A    
C10   H2    S    
C17   H33   S    
O6    C2    A    
C2    C31   S    
C21   C37   S    
O12   V4    S    
C41   C42   S    
C14   H10   S    
C23   C39   S    
C9    H5    S    
C16   C32   S    
O20   V2    S    
C48   H58   S    
C32   C40   S    
C17   C33   S    
C43   H50   S    
H20   C36   S    
O10   C6    A    
C22   C26   S    
C42   H42   S    
C47   H59   S    
C29   C37   S    
C36   H40   S    
C11   H3    S    
C15   C45   S    
C12   C16   S    
C23   C27   S    
C20   C28   S    
C41   H45   S    
O4    V2    S    
C16   C47   S    
C16   H12   S    
C29   C33   S    
C4    O14   A    
C13   C29   S    
C21   Br1   S    
C12   C28   S    
C44   H47   S    
C42   H43   S    
