data_mof_unit_64824.cif
_audit_creation_date              2012-12-10T19:36:36-0500
_audit_creation_method            fapswitch 2.2
_symmetry_space_group_name_H-M    P1
_symmetry_Int_Tables_number       1
_space_group_crystal_system       triclinic
_cell_length_a                    30.605634
_cell_length_b                    30.577125
_cell_length_c                    24.672736
_cell_angle_alpha                 90.228884
_cell_angle_beta                  128.297985
_cell_angle_gamma                 90.011917
_cell_volume                      18120.3806259

loop_
_atom_site_label
_atom_site_type_symbol
_atom_type_description
_atom_site_fract_x
_atom_site_fract_y
_atom_site_fract_z
_atom_type_partial_charge
C1    C     C_R   0.809975 0.809979 0.500274 0.895800
C2    C     C_R   0.189939 0.809983 0.499572 0.898903
C3    C     C_R   0.309975 0.309979 0.500274 0.895801
C4    C     C_R   0.689939 0.309982 0.499572 0.898904
C5    C     C_R   0.645307 0.750001 0.289896 -0.030297
C6    C     C_R   0.355277 0.750104 0.710112 -0.031346
C7    C     C_R   0.145307 0.250001 0.289897 -0.030297
C8    C     C_R   0.855277 0.250104 0.710112 -0.031346
C9    C     C_R   0.466000 0.750123 0.930193 0.283384
C10   C     C_R   0.535936 0.750124 0.069817 0.283116
C11   C     C_R   0.966000 0.250123 0.930193 0.283384
C12   C     C_R   0.035936 0.250124 0.069817 0.283116
C13   C     C_R   0.894147 0.853343 0.559461 0.097598
C14   C     C_R   0.105351 0.852541 0.440410 0.099265
C15   C     C_R   0.394148 0.353342 0.559461 0.097599
C16   C     C_R   0.605351 0.352541 0.440410 0.099265
C17   C     C_R   0.841524 0.843402 0.499498 -0.099312
C18   C     C_R   0.158298 0.843431 0.500170 -0.100509
C19   C     C_R   0.341524 0.343402 0.499498 -0.099313
C20   C     C_R   0.658299 0.343431 0.500170 -0.100509
C21   C     C_R   0.815882 0.870491 0.441895 -0.245183
C22   C     C_R   0.184159 0.871408 0.557214 -0.250963
C23   C     C_R   0.315882 0.370491 0.441895 -0.245182
C24   C     C_R   0.684160 0.371408 0.557214 -0.250963
C25   C     C_R   0.846591 0.903714 0.440560 0.105129
C26   C     C_R   0.153497 0.904726 0.558403 0.108604
C27   C     C_R   0.346591 0.403715 0.440561 0.105130
C28   C     C_R   0.653497 0.404726 0.558403 0.108604
C29   C     C_R   0.903095 0.909716 0.499280 -0.148581
C30   C     C_R   0.096781 0.909940 0.500100 -0.140371
C31   C     C_R   0.403096 0.409716 0.499280 -0.148580
C32   C     C_R   0.596781 0.409940 0.500100 -0.140371
C33   C     C_R   0.924597 0.886166 0.559342 0.115574
C34   C     C_R   0.074925 0.885478 0.440376 0.116842
C35   C     C_R   0.424598 0.386165 0.559342 0.115575
C36   C     C_R   0.574925 0.385478 0.440376 0.116841
C37   C     C_3   0.977585 0.860871 0.604170 -0.447689
C38   C     C_3   0.022083 0.859606 0.396670 -0.451608
C39   C     C_3   0.477585 0.360869 0.604167 -0.447691
C40   C     C_3   0.522083 0.359606 0.396670 -0.451607
C41   C     C_3   0.943708 0.824554 0.604079 -0.499541
C42   C     C_3   0.055912 0.823177 0.396931 -0.497592
C43   C     C_3   0.443709 0.324552 0.604077 -0.499540
C44   C     C_3   0.555912 0.323177 0.396931 -0.497592
C45   C     C_R   0.682757 0.749966 0.365362 0.853717
C46   C     C_R   0.317372 0.750048 0.634643 0.862352
C47   C     C_R   0.182757 0.249966 0.365362 0.853717
C48   C     C_R   0.817372 0.250049 0.634643 0.862351
C49   C     C_R   0.836688 0.765879 0.746478 -0.189978
C50   C     C_R   0.162975 0.765575 0.253574 -0.192302
C51   C     C_R   0.336688 0.265879 0.746478 -0.189978
C52   C     C_R   0.662975 0.265575 0.253574 -0.192302
C53   C     C_R   0.872374 0.765472 0.818321 -0.161572
C54   C     C_R   0.127121 0.765216 0.181750 -0.160742
C55   C     C_R   0.372374 0.265472 0.818321 -0.161571
C56   C     C_R   0.627121 0.265216 0.181750 -0.160742
C57   C     C_R   0.926985 0.750000 0.854596 0.086528
C58   C     C_R   0.072370 0.749812 0.145404 0.087268
C59   C     C_R   0.426985 0.250000 0.854596 0.086528
C60   C     C_R   0.572370 0.249812 0.145404 0.087268
C61   C     C_R   0.945315 0.734617 0.818132 -0.162163
C62   C     C_R   0.054069 0.734430 0.181801 -0.160270
C63   C     C_R   0.445315 0.234617 0.818132 -0.162164
C64   C     C_R   0.554069 0.234430 0.181801 -0.160270
C65   C     C_R   0.909337 0.734341 0.746305 -0.193683
C66   C     C_R   0.090234 0.734105 0.253648 -0.197253
C67   C     C_R   0.409337 0.234341 0.746305 -0.193682
C68   C     C_R   0.590234 0.234105 0.253648 -0.197253
C69   C     C_R   0.854903 0.750122 0.710099 -0.028604
C70   C     C_R   0.144803 0.749849 0.289902 -0.031585
C71   C     C_R   0.354903 0.250122 0.710099 -0.028604
C72   C     C_R   0.644803 0.249849 0.289902 -0.031585
C73   C     C_R   0.034537 0.749802 0.069815 0.283357
C74   C     C_R   0.964733 0.749933 0.930185 0.283506
C75   C     C_R   0.534537 0.249802 0.069815 0.283357
C76   C     C_R   0.464733 0.249933 0.930185 0.283506
C77   C     C_R   0.681703 0.625451 0.550080 0.070460
C78   C     C_R   0.332130 0.612800 0.499862 0.052101
C79   C     C_R   0.181703 0.125451 0.550080 0.070460
C80   C     C_R   0.832130 0.112800 0.499860 0.052101
C81   C     C_R   0.656608 0.657910 0.500248 -0.127798
C82   C     C_R   0.345546 0.656894 0.504427 -0.157454
C83   C     C_R   0.156608 0.157910 0.500248 -0.127798
C84   C     C_R   0.845546 0.156894 0.504427 -0.157453
C85   C     C_R   0.598609 0.662074 0.455123 -0.260838
C86   C     C_R   0.396007 0.668597 0.518190 -0.180501
C87   C     C_R   0.098609 0.162074 0.455123 -0.260837
C88   C     C_R   0.896007 0.168597 0.518191 -0.180502
C89   C     C_R   0.689790 0.690034 0.499653 0.908562
C90   C     C_R   0.310135 0.689839 0.499910 0.889227
C91   C     C_R   0.189790 0.190034 0.499653 0.908562
C92   C     C_R   0.810135 0.189839 0.499910 0.889226
C93   C     C_R   0.565565 0.630166 0.454140 0.083765
C94   C     C_R   0.428208 0.636677 0.517702 0.076699
C95   C     C_R   0.065565 0.130167 0.454141 0.083764
C96   C     C_R   0.928209 0.136677 0.517704 0.076699
C97   C     C_R   0.591637 0.594905 0.500537 -0.095790
C98   C     C_R   0.409015 0.593077 0.502783 -0.115017
C99   C     C_R   0.091637 0.094905 0.500537 -0.095789
C100  C     C_R   0.909015 0.093077 0.502783 -0.115017
C101  C     C_R   0.649437 0.593981 0.549742 0.012495
C102  C     C_R   0.364469 0.581171 0.501156 -0.009868
C103  C     C_R   0.149437 0.093981 0.549741 0.012494
C104  C     C_R   0.864468 0.081171 0.501154 -0.009868
C105  C     C_3   0.690189 0.558318 0.567419 -0.173067
C106  C     C_3   0.315860 0.551719 0.452717 -0.128131
C107  C     C_3   0.190189 0.058317 0.567418 -0.173068
C108  C     C_3   0.815859 0.051719 0.452714 -0.128130
C109  C     C_3   0.726153 0.593631 0.568689 -0.089624
C110  C     C_3   0.279284 0.587385 0.449501 -0.078790
C111  C     C_3   0.226153 0.093631 0.568689 -0.089624
C112  C     C_3   0.779283 0.087386 0.449497 -0.078792
C113  C     C_R   0.439886 0.559736 0.500332 0.872078
C114  C     C_R   0.559858 0.560486 0.500070 0.888736
C115  C     C_R   0.939886 0.059736 0.500332 0.872079
C116  C     C_R   0.059858 0.060486 0.500070 0.888736
C117  C     C_R   0.939009 0.940350 0.499708 0.878164
C118  C     C_R   0.060942 0.940420 0.500072 0.874788
C119  C     C_R   0.439009 0.440350 0.499708 0.878164
C120  C     C_R   0.560942 0.440420 0.500072 0.874788
C121  C     C_R   0.817260 0.750043 0.634645 0.866924
C122  C     C_R   0.182646 0.749934 0.365352 0.853960
C123  C     C_R   0.317260 0.250043 0.634645 0.866924
C124  C     C_R   0.682646 0.249934 0.365352 0.853959
C125  C     C_R   0.611443 0.786339 0.253832 -0.196873
C126  C     C_R   0.389645 0.786398 0.746557 -0.196045
C127  C     C_R   0.111443 0.286339 0.253832 -0.196873
C128  C     C_R   0.889645 0.286398 0.746557 -0.196045
C129  C     C_R   0.576144 0.786550 0.182004 -0.161720
C130  C     C_R   0.425458 0.786559 0.818402 -0.160600
C131  C     C_R   0.076144 0.286550 0.182004 -0.161719
C132  C     C_R   0.925458 0.286559 0.818402 -0.160599
C133  C     C_R   0.573601 0.750119 0.145397 0.087055
C134  C     C_R   0.428001 0.750118 0.854613 0.087180
C135  C     C_R   0.073601 0.250119 0.145397 0.087055
C136  C     C_R   0.928001 0.250118 0.854613 0.087180
C137  C     C_R   0.607187 0.713643 0.181517 -0.161348
C138  C     C_R   0.393923 0.713680 0.818097 -0.160797
C139  C     C_R   0.107187 0.213643 0.181517 -0.161348
C140  C     C_R   0.893923 0.213680 0.818097 -0.160796
C141  C     C_R   0.643187 0.713740 0.253362 -0.192372
C142  C     C_R   0.357427 0.713828 0.746269 -0.189555
C143  C     C_R   0.143187 0.213740 0.253362 -0.192372
C144  C     C_R   0.857427 0.213828 0.746269 -0.189555
H1    H     H_    0.794715 0.778040 0.719414 0.155532
H2    H     H_    0.205044 0.777712 0.280661 0.154487
H3    H     H_    0.294715 0.278040 0.719414 0.155532
H4    H     H_    0.705044 0.277712 0.280661 0.154487
H5    H     H_    0.857448 0.777701 0.845438 0.148581
H6    H     H_    0.142042 0.777443 0.154708 0.148090
H7    H     H_    0.357448 0.277701 0.845438 0.148580
H8    H     H_    0.642042 0.277443 0.154708 0.148090
H9    H     H_    0.987220 0.722341 0.845080 0.148104
H10   H     H_    0.012051 0.722207 0.154777 0.148038
H11   H     H_    0.487219 0.222341 0.845080 0.148104
H12   H     H_    0.512051 0.222207 0.154777 0.148038
H13   H     H_    0.924258 0.722220 0.719122 0.153181
H14   H     H_    0.075356 0.722015 0.280813 0.153424
H15   H     H_    0.424258 0.222220 0.719122 0.153180
H16   H     H_    0.575356 0.222015 0.280813 0.153424
H17   H     H_    0.708739 0.542636 0.618016 0.167166
H18   H     H_    0.308771 0.544994 0.403435 0.179375
H19   H     H_    0.208738 0.042635 0.618015 0.167166
H20   H     H_    0.808771 0.044995 0.403431 0.179377
H21   H     H_    0.550382 0.814969 0.155154 0.148170
H22   H     H_    0.451580 0.814954 0.845564 0.147677
H23   H     H_    0.050383 0.314969 0.155154 0.148169
H24   H     H_    0.951580 0.314954 0.845564 0.147677
H25   H     H_    0.732042 0.590340 0.528638 0.184575
H26   H     H_    0.257348 0.577952 0.470576 0.172297
H27   H     H_    0.232042 0.090340 0.528637 0.184575
H28   H     H_    0.757346 0.077952 0.470571 0.172297
H29   H     H_    0.994922 0.851829 0.577190 0.197407
H30   H     H_    0.005286 0.851085 0.424399 0.197348
H31   H     H_    0.494922 0.351828 0.577187 0.197406
H32   H     H_    0.505286 0.351085 0.424399 0.197347
N1    N     N_R   0.518064 0.711890 0.034001 -0.177283
N2    N     N_R   0.483538 0.711890 0.965381 -0.176811
N3    N     N_R   0.018064 0.211890 0.034001 -0.177283
N4    N     N_R   0.983538 0.211890 0.965381 -0.176811
N5    N     N_R   0.484062 0.788358 0.966008 -0.177786
N6    N     N_R   0.518274 0.788358 0.034630 -0.177412
N7    N     N_R   0.984062 0.288358 0.966008 -0.177786
N8    N     N_R   0.018275 0.288358 0.034630 -0.177412
N9    N     N_R   0.020661 0.749799 0.965661 -0.177771
N10   N     N_R   0.978603 0.749773 0.034345 -0.177427
N11   N     N_R   0.520661 0.249799 0.965661 -0.177771
N12   N     N_R   0.478603 0.249773 0.034345 -0.177427
N13   N     N_R   0.054963 0.749889 0.034276 -0.177399
N14   N     N_R   0.944296 0.749990 0.965718 -0.177076
N15   N     N_R   0.554963 0.249889 0.034276 -0.177399
N16   N     N_R   0.444296 0.249991 0.965718 -0.177077
O1    O     O_R   0.821670 0.769930 0.500000 -0.623210
O2    O     O_R   0.178330 0.769930 0.500000 -0.621683
O3    O     O_R   0.321670 0.269930 0.500000 -0.623210
O4    O     O_R   0.678330 0.269930 0.500000 -0.621684
O5    O     O_R   0.482840 0.545830 0.557470 -0.624157
O6    O     O_R   0.517160 0.545830 0.442530 -0.604702
O7    O     O_R   0.982840 0.045830 0.557470 -0.624157
O8    O     O_R   0.017160 0.045830 0.442530 -0.604702
O9    O     O_R   0.925420 0.954200 0.442500 -0.600194
O10   O     O_R   0.074580 0.954200 0.557500 -0.598797
O11   O     O_R   0.425420 0.454200 0.442500 -0.600194
O12   O     O_R   0.574580 0.454200 0.557500 -0.598797
O13   O     O_R   0.982890 0.954220 0.557510 -0.623346
O14   O     O_R   0.017110 0.954220 0.442490 -0.624926
O15   O     O_R   0.482890 0.454220 0.557510 -0.623346
O16   O     O_R   0.517110 0.454220 0.442490 -0.624926
O17   O     O_R   0.769920 0.821660 0.500020 -0.619206
O18   O     O_R   0.230080 0.821660 0.499980 -0.618729
O19   O     O_R   0.269920 0.321660 0.500020 -0.619207
O20   O     O_R   0.730080 0.321660 0.499980 -0.618729
O21   O     O_R   0.724940 0.724130 0.398140 -0.623724
O22   O     O_R   0.275060 0.724130 0.601860 -0.621799
O23   O     O_R   0.224940 0.224130 0.398140 -0.623725
O24   O     O_R   0.775060 0.224130 0.601860 -0.621799
O25   O     O_R   0.673180 0.775850 0.398150 -0.626655
O26   O     O_R   0.326820 0.775850 0.601850 -0.623652
O27   O     O_R   0.173180 0.275850 0.398150 -0.626654
O28   O     O_R   0.826820 0.275850 0.601850 -0.623652
O29   O     O_R   0.730060 0.678320 0.499990 -0.622509
O30   O     O_R   0.269940 0.678320 0.500010 -0.628094
O31   O     O_R   0.230060 0.178320 0.499990 -0.622508
O32   O     O_R   0.769940 0.178320 0.500010 -0.628093
O33   O     O_R   0.678300 0.730040 0.500010 -0.620687
O34   O     O_R   0.321700 0.730040 0.499990 -0.625772
O35   O     O_R   0.178300 0.230040 0.500010 -0.620687
O36   O     O_R   0.821700 0.230040 0.499990 -0.625772
O37   O     O_R   0.826790 0.724120 0.601860 -0.618808
O38   O     O_R   0.173210 0.724120 0.398140 -0.629603
O39   O     O_R   0.326790 0.224120 0.601860 -0.618808
O40   O     O_R   0.673210 0.224120 0.398140 -0.629603
O41   O     O_R   0.775040 0.775850 0.601880 -0.623825
O42   O     O_R   0.224960 0.775850 0.398120 -0.620631
O43   O     O_R   0.275040 0.275850 0.601880 -0.623825
O44   O     O_R   0.724960 0.275850 0.398120 -0.620631
O45   O     O_R   0.425360 0.545810 0.442460 -0.624507
O46   O     O_R   0.574640 0.545810 0.557540 -0.632199
O47   O     O_R   0.925360 0.045810 0.442460 -0.624507
O48   O     O_R   0.074640 0.045810 0.557540 -0.632199
Zn1   Zn    Zn3+2 0.784540 0.715450 0.500000 0.953660
Zn2   Zn    Zn3+2 0.215460 0.715450 0.500000 0.942082
Zn3   Zn    Zn3+2 0.284540 0.215450 0.500000 0.953660
Zn4   Zn    Zn3+2 0.715460 0.215450 0.500000 0.942082
Zn5   Zn    Zn3+2 0.715430 0.784520 0.500010 0.956372
Zn6   Zn    Zn3+2 0.284570 0.784520 0.499990 0.953415
Zn7   Zn    Zn3+2 0.215430 0.284520 0.500010 0.956372
Zn8   Zn    Zn3+2 0.784570 0.284520 0.499990 0.953415
Zn9   Zn    Zn3+2 0.461590 0.500000 0.423210 0.964101
Zn10  Zn    Zn3+2 0.538410 0.500000 0.576790 0.956955
Zn11  Zn    Zn3+2 0.961590 0.000000 0.423210 0.964101
Zn12  Zn    Zn3+2 0.038410 0.000000 0.576790 0.956955
H33   H     H_    0.612676 0.814746 0.281131 0.154359
H34   H     H_    0.388419 0.814804 0.719553 0.153151
H35   H     H_    0.112676 0.314746 0.281131 0.154359
H36   H     H_    0.888419 0.314804 0.719553 0.153151
H37   H     H_    0.954249 0.819189 0.655517 0.202615
H38   H     H_    0.044891 0.816969 0.345341 0.203181
H39   H     H_    0.454250 0.319188 0.655515 0.202615
H40   H     H_    0.544891 0.316969 0.345341 0.203181
H41   H     H_    0.579032 0.688796 0.418586 0.157272
H42   H     H_    0.409502 0.702413 0.526814 0.179805
H43   H     H_    0.079032 0.188797 0.418587 0.157272
H44   H     H_    0.909503 0.202413 0.526817 0.179805
N17   N     N_3   0.506152 0.632884 0.404781 -0.447461
H45   H     H_    0.495323 0.631741 0.355429 0.192672
H46   H     H_    0.494012 0.663417 0.410471 0.179055
N18   N     N_3   0.478529 0.649399 0.529507 -0.460723
H47   H     H_    0.511642 0.632585 0.572680 0.201825
H48   H     H_    0.475630 0.639526 0.486842 0.189974
N19   N     N_3   0.006151 0.132884 0.404782 -0.447461
H49   H     H_    0.995322 0.131742 0.355430 0.192672
H50   H     H_    0.994013 0.163417 0.410473 0.179055
N20   N     N_3   0.978531 0.149399 0.529510 -0.460722
H51   H     H_    0.011643 0.132584 0.572684 0.201826
H52   H     H_    0.975632 0.139526 0.486846 0.189973
N21   N     N_3   0.668850 0.526622 0.511274 -0.452788
H53   H     H_    0.648895 0.542874 0.464154 0.201253
H54   H     H_    0.638716 0.507326 0.507097 0.179622
N22   N     N_3   0.317548 0.511942 0.486888 -0.451639
H55   H     H_    0.325086 0.519906 0.533343 0.199218
H56   H     H_    0.351628 0.493474 0.500170 0.180323
N23   N     N_3   0.168850 0.026622 0.511273 -0.452788
H57   H     H_    0.148895 0.042874 0.464153 0.201253
H58   H     H_    0.138716 0.007326 0.507097 0.179622
N24   N     N_3   0.817546 0.011942 0.486882 -0.451639
H59   H     H_    0.825082 0.019906 0.533337 0.199217
H60   H     H_    0.851626 0.993474 0.500165 0.180323
N25   N     N_3   0.778304 0.602267 0.637687 -0.442599
H61   H     H_    0.804211 0.575246 0.651792 0.192552
H62   H     H_    0.770928 0.604934 0.673721 0.193461
N26   N     N_3   0.242365 0.607361 0.380944 -0.448373
H63   H     H_    0.221310 0.633200 0.383418 0.205354
H64   H     H_    0.265676 0.620571 0.366989 0.192982
N27   N     N_3   0.278304 0.102266 0.637686 -0.442600
H65   H     H_    0.304210 0.075245 0.651791 0.192552
H66   H     H_    0.270928 0.104934 0.673720 0.193460
N28   N     N_3   0.742365 0.107362 0.380941 -0.448373
H67   H     H_    0.721311 0.133202 0.383415 0.205354
H68   H     H_    0.765677 0.120572 0.366987 0.192982
H69   H     H_    0.606078 0.685258 0.154282 0.148230
H70   H     H_    0.395005 0.685294 0.845020 0.148009
H71   H     H_    0.106078 0.185258 0.154282 0.148230
H72   H     H_    0.895005 0.185294 0.845020 0.148009
H73   H     H_    0.668882 0.685301 0.280294 0.154165
H74   H     H_    0.331368 0.685410 0.719042 0.154421
H75   H     H_    0.168882 0.185301 0.280294 0.154165
H76   H     H_    0.831368 0.185410 0.719042 0.154421
H77   H     H_    0.773022 0.864445 0.397214 0.141868
H78   H     H_    0.227212 0.866017 0.601632 0.141241
H79   H     H_    0.273021 0.364446 0.397215 0.141868
H80   H     H_    0.727212 0.366017 0.601632 0.141241
N29   N     N_3   0.821500 0.929551 0.379299 -0.419185
H81   H     H_    0.817313 0.961415 0.390836 0.190102
H82   H     H_    0.781253 0.918367 0.339776 0.180156
N30   N     N_3   0.178899 0.931518 0.619162 -0.421303
H83   H     H_    0.183834 0.962857 0.607043 0.183560
H84   H     H_    0.218876 0.920289 0.659027 0.176472
N31   N     N_3   0.321500 0.429553 0.379300 -0.419185
H85   H     H_    0.317313 0.461416 0.390839 0.190100
H86   H     H_    0.281251 0.418369 0.339778 0.180156
N32   N     N_3   0.678899 0.431518 0.619162 -0.421303
H87   H     H_    0.683834 0.462857 0.607044 0.183560
H88   H     H_    0.718876 0.420289 0.659028 0.176472
H89   H     H_    0.007711 0.876463 0.655694 0.209341
H90   H     H_    0.991512 0.874423 0.344901 0.210087
H91   H     H_    0.507712 0.376461 0.655693 0.209341
H92   H     H_    0.491512 0.374423 0.344901 0.210087
H93   H     H_    0.941226 0.794384 0.576944 0.216183
H94   H     H_    0.058911 0.793468 0.424919 0.216106
H95   H     H_    0.441225 0.294383 0.576940 0.216183
H96   H     H_    0.558911 0.293468 0.424919 0.216106

loop_
_geom_bond_atom_site_label_1
_geom_bond_atom_site_label_2
_ccdc_geom_bond_type
N32   H88   S    
C58   C62   A    
C55   C59   A    
C77   C101  A    
C136  C140  A    
C73   N10   A    
O30   Zn2   S    
C133  C137  A    
C108  H20   S    
C27   N31   S    
C92   O32   A    
C118  O14   A    
O25   Zn5   S    
C95   C99   A    
N19   H49   S    
C29   C33   A    
C100  C104  A    
N20   H51   S    
C15   C35   A    
C137  C141  A    
C40   H92   S    
C74   N14   A    
O31   Zn3   S    
C12   C135  S    
C45   O21   A    
C3    C19   S    
C140  H72   S    
C16   C44   S    
O28   Zn8   S    
C49   C69   A    
C72   C124  S    
O33   Zn5   S    
C130  C134  A    
C100  C115  S    
C51   C71   A    
C25   C29   A    
C41   H93   S    
C120  O16   A    
C28   C32   A    
C111  N27   S    
C99   C116  S    
C30   C34   A    
C98   C102  A    
C3    O3    A    
N30   H83   S    
N10   N14   A    
C135  C139  A    
N7    N8    A    
C38   H90   S    
C13   C33   A    
C52   C72   A    
C143  H75   S    
C78   C82   A    
C16   C20   A    
C80   C112  S    
C57   C61   A    
C124  O40   A    
C129  C133  A    
C122  O42   A    
N18   H48   S    
C10   N6    A    
N28   H67   S    
C4    O4    A    
C90   O34   A    
C84   C88   A    
C55   H7    S    
C83   C91   S    
C59   C63   A    
C60   C64   A    
O22   Zn2   S    
N26   H64   S    
C50   C70   A    
C11   C136  S    
N24   H60   S    
O6    Zn9   S    
O41   Zn5   S    
C66   C70   A    
C47   O27   A    
C49   C53   A    
C51   C55   A    
O15   Zn10  S    
C127  C131  A    
C108  N24   S    
C4    C20   S    
C61   C65   A    
C126  C130  A    
C1    O1    A    
C67   H15   S    
C68   H16   S    
C86   H42   S    
C115  O47   A    
N31   H86   S    
C96   N20   S    
O44   Zn8   S    
C75   N12   A    
O20   Zn8   S    
C7    C143  A    
N27   H66   S    
O29   Zn1   S    
C142  H74   S    
C25   N29   S    
C127  H35   S    
C64   C68   A    
C71   C123  S    
O8    Zn11  S    
C89   O29   A    
C141  H73   S    
N29   H82   S    
O19   Zn7   S    
C85   C93   A    
C8    C128  A    
C87   C95   A    
C116  O48   A    
C69   C121  S    
C139  H71   S    
C114  O46   A    
C74   N9    A    
C131  H23   S    
C52   H4    S    
N21   H53   S    
O46   Zn10  S    
C53   H5    S    
C79   C103  A    
C118  O10   A    
C109  H25   S    
C3    O19   A    
C121  O37   A    
C62   C66   A    
C1    O17   A    
N22   H55   S    
C39   H31   S    
C99   C103  A    
C40   H32   S    
C30   C118  S    
C115  O7    A    
C112  N28   S    
N3    N4    A    
C124  O44   A    
C75   N15   A    
C76   N16   A    
C125  C129  A    
C44   H40   S    
C70   C122  S    
C132  C136  A    
N25   H61   S    
C126  H34   S    
C77   C109  S    
N17   H46   S    
C107  H19   S    
C26   C30   A    
C120  O12   A    
C105  H17   S    
C24   H80   S    
O18   Zn6   S    
C87   H43   S    
C88   H44   S    
C21   C25   A    
C41   H37   S    
C54   H6    S    
C18   C22   A    
C10   N1    A    
C107  C111  S    
C24   C28   A    
C83   C87   A    
C14   C34   A    
C103  C107  S    
C32   C36   A    
N9    N13   A    
O36   Zn8   S    
C1    C17   S    
C13   C17   A    
N12   N16   A    
C15   C43   S    
C42   H38   S    
O13   Zn12  S    
C16   C36   A    
C96   C100  A    
C128  H36   S    
N20   H52   S    
C43   H95   S    
C9    N5    A    
O35   Zn7   S    
O7    Zn12  S    
C40   C44   S    
C106  N22   S    
C114  O6    A    
C5    C125  A    
N23   H57   S    
C84   C92   S    
C7    C127  A    
C97   C114  S    
C59   C76   S    
C81   C85   A    
O24   Zn4   S    
C28   N32   S    
C88   C96   A    
C46   O26   A    
C93   C97   A    
C78   C102  A    
C10   C133  S    
C80   C84   A    
C13   C41   S    
C109  N25   S    
N5    N6    A    
C15   C19   A    
C6    C142  A    
C50   C54   A    
N28   H68   S    
C80   C104  A    
C117  O13   A    
C106  C110  S    
C93   N17   S    
C94   C98   A    
C45   O25   A    
N30   H84   S    
C105  C109  S    
O11   Zn9   S    
O9    Zn11  S    
C47   O23   A    
C137  H69   S    
C56   H8    S    
O2    Zn2   S    
C81   C89   S    
C50   H2    S    
N32   H87   S    
C21   H77   S    
O1    Zn1   S    
O34   Zn6   S    
C119  O11   A    
C6    C126  A    
C65   H13   S    
C138  C142  A    
N27   H65   S    
C53   C57   A    
C98   C113  S    
C82   C86   A    
C5    C45   S    
C33   C37   S    
C56   C60   A    
C2    O2    A    
C7    C47   S    
C138  H70   S    
C35   C39   S    
C8    C48   S    
C37   H89   S    
O37   Zn1   S    
C130  H22   S    
C77   C81   A    
C49   H1    S    
O14   Zn11  S    
C31   C119  S    
C76   N11   A    
C123  O43   A    
C110  H26   S    
O48   Zn12  S    
C121  O41   A    
C27   C31   A    
O27   Zn7   S    
C91   O31   A    
O17   Zn5   S    
C104  C108  S    
C48   O28   A    
C44   H96   S    
C110  N26   S    
C91   O35   A    
O40   Zn4   S    
C107  N23   S    
C140  C144  A    
C89   O33   A    
C4    O20   A    
C95   N19   S    
C94   N18   S    
C60   C75   S    
O23   Zn3   S    
C82   C90   S    
C129  H21   S    
O21   Zn1   S    
O42   Zn6   S    
C79   C83   A    
O38   Zn2   S    
N29   H81   S    
C112  H28   S    
O3    Zn3   S    
O5    Zn10  S    
C65   C69   A    
C67   C71   A    
O16   Zn9   S    
C106  H18   S    
C17   C21   A    
C38   H30   S    
N31   H85   S    
C108  C112  S    
C123  O39   A    
N18   H47   S    
C92   O36   A    
N1    N2    A    
C22   C26   A    
C11   N4    A    
C73   N13   A    
C9    N2    A    
C144  H76   S    
C111  H27   S    
O10   Zn12  S    
C48   O24   A    
C2    C18   S    
C105  N21   S    
C14   C18   A    
C19   C23   A    
C43   H39   S    
O4    Zn4   S    
O26   Zn6   S    
N26   H63   S    
N22   H56   S    
C90   O30   A    
C131  C135  A    
N24   H59   S    
C116  O8    A    
C86   C94   A    
C26   N30   S    
C20   C24   A    
C46   O22   A    
C23   H79   S    
C23   C27   A    
N17   H45   S    
N11   N15   A    
C68   C72   A    
C14   C42   S    
O12   Zn10  S    
C9    C134  S    
C113  O45   A    
C37   C41   S    
O45   Zn9   S    
C139  C143  A    
C32   C120  S    
C117  O9    A    
C128  C132  A    
O43   Zn7   S    
C101  C105  S    
C122  O38   A    
C63   C67   A    
C2    O18   A    
O47   Zn11  S    
C36   C40   S    
C11   N7    A    
C39   H91   S    
O32   Zn4   S    
C39   C43   S    
C29   C117  S    
C62   H10   S    
C57   C74   S    
O39   Zn3   S    
C5    C141  A    
C51   H3    S    
C78   C110  S    
C125  H33   S    
C12   N8    A    
N21   H54   S    
C119  O15   A    
C66   H14   S    
C54   C58   A    
N19   H50   S    
C6    C46   S    
C34   C38   S    
C132  H24   S    
C85   H41   S    
C61   H9    S    
C134  C138  A    
C64   H12   S    
C22   H78   S    
C79   C111  S    
C63   H11   S    
N25   H62   S    
C102  C106  S    
C31   C35   A    
C42   H94   S    
C37   H29   S    
C8    C144  A    
C38   C42   S    
C12   N3    A    
C113  O5    A    
C97   C101  A    
C52   C56   A    
C58   C73   S    
N23   H58   S    
