data_mof_unit_51793.cif
_audit_creation_date              2012-12-10T18:45:03-0500
_audit_creation_method            fapswitch 2.2
_symmetry_space_group_name_H-M    P1
_symmetry_Int_Tables_number       1
_space_group_crystal_system       triclinic
_cell_length_a                    10.708998
_cell_length_b                    9.812003
_cell_length_c                    10.617293
_cell_angle_alpha                 90.043354
_cell_angle_beta                  90.127266
_cell_angle_gamma                 89.99226
_cell_volume                      1115.62724762

loop_
_atom_site_label
_atom_site_type_symbol
_atom_type_description
_atom_site_fract_x
_atom_site_fract_y
_atom_site_fract_z
_atom_type_partial_charge
C1    C     C_R   0.259811 0.499993 0.499964 0.861664
C2    C     C_R   0.740182 0.499970 0.500015 0.862168
C3    C     C_R   0.935941 0.620687 0.471933 -0.205154
C4    C     C_R   0.063856 0.620764 0.472191 -0.193869
C5    C     C_R   0.565281 0.072086 0.589200 -0.078912
C6    C     C_R   0.434742 0.071954 0.410782 -0.076607
C7    C     C_R   0.565315 0.928005 0.589174 -0.098683
C8    C     C_R   0.434707 0.927873 0.410808 -0.099461
C9    C     C_R   0.513717 0.500271 0.259998 0.874312
C10   C     C_R   0.486290 0.500395 0.740021 0.873645
C11   C     C_R   0.585487 0.749429 0.102588 0.198653
C12   C     C_R   0.417329 0.750579 0.898003 0.193771
C13   C     C_R   0.545788 0.872831 0.049042 -0.219266
C14   C     C_R   0.458458 0.873431 0.951689 -0.220613
C15   C     C_R   0.470234 0.626030 0.941902 0.030635
C16   C     C_R   0.531313 0.625604 0.058361 0.030010
C17   C     C_R   0.529877 0.501018 0.125597 -0.128616
C18   C     C_R   0.470242 0.501422 0.874459 -0.129218
C19   C     C_R   0.511541 0.377226 0.063128 -0.205543
C20   C     C_R   0.487194 0.377393 0.936759 -0.207436
C21   C     C_R   0.064015 0.379541 0.528084 -0.198671
C22   C     C_R   0.936132 0.379500 0.527968 -0.190773
C23   C     C_R   0.872565 0.500046 0.499888 -0.010153
C24   C     C_R   0.127416 0.500131 0.500146 -0.012146
H1    H     H_    0.514533 0.280203 0.111786 0.161807
H2    H     H_    0.483034 0.280416 0.887972 0.161382
H3    H     H_    0.581291 0.969089 0.083975 0.148992
H4    H     H_    0.423972 0.970167 0.916957 0.148316
H5    H     H_    0.112865 0.285958 0.550760 0.157091
H6    H     H_    0.887410 0.285909 0.550643 0.154709
H7    H     H_    0.617443 0.126868 0.660411 0.127310
H8    H     H_    0.382606 0.126632 0.339554 0.129703
H9    H     H_    0.617354 0.873276 0.660448 0.142401
H10   H     H_    0.382661 0.873039 0.339534 0.139790
N1    N     N_R   0.500000 0.857200 0.500000 -0.090669
N2    N     N_R   0.500000 0.142810 0.500000 -0.078025
O1    O     O_R   0.316770 0.614620 0.499990 -0.632400
O2    O     O_R   0.683230 0.614620 0.500010 -0.631665
O3    O     O_R   0.316800 0.385290 0.500000 -0.622536
O4    O     O_R   0.683200 0.385290 0.500000 -0.622519
O5    O     O_R   0.500010 0.614690 0.316770 -0.627838
O6    O     O_R   0.499990 0.614690 0.683230 -0.626628
O7    O     O_R   0.500040 0.385360 0.316770 -0.619329
O8    O     O_R   0.499960 0.385360 0.683230 -0.621337
Zn1   Zn    Zn3+2 0.500000 0.653120 0.500000 0.920257
Zn2   Zn    Zn3+2 0.500000 0.346880 0.500000 0.938949
C25   C     C_3   0.694265 0.752359 0.194723 -0.360410
C26   C     C_3   0.812674 0.808455 0.133637 -0.910422
H11   H     H_    0.800493 0.916989 0.106855 0.258874
H12   H     H_    0.836586 0.747947 0.048531 0.269879
H13   H     H_    0.891551 0.801712 0.201456 0.250767
H14   H     H_    0.669630 0.816293 0.277442 0.223584
H15   H     H_    0.717797 0.648707 0.228930 0.200318
C27   C     C_3   0.308294 0.754952 0.806238 -0.352322
C28   C     C_3   0.190744 0.812782 0.867736 -0.907850
H16   H     H_    0.166523 0.752889 0.953033 0.268048
H17   H     H_    0.111555 0.806829 0.800218 0.256355
H18   H     H_    0.204193 0.921241 0.894288 0.256754
H19   H     H_    0.333382 0.818470 0.723488 0.224407
H20   H     H_    0.283470 0.651587 0.772062 0.201355
H21   H     H_    0.887046 0.714224 0.449167 0.157904
H22   H     H_    0.112598 0.714377 0.449636 0.155260

loop_
_geom_bond_atom_site_label_1
_geom_bond_atom_site_label_2
_ccdc_geom_bond_type
C8    H10   S    
C15   C18   A    
C6    H8    S    
C28   H16   S    
N2    Zn2   S    
C25   H14   S    
O1    Zn1   S    
C2    O4    A    
C10   O6    A    
C11   C13   A    
C11   C16   A    
C2    O2    A    
C11   C25   S    
C19   C20   A    
C12   C15   A    
C1    O1    A    
C25   H15   S    
C26   H12   S    
C28   H17   S    
C27   H20   S    
C21   C22   A    
O8    Zn2   S    
O4    Zn2   S    
C7    H9    S    
C20   H2    S    
C10   C18   S    
O3    Zn2   S    
C4    C24   A    
C7    N1    A    
C26   H11   S    
C17   C19   A    
C6    N2    A    
C18   C20   A    
C27   H19   S    
C3    H21   S    
C19   H1    S    
O7    Zn2   S    
C21   H5    S    
C21   C24   A    
C9    O7    A    
C15   C16   A    
C1    O3    A    
C10   O8    A    
C3    C4    A    
N1    Zn1   S    
C5    N2    A    
C4    H22   S    
C1    C24   S    
C28   H18   S    
C9    C17   S    
C2    C23   S    
C5    C7    A    
O5    Zn1   S    
C27   C28   S    
C13   H3    S    
O2    Zn1   S    
C6    C8    A    
C22   H6    S    
C13   C14   A    
C14   H4    S    
C3    C23   A    
C22   C23   A    
C9    O5    A    
C8    N1    A    
C26   H13   S    
C12   C27   S    
C25   C26   S    
C12   C14   A    
C16   C17   A    
C5    H7    S    
O6    Zn1   S    
