data_mof_unit_6611.cif
_audit_creation_date              2012-12-11T20:46:38-0500
_audit_creation_method            fapswitch 2.2
_symmetry_space_group_name_H-M    P1
_symmetry_Int_Tables_number       1
_space_group_crystal_system       triclinic
_cell_length_a                    8.26111
_cell_length_b                    18.755675
_cell_length_c                    18.979454
_cell_angle_alpha                 101.397185
_cell_angle_beta                  94.170931
_cell_angle_gamma                 91.485376
_cell_volume                      2872.661411

loop_
_atom_site_label
_atom_site_type_symbol
_atom_type_description
_atom_site_fract_x
_atom_site_fract_y
_atom_site_fract_z
_atom_type_partial_charge
Ba1   Ba    Ba6+2 0.153490 0.533960 0.468530 1.650820
Ba2   Ba    Ba6+2 0.656680 0.466030 0.531410 1.650356
C1    C     C_3   0.347050 0.715017 0.212058 -0.166909
C2    C     C_3   0.388875 0.696135 0.286135 0.371886
C3    C     C_3   0.336681 0.695011 0.726147 0.233168
C4    C     C_3   0.388114 0.754317 0.792211 -0.213143
C5    C     C_3   0.958139 0.281672 0.734879 0.454319
C6    C     C_3   0.917908 0.227047 0.781481 -0.313107
C7    C     C_3   0.420256 0.314150 0.711438 0.398642
C8    C     C_3   0.425440 0.291721 0.784255 -0.368593
C9    C     C_R   0.013637 0.948226 0.521043 0.006559
C10   C     C_R   0.099704 0.901631 0.558887 -0.082152
C11   C     C_R   0.234408 0.044685 0.547535 -0.101505
C12   C     C_3   0.919419 0.730032 0.322285 0.384904
C13   C     C_R   0.075676 0.019515 0.518943 0.024256
C14   C     C_R   0.289373 0.115867 0.550252 -0.084229
C15   C     C_R   0.189399 0.165619 0.524333 -0.010111
C16   C     C_R   0.034047 0.140942 0.490315 0.005777
C17   C     C_R   0.977689 0.067281 0.486498 -0.006029
C18   C     C_R   0.240302 0.239373 0.531325 -0.013121
C19   C     C_R   0.134027 0.288226 0.507692 -0.269233
C20   C     C_R   0.983794 0.264891 0.470475 0.086992
C21   C     C_R   0.936004 0.189620 0.459294 -0.045428
C22   C     C_R   0.856192 0.924229 0.488731 0.015367
C23   C     C_3   0.957136 0.803046 0.302192 -0.377967
C24   C     C_R   0.792112 0.853262 0.492673 0.002650
C25   C     C_R   0.886444 0.805993 0.527447 -0.057864
C26   C     C_R   0.036859 0.833235 0.562589 -0.016367
C27   C     C_R   0.798430 0.160497 0.414764 -0.062471
C28   C     C_R   0.747399 0.087217 0.406596 0.118071
C29   C     C_R   0.825015 0.041820 0.449556 0.025733
C30   C     C_R   0.759827 0.971579 0.454872 0.030522
C31   C     C_R   0.596230 0.949207 0.432992 -0.077573
C32   C     C_R   0.632072 0.830588 0.463612 -0.063698
C33   C     C_R   0.535676 0.879957 0.435139 -0.114618
C34   C     C_3   0.802578 0.380019 0.312036 0.282005
C35   C     C_R   0.567775 0.761556 0.469298 -0.001881
C36   C     C_R   0.656286 0.718193 0.509808 -0.086236
C37   C     C_R   0.821655 0.735738 0.532120 -0.037924
C38   C     C_2   0.591652 0.530225 0.303739 -0.284515
C39   C     C_3   0.677383 0.579195 0.262786 -0.043041
C40   C     C_2   0.632785 0.562641 0.182851 -0.173112
C41   C     C_2   0.503698 0.517870 0.154218 -0.055493
C42   C     C_2   0.416608 0.477499 0.202661 0.079609
C43   C     C_1   0.464291 0.487650 0.273509 0.068027
C44   C     C_R   0.346004 0.499897 0.933823 0.446383
C45   C     C_3   0.818379 0.368030 0.230801 -0.201874
C46   C     C_R   0.448765 0.510313 0.075793 0.470984
C47   C     C_R   0.385965 0.525238 0.810511 -0.143329
C48   C     C_R   0.333246 0.520366 0.737807 0.003933
C49   C     C_R   0.088967 0.452724 0.754244 -0.015214
C50   C     C_R   0.139354 0.458866 0.827534 -0.155999
C51   C     C_R   0.290009 0.494279 0.856338 -0.045570
C52   C     C_R   0.187462 0.482712 0.709913 -0.237326
C53   C     C_3   0.876070 0.713871 0.706313 0.328718
C54   C     C_3   0.891473 0.797121 0.710247 -0.146191
C55   C     C_3   0.346901 0.301685 0.349069 0.404469
C56   C     C_3   0.425665 0.228230 0.324670 -0.126421
H1    H     H_    0.344946 0.639035 0.283344 0.043654
H2    H     H_    0.788839 0.419162 0.212407 0.085525
H3    H     H_    0.946157 0.355715 0.219835 0.110021
H4    H     H_    0.751794 0.693789 0.685813 0.068268
H5    H     H_    0.835417 0.809147 0.659909 0.058637
H6    H     H_    0.021751 0.815635 0.716596 0.073338
H7    H     H_    0.408228 0.327367 0.402428 0.070256
H8    H     H_    0.215585 0.702757 0.196618 0.129639
H9    H     H_    0.443246 0.203281 0.372930 0.037742
H10   H     H_    0.547560 0.238395 0.306745 0.104520
H11   H     H_    0.521919 0.700683 0.298080 -0.062339
H12   H     H_    0.414164 0.679395 0.171112 0.055749
H13   H     H_    0.279276 0.721797 0.684123 0.072615
H14   H     H_    0.245007 0.657358 0.741071 0.011456
H15   H     H_    0.487002 0.789490 0.778830 0.141434
H16   H     H_    0.283320 0.788944 0.806084 0.057378
H17   H     H_    0.886876 0.845907 0.334072 0.073359
H18   H     H_    0.070115 0.312430 0.761271 -0.023796
H19   H     H_    0.806166 0.193934 0.758262 0.122130
H20   H     H_    0.020163 0.190232 0.784864 0.076442
H21   H     H_    0.897711 0.256350 0.836789 0.088803
H22   H     H_    0.292424 0.324389 0.695221 -0.091776
H23   H     H_    0.495259 0.365320 0.717378 0.093381
H24   H     H_    0.377295 0.335411 0.824723 0.070392
H25   H     H_    0.552464 0.282317 0.802492 0.140783
H26   H     H_    0.973032 0.731302 0.377892 0.081913
H27   H     H_    0.350007 0.240956 0.780105 0.109523
H28   H     H_    0.171981 0.345058 0.515375 0.070402
H29   H     H_    0.411547 0.131240 0.573597 0.104895
H30   H     H_    0.107747 0.802993 0.595605 0.076078
H31   H     H_    0.733760 0.193299 0.382527 0.081201
H32   H     H_    0.408813 0.867425 0.417895 0.105998
H33   H     H_    0.321396 0.010391 0.567762 0.066394
H34   H     H_    0.214897 0.917195 0.589018 0.052374
H35   H     H_    0.785683 0.723719 0.321645 -0.095226
H36   H     H_    0.507765 0.985817 0.418190 0.104137
H37   H     H_    0.697171 0.593383 0.149988 0.104384
H38   H     H_    0.500295 0.553798 0.831197 0.082350
H39   H     H_    0.061328 0.436005 0.861555 0.093122
H40   H     H_    0.624816 0.538211 0.361211 0.089600
H41   H     H_    0.146894 0.479514 0.653820 0.071106
H42   H     H_    0.087337 0.819026 0.314406 0.146823
H43   H     H_    0.924353 0.800198 0.243922 0.111254
H44   H     H_    0.678035 0.394701 0.324102 -0.006828
H45   H     H_    0.887611 0.426231 0.337141 0.081448
N1    N     N_R   0.493604 0.531262 0.960857 -0.250478
N2    N     N_R   0.543686 0.536413 0.030167 -0.256395
N3    N     N_R   0.300983 0.479228 0.048688 -0.209398
N4    N     N_R   0.250883 0.473946 0.979364 -0.246188
O1    O     O_2   0.117290 0.676350 0.548250 -0.452537
O2    O     O_3   0.363897 0.345053 0.298079 -0.670529
O3    O     O_3   0.983344 0.673181 0.273282 -0.586382
O4    O     O_2   0.693010 0.323600 0.451730 -0.470519
O5    O     O_3   0.941240 0.413050 0.457220 -0.497142
O6    O     O_3   0.453310 0.371360 0.582690 -0.480182
O7    O     O_3   0.837999 0.316059 0.336881 -0.657122
O8    O     O_3   0.371310 0.539060 0.587050 -0.441434
O9    O     O_3   0.867330 0.408540 0.621000 -0.457077
O10   O     O_2   0.755648 0.460943 0.747672 -0.484894
O11   O     O_3   0.825501 0.326731 0.730849 -0.579416
O12   O     O_3   0.869060 0.586940 0.542720 -0.446825
O13   O     O_3   0.438990 0.460930 0.412890 -0.480497
O14   O     O_2   0.623700 0.539890 0.674570 -0.438649
O15   O     O_3   0.475226 0.661346 0.698845 -0.659097
O16   O     O_2   0.581973 0.244760 0.531660 -0.483843
O17   O     O_3   0.482832 0.258684 0.660882 -0.586911
O18   O     O_3   0.356990 0.628630 0.417250 -0.452669
O19   O     O_2   0.232023 0.753531 0.469361 -0.492903
O20   O     O_3   0.991306 0.676113 0.662521 -0.652341
O21   O     O_3   0.313442 0.743359 0.339346 -0.612087
O22   O     O_2   0.186600 0.460070 0.325400 -0.480309
O23   O     O_3   0.942970 0.591450 0.378940 -0.479715
O24   O     O_2   0.001153 0.530461 0.245546 -0.491426
P1    P     P_3+3 0.945300 0.665790 0.568510 0.989000
P2    P     P_3+3 0.360080 0.438780 0.334620 0.955266
P3    P     P_3+3 0.901276 0.590813 0.287886 0.953959
P4    P     P_3+3 0.865000 0.334200 0.431430 0.968450
P5    P     P_3+3 0.888530 0.411681 0.714496 0.962636
P6    P     P_3+3 0.369377 0.722764 0.423497 0.948797
P7    P     P_3+3 0.445031 0.566658 0.677763 0.951951
P8    P     P_3+3 0.440320 0.277308 0.574784 0.963561
C57   C     C_3   0.704623 0.306113 0.188653 -0.218785
C58   C     C_3   0.707634 0.301134 0.107570 -0.430697
H46   H     H_    0.665804 0.352367 0.092551 0.151387
H47   H     H_    0.832512 0.291193 0.090838 0.142346
H48   H     H_    0.625120 0.255420 0.078456 0.124480
H49   H     H_    0.741394 0.253492 0.202126 0.139662
H50   H     H_    0.579086 0.316002 0.203736 0.134208
C59   C     C_3   0.908908 0.698635 0.783301 -0.196401
C60   C     C_3   0.897466 0.618272 0.786464 -0.330784
H51   H     H_    0.946093 0.584310 0.738742 0.146897
H52   H     H_    0.967842 0.609006 0.835745 0.093917
H53   H     H_    0.769131 0.601724 0.789850 0.147848
H54   H     H_    0.031883 0.720867 0.805655 0.086628
H55   H     H_    0.820495 0.726212 0.819804 0.103538
N5    N     N_3   0.805343 0.838481 0.768740 -0.525783
H56   H     H_    0.781906 0.889496 0.756730 0.180017
H57   H     H_    0.883906 0.848860 0.815707 0.171785
N6    N     N_3   0.176389 0.290734 0.356520 -0.536470
H58   H     H_    0.115049 0.275354 0.305400 0.192085
H59   H     H_    0.139674 0.342869 0.376453 0.167287
C61   C     C_3   0.328398 0.172082 0.265066 -0.215558
C62   C     C_3   0.308945 0.195260 0.192255 -0.384090
H60   H     H_    0.240145 0.245593 0.195567 0.152425
H61   H     H_    0.429612 0.203523 0.172489 0.124370
H62   H     H_    0.240655 0.151503 0.152396 0.109479
H63   H     H_    0.394085 0.120587 0.256932 0.101628
H64   H     H_    0.207434 0.159009 0.282381 0.116924
C63   C     C_3   0.445459 0.721485 0.857111 -0.177608
C64   C     C_3   0.501843 0.780742 0.922206 -0.423388
H65   H     H_    0.605416 0.813669 0.909420 0.136657
H66   H     H_    0.400768 0.816892 0.938196 0.130139
H67   H     H_    0.542158 0.755309 0.968264 0.133447
H68   H     H_    0.344367 0.688289 0.871710 0.103641
H69   H     H_    0.547930 0.685574 0.843181 0.123287
C65   C     C_3   0.384480 0.795135 0.209341 -0.187328
C66   C     C_3   0.564905 0.816572 0.224075 -0.406005
H70   H     H_    0.603946 0.818114 0.281509 0.141698
H71   H     H_    0.637803 0.777453 0.188941 0.128142
H72   H     H_    0.587131 0.871794 0.212978 0.126085
H73   H     H_    0.343852 0.803737 0.154625 0.101816
H74   H     H_    0.315207 0.831694 0.248530 0.136310
N7    N     N_3   0.988454 0.242507 0.662940 -0.504076
H75   H     H_    0.022299 0.281141 0.633609 0.135878
H76   H     H_    0.879371 0.217402 0.637211 0.206396
N8    N     N_3   0.572514 0.658292 0.531095 -0.423545
H77   H     H_    0.629139 0.646511 0.577769 0.169438
H78   H     H_    0.462347 0.676911 0.549976 0.193159
N9    N     N_3   0.628330 0.057911 0.348796 -0.520352
H79   H     H_    0.668038 0.068878 0.300798 0.167213
H80   H     H_    0.520610 0.084562 0.358945 0.161694
N10   N     N_3   0.298480 0.421050 0.168997 -0.481365
H81   H     H_    0.187775 0.430050 0.191615 0.222417
H82   H     H_    0.339688 0.370467 0.175295 0.176785

loop_
_geom_bond_atom_site_label_1
_geom_bond_atom_site_label_2
_ccdc_geom_bond_type
C53   C54   S    
C8    H27   S    
N10   H81   S    
O13   P2    S    
C32   C35   A    
C39   C40   S    
C8    H25   S    
O17   P8    S    
C59   C60   S    
C60   H53   S    
C12   H26   S    
C41   C42   S    
O24   P3    D    
C17   C29   A    
C31   H36   S    
C15   C18   A    
C27   H31   S    
C62   H60   S    
C5    C6    S    
C66   H71   S    
N7    H75   S    
C42   C43   D    
C13   C17   A    
Ba2   O5    S    
C24   C25   A    
N6    H58   S    
C10   C26   A    
C34   H45   S    
C21   C27   A    
C18   P8    S    
C35   C36   A    
C60   H52   S    
C32   C33   A    
C3    H14   S    
Ba1   O22   S    
C58   H47   S    
Ba1   O5    S    
C38   H40   S    
C28   C29   A    
Ba2   O6    S    
N3    N4    A    
C53   H4    S    
O16   P8    D    
C9    C22   A    
C7    O17   S    
C36   N8    S    
N8    H77   S    
C44   C51   S    
C34   C45   S    
C34   H44   S    
Ba1   Ba2   S    
Ba1   O12   S    
O20   P1    S    
N1    N2    A    
C23   H42   S    
C42   N10   S    
C45   H2    S    
C65   C66   S    
C9    C13   A    
C24   C32   A    
C64   H67   S    
C46   N3    A    
C66   H70   S    
C25   C37   A    
C14   C15   A    
C45   C57   S    
C26   H30   S    
C14   H29   S    
O7    P4    S    
C54   H6    S    
C61   H64   S    
C7    C8    S    
C12   H35   S    
N5    H57   S    
C63   H69   S    
Ba1   P1    S    
C64   H66   S    
C59   H55   S    
C34   O7    S    
N6    H59   S    
C35   P6    S    
C19   C20   A    
C11   H33   S    
C6    H20   S    
C5    O11   S    
O23   P3    S    
Ba2   O9    S    
Ba1   P2    S    
C2    H11   S    
C62   H61   S    
C4    H16   S    
C66   H72   S    
N7    H76   S    
C38   C43   D    
C55   O2    S    
Ba2   O4    S    
O1    P1    D    
C5    N7    S    
O2    P2    S    
C40   H37   S    
C1    H12   S    
C36   C37   A    
C57   C58   S    
O15   P7    S    
C54   N5    S    
Ba1   O23   S    
C58   H48   S    
C57   H50   S    
C63   C64   S    
C2    O21   S    
C16   C17   A    
O18   P6    S    
C44   N1    A    
C3    O15   S    
C8    H24   S    
C49   C50   A    
C23   H17   S    
Ba1   O13   S    
O14   P7    D    
O21   P6    S    
C22   C30   A    
C27   C28   A    
C6    H21   S    
C50   H39   S    
Ba2   O8    S    
C1    C65   S    
C53   C59   S    
C46   N2    A    
O8    P7    S    
Ba2   O12   S    
O19   P6    D    
C55   H7    S    
C44   N4    A    
O6    P8    S    
O12   P1    S    
C54   H5    S    
C48   C52   A    
C61   H63   S    
C60   H51   S    
N5    H56   S    
C5    H18   S    
O22   P2    D    
C47   H38   S    
C56   H10   S    
C38   C39   S    
C53   O20   S    
C11   C13   A    
C6    H19   S    
C52   H41   S    
O3    P3    S    
C1    H8    S    
C40   C41   D    
O5    P4    S    
C1    C2    S    
C65   H74   S    
C49   P5    S    
C62   H62   S    
O11   P5    S    
C50   C51   A    
C4    H15   S    
C41   C46   S    
Ba2   O14   S    
C12   O3    S    
C55   N6    S    
C19   H28   S    
C64   H65   S    
N10   H82   S    
C10   H34   S    
C29   C30   A    
C22   C24   A    
C57   H49   S    
C45   H3    S    
C9    C10   A    
C48   P7    S    
C63   H68   S    
O9    P5    S    
C43   P2    S    
Ba2   P4    S    
C15   C16   A    
C20   P4    S    
Ba1   O18   S    
C49   C52   A    
C30   C31   A    
C59   H54   S    
N9    H79   S    
C3    H13   S    
C56   C61   S    
C58   H46   S    
C61   C62   S    
C23   H43   S    
C55   C56   S    
C3    C4    S    
C16   C21   A    
C47   C51   A    
C2    H1    S    
C31   C33   A    
N8    H78   S    
C39   P3    S    
C12   C23   S    
O4    P4    D    
N9    H80   S    
Ba1   O1    S    
C33   H32   S    
C56   H9    S    
C18   C19   A    
C47   C48   A    
C37   P1    S    
C11   C14   A    
C25   C26   A    
C20   C21   A    
C28   N9    S    
Ba1   O8    S    
Ba2   O13   S    
C4    C63   S    
O10   P5    D    
C65   H73   S    
C7    H22   S    
C7    H23   S    
