data_mof_unit_27973.cif
_audit_creation_date              2012-12-10T21:31:11-0500
_audit_creation_method            fapswitch 2.2
_symmetry_space_group_name_H-M    P1
_symmetry_Int_Tables_number       1
_space_group_crystal_system       triclinic
_cell_length_a                    14.933421
_cell_length_b                    16.186073
_cell_length_c                    16.68425
_cell_angle_alpha                 88.375782
_cell_angle_beta                  92.195937
_cell_angle_gamma                 91.367273
_cell_volume                      4027.17961372

loop_
_atom_site_label
_atom_site_type_symbol
_atom_type_description
_atom_site_fract_x
_atom_site_fract_y
_atom_site_fract_z
_atom_type_partial_charge
C1    C     C_R   0.497109 0.489789 0.653273 0.977565
C2    C     C_R   0.500602 0.510789 0.346805 0.975576
C3    C     C_R   0.966516 0.530987 0.647088 0.440403
C4    C     C_R   0.033469 0.457017 0.361603 0.428864
C5    C     C_R   0.477566 0.488289 0.738199 -0.188643
C6    C     C_R   0.490620 0.518937 0.260186 -0.144552
C7    C     C_R   0.490243 0.561975 0.778753 -0.185963
C8    C     C_R   0.519647 0.457431 0.211229 -0.256761
C9    C     C_R   0.451667 0.573440 0.851352 0.287721
C10   C     C_R   0.507073 0.465447 0.128212 0.314857
C11   C     C_R   0.409898 0.504564 0.891361 0.077256
C12   C     C_R   0.457067 0.532284 0.095023 0.099918
C13   C     C_R   0.395099 0.430243 0.849515 0.435988
C14   C     C_R   0.424110 0.591899 0.145416 0.403848
C15   C     C_R   0.429012 0.422842 0.773115 -0.302317
C16   C     C_R   0.446463 0.587366 0.226712 -0.192460
C17   C     C_R   0.439725 0.748528 0.466654 -0.204156
C18   C     C_R   0.551204 0.251709 0.544056 -0.197008
C19   C     C_R   0.425443 0.834024 0.459347 0.432571
C20   C     C_R   0.562490 0.166086 0.555895 0.420327
C21   C     C_R   0.487797 0.889580 0.494057 0.164847
C22   C     C_R   0.511134 0.110569 0.509354 0.170417
C23   C     C_R   0.672802 0.498491 0.506534 0.979168
C24   C     C_R   0.326923 0.501141 0.496457 0.971564
C25   C     C_R   0.562259 0.856591 0.537409 -0.368847
C26   C     C_R   0.447132 0.143476 0.453619 -0.383510
C27   C     C_R   0.573121 0.770091 0.544897 0.544570
C28   C     C_R   0.436343 0.229884 0.444636 0.528106
C29   C     C_R   0.179995 0.497671 0.423227 0.393434
C30   C     C_R   0.818592 0.496438 0.583062 0.434546
C31   C     C_R   0.231270 0.503172 0.495312 -0.186207
C32   C     C_R   0.768283 0.495053 0.509928 -0.167389
C33   C     C_R   0.191996 0.509968 0.568636 -0.248494
C34   C     C_R   0.808412 0.486626 0.437219 -0.227271
C35   C     C_R   0.099560 0.511167 0.572240 0.003818
C36   C     C_R   0.900498 0.481445 0.434820 0.003309
C37   C     C_R   0.046555 0.496644 0.501909 -0.091386
C38   C     C_R   0.953153 0.495011 0.505564 -0.091124
C39   C     C_R   0.087111 0.483935 0.427836 -0.158747
C40   C     C_R   0.912282 0.507421 0.579620 -0.161025
C41   C     C_R   0.059762 0.527188 0.644811 0.382943
C42   C     C_R   0.940343 0.462490 0.362978 0.388022
H1    H     H_    0.612382 0.897707 0.564200 0.249591
H2    H     H_    0.406133 0.102201 0.417026 0.253566
H3    H     H_    0.234442 0.516779 0.622433 0.183226
H4    H     H_    0.766686 0.481394 0.382788 0.184025
H5    H     H_    0.554550 0.404776 0.237606 0.213360
H6    H     H_    0.525229 0.613708 0.750694 0.251733
H7    H     H_    0.415459 0.366857 0.740208 0.207451
H8    H     H_    0.426193 0.636126 0.264522 0.239828
H9    H     H_    0.593320 0.293752 0.578314 0.231666
H10   H     H_    0.393529 0.707001 0.436273 0.217024
N1    N     N_2   0.398615 0.501907 0.975488 -0.026242
N2    N     N_2   0.454413 0.546784 0.011736 -0.035121
N3    N     N_R   0.511030 0.716920 0.509720 -0.172531
N4    N     N_R   0.488970 0.283080 0.490280 -0.174638
N5    N     N_2   0.473079 0.976733 0.482745 -0.102567
N6    N     N_2   0.526312 0.023455 0.520791 -0.100027
O1    O     O_R   0.496050 0.422540 0.612660 -0.630310
O2    O     O_R   0.503950 0.577460 0.387340 -0.626129
O3    O     O_R   0.503140 0.561840 0.618900 -0.588658
O4    O     O_R   0.496860 0.438160 0.381100 -0.564099
O5    O     O_R   0.628610 0.430340 0.496900 -0.612327
O6    O     O_R   0.371390 0.569660 0.503100 -0.635001
O7    O     O_R   0.635690 0.569650 0.503140 -0.555155
O8    O     O_R   0.364310 0.430350 0.496860 -0.561018
Zn1   Zn    Zn3+2 0.495270 0.406980 0.495830 1.050366
Zn2   Zn    Zn3+2 0.504730 0.593020 0.504170 1.043307
S1    S     S_3+6 0.229019 0.530054 0.331455 0.076595
O9    O     O_2   0.279473 0.460290 0.298514 -0.191363
O10   O     O_2   0.160303 0.559434 0.269509 -0.221881
O11   O     O_3   0.300028 0.609463 0.349918 -0.596956
H11   H     H_    0.261092 0.656351 0.360414 0.359081
S2    S     S_3+6 0.768602 0.464436 0.674972 0.073458
O12   O     O_2   0.834968 0.416338 0.726542 -0.242355
O13   O     O_2   0.741168 0.538373 0.719609 -0.219613
O14   O     O_3   0.678473 0.402782 0.658151 -0.602418
H12   H     H_    0.659031 0.384853 0.712153 0.381861
O15   O     O_3   0.628046 0.136236 0.609199 -0.577726
C43   C     C_3   0.602760 0.149999 0.688241 -0.163540
H13   H     H_    0.534639 0.123660 0.699540 0.159291
H14   H     H_    0.606153 0.216899 0.701740 0.159803
H15   H     H_    0.650640 0.118270 0.730497 0.217862
O16   O     O_3   0.353940 0.863921 0.412995 -0.565866
C44   C     C_3   0.274354 0.848386 0.454285 -0.218420
H16   H     H_    0.278154 0.876083 0.514722 0.161947
H17   H     H_    0.258344 0.781035 0.459488 0.139627
H18   H     H_    0.218164 0.877667 0.419566 0.212864
S3    S     S_3+6 0.669843 0.734005 0.596822 0.050694
O17   O     O_2   0.646115 0.660362 0.648671 -0.260308
O18   O     O_2   0.737211 0.710530 0.537328 -0.322053
O19   O     O_3   0.715067 0.808462 0.655063 -0.542490
H19   H     H_    0.766756 0.782482 0.683985 0.377852
S4    S     S_3+6 0.354683 0.265613 0.373413 0.063650
O20   O     O_2   0.284964 0.312265 0.414670 -0.305967
O21   O     O_2   0.398096 0.320592 0.311516 -0.258685
O22   O     O_3   0.303910 0.185419 0.326770 -0.557440
H20   H     H_    0.258664 0.210672 0.289268 0.386009
O23   O     O_3   0.112121 0.548296 0.711722 -0.620492
C45   C     C_3   0.120650 0.477596 0.762511 -0.136076
H21   H     H_    0.166130 0.493260 0.814294 0.204491
H22   H     H_    0.150949 0.425833 0.731222 0.165103
H23   H     H_    0.054877 0.457541 0.786514 0.218064
O24   O     O_3   0.887937 0.440532 0.296374 -0.597317
C46   C     C_3   0.885297 0.508593 0.241750 -0.159249
H24   H     H_    0.857590 0.563924 0.269328 0.136554
H25   H     H_    0.840263 0.492293 0.189885 0.214129
H26   H     H_    0.952723 0.523541 0.218352 0.217228
O25   O     O_3   0.929902 0.561140 0.714948 -0.528906
C47   C     C_3   0.920195 0.647210 0.703825 -0.112278
H27   H     H_    0.874992 0.662040 0.651051 0.169951
H28   H     H_    0.986368 0.679360 0.697470 0.153530
H29   H     H_    0.889316 0.671408 0.757565 0.207778
O26   O     O_3   0.070945 0.422380 0.296252 -0.533809
C48   C     C_3   0.075023 0.336229 0.310263 -0.094145
H30   H     H_    0.006642 0.307457 0.311010 0.165354
H31   H     H_    0.113025 0.320661 0.367154 0.166016
H32   H     H_    0.110687 0.309048 0.260572 0.202757
S5    S     S_3+6 0.555106 0.390648 0.068505 0.101466
O27   O     O_2   0.582463 0.427904 0.989368 -0.224833
O28   O     O_2   0.636318 0.355073 0.111511 -0.263953
O29   O     O_3   0.479257 0.314164 0.052011 -0.435644
H33   H     H_    0.462284 0.294161 0.106125 0.370815
S6    S     S_3+6 0.447226 0.677215 0.882391 0.099521
O30   O     O_2   0.515884 0.692447 0.948822 -0.178075
O31   O     O_2   0.466566 0.736492 0.813834 -0.274427
O32   O     O_3   0.344227 0.695590 0.913372 -0.457313
H34   H     H_    0.303205 0.680487 0.867784 0.353859
S7    S     S_3+6 0.334877 0.344183 0.889697 0.071180
O33   O     O_2   0.297935 0.361475 0.969923 -0.229723
O34   O     O_2   0.258808 0.322323 0.832007 -0.333644
O35   O     O_3   0.403922 0.263660 0.898892 -0.475344
H35   H     H_    0.366111 0.216918 0.918790 0.396999
S8    S     S_3+6 0.349483 0.669175 0.110810 0.129420
O36   O     O_2   0.282598 0.633177 0.051169 -0.210162
O37   O     O_2   0.300024 0.701338 0.179863 -0.250475
O38   O     O_3   0.407537 0.747886 0.068288 -0.453015
H36   H     H_    0.362608 0.790709 0.055107 0.406049

loop_
_geom_bond_atom_site_label_1
_geom_bond_atom_site_label_2
_ccdc_geom_bond_type
C38   C40   A    
C33   H3    S    
C36   C42   A    
C25   H1    S    
S8    O38   S    
O26   C48   S    
C28   N4    A    
C26   H2    S    
C44   H16   S    
C46   H25   S    
S2    O13   D    
O4    Zn1   S    
C1    C5    S    
O6    Zn2   S    
C4    O26   S    
C35   C37   A    
C16   H8    S    
C1    O1    A    
C30   S2    S    
C2    O2    A    
C44   H18   S    
C48   H30   S    
C19   O16   S    
C9    S6    S    
C28   S4    S    
S1    O10   D    
C47   H27   S    
O19   H19   S    
C10   S5    S    
O1    Zn1   S    
O35   H35   S    
C48   H31   S    
S2    O14   S    
C41   O23   S    
C34   H4    S    
S3    O18   D    
C17   N3    A    
C18   C20   A    
C11   N1    S    
C24   O8    A    
S7    O35   S    
C48   H32   S    
C44   H17   S    
O8    Zn1   S    
C24   O6    A    
C2    C6    S    
C43   H15   S    
C17   H10   S    
O24   C46   S    
C18   H9    S    
O22   H20   S    
C29   S1    S    
S5    O28   D    
C37   C39   A    
C46   H26   S    
O5    Zn1   S    
C5    C15   A    
S2    O12   D    
O16   C44   S    
C43   H14   S    
C5    C7    A    
N3    Zn2   S    
C43   H13   S    
C6    C8    A    
C14   S8    S    
S4    O22   S    
O14   H12   S    
C45   H23   S    
C1    O3    A    
C32   C34   A    
S1    O11   S    
C21   N5    S    
C37   C38   A    
O23   C45   S    
C4    C39   A    
O7    Zn2   S    
C29   C39   A    
C45   H22   S    
C30   C40   A    
S4    O20   D    
S3    O19   S    
S4    O21   D    
C9    C11   A    
C47   H29   S    
C10   C12   A    
S6    O32   S    
C12   C14   A    
C3    C40   A    
C13   C15   A    
C14   C16   A    
C17   C19   A    
O32   H34   S    
S6    O31   D    
S7    O33   D    
C46   H24   S    
S5    O29   S    
C7    C9    A    
C21   C25   A    
C3    C41   A    
C31   C33   A    
C20   O15   S    
C19   C21   A    
C20   C22   A    
O11   H11   S    
C42   O24   S    
C22   N6    S    
S8    O37   D    
S5    O27   D    
N1    N2    D    
S8    O36   D    
C18   N4    A    
C25   C27   A    
N4    Zn1   S    
O38   H36   S    
C27   N3    A    
C26   C28   A    
C23   C32   S    
C23   O7    A    
C36   C38   A    
S3    O17   D    
C24   C31   S    
C29   C31   A    
O25   C47   S    
C7    H6    S    
C30   C32   A    
C11   C13   A    
O3    Zn2   S    
N5    N6    D    
C4    C42   A    
C3    O25   S    
C23   O5    A    
C45   H21   S    
C33   C35   A    
C27   S3    S    
C34   C36   A    
C15   H7    S    
S1    O9    D    
C35   C41   A    
C47   H28   S    
C8    H5    S    
C6    C16   A    
O15   C43   S    
O2    Zn2   S    
C8    C10   A    
C22   C26   A    
C13   S7    S    
O29   H33   S    
C12   N2    S    
C2    O4    A    
S6    O30   D    
S7    O34   D    
