data_mof_unit_44238.cif
_audit_creation_date              2012-12-10T18:22:26-0500
_audit_creation_method            fapswitch 2.2
_symmetry_space_group_name_H-M    P1
_symmetry_Int_Tables_number       1
_space_group_crystal_system       triclinic
_cell_length_a                    23.528472
_cell_length_b                    10.632985
_cell_length_c                    9.402593
_cell_angle_alpha                 90.441588
_cell_angle_beta                  89.737589
_cell_angle_gamma                 90.017734
_cell_volume                      2352.22625322

loop_
_atom_site_label
_atom_site_type_symbol
_atom_type_description
_atom_site_fract_x
_atom_site_fract_y
_atom_site_fract_z
_atom_type_partial_charge
C1    C     C_R   0.499890 0.259545 0.499401 0.850561
C2    C     C_R   0.500103 0.740453 0.500602 0.850201
C3    C     C_R   0.240135 0.535583 0.372037 0.458043
C4    C     C_R   0.759725 0.466411 0.365779 0.453159
C5    C     C_R   0.299312 0.532092 0.374899 -0.182514
C6    C     C_R   0.700558 0.468928 0.370806 -0.196233
C7    C     C_R   0.328489 0.503804 0.500249 -0.133034
C8    C     C_R   0.671516 0.496767 0.497644 -0.129158
C9    C     C_R   0.297717 0.478873 0.624843 -0.264092
C10   C     C_R   0.702426 0.522175 0.621602 -0.256196
C11   C     C_R   0.238241 0.482100 0.625216 0.011286
C12   C     C_R   0.761925 0.520007 0.619830 0.014014
C13   C     C_R   0.209064 0.510686 0.498294 0.204552
C14   C     C_R   0.790969 0.491897 0.491323 0.208587
C15   C     C_3   0.545574 0.042234 0.564344 0.462441
C16   C     C_3   0.454405 0.957753 0.435672 0.462939
C17   C     C_3   0.547071 0.957510 0.431164 -0.282935
C18   C     C_3   0.452909 0.042483 0.568852 -0.282076
C19   C     C_3   0.500529 0.876993 0.501966 -0.066575
C20   C     C_3   0.499453 0.123001 0.498048 -0.066144
C21   C     C_3   0.500179 0.960618 0.636895 -0.255514
C22   C     C_3   0.499801 0.039372 0.363119 -0.254400
C23   C     C_R   0.391011 0.500712 0.500278 0.836621
C24   C     C_R   0.608990 0.499360 0.499553 0.836094
C25   C     C_3   0.548561 0.536931 0.050335 -0.046605
C26   C     C_3   0.451441 0.463065 0.949669 -0.040276
C27   C     C_3   0.509855 0.611531 0.950396 -0.037539
C28   C     C_3   0.490147 0.388470 0.049605 -0.037897
C29   C     C_3   0.538745 0.425381 0.948353 -0.025572
C30   C     C_3   0.461255 0.574619 0.051650 -0.021237
C31   C     C_R   0.879375 0.607410 0.488007 0.563329
C32   C     C_R   0.120673 0.395511 0.490743 0.563794
C33   C     C_R   0.881282 0.382818 0.483849 0.508956
C34   C     C_R   0.118788 0.620059 0.498385 0.510109
C35   C     C_R   0.941277 0.382440 0.477590 -0.115950
C36   C     C_R   0.058761 0.620528 0.502031 -0.113624
C37   C     C_R   0.970008 0.499366 0.486957 -0.065946
C38   C     C_R   0.030042 0.503611 0.492057 -0.065703
C39   C     C_R   0.938801 0.612339 0.491013 -0.091697
C40   C     C_R   0.061251 0.390647 0.487187 -0.092759
C41   C     C_R   0.973699 0.269981 0.466982 0.407795
C42   C     C_R   0.026320 0.733036 0.511455 0.408697
C43   C     C_R   0.032746 0.275293 0.476187 -0.153177
C44   C     C_R   0.967301 0.727744 0.501157 -0.152194
Cu1   Cu    Cu3+1 0.500010 0.499990 0.643150 0.953703
Cu2   Cu    Cu3+1 0.499990 0.500010 0.356850 0.952337
H1    H     H_    0.518298 0.705490 0.904217 0.117495
H2    H     H_    0.481711 0.294507 0.095781 0.118516
H3    H     H_    0.589419 0.568310 0.097348 0.122157
H4    H     H_    0.410596 0.431598 0.902686 0.116431
H5    H     H_    0.571290 0.362642 0.899727 0.143406
H6    H     H_    0.428705 0.637343 0.100288 0.139196
H7    H     H_    0.056362 0.187916 0.469813 0.226314
H8    H     H_    0.943677 0.815141 0.506859 0.226356
H9    H     H_    0.322517 0.551751 0.277748 0.179576
H10   H     H_    0.677250 0.448977 0.274079 0.175886
H11   H     H_    0.319917 0.456418 0.722165 0.162866
H12   H     H_    0.680307 0.544248 0.720064 0.166897
H13   H     H_    0.585934 0.920758 0.377922 0.157951
H14   H     H_    0.414046 0.079245 0.622096 0.154847
H15   H     H_    0.501552 0.926947 0.748300 0.153881
H16   H     H_    0.498430 0.073041 0.251713 0.154157
N1    N     N_R   0.852042 0.494066 0.487246 -0.471494
N2    N     N_R   0.147995 0.508769 0.496405 -0.470888
N3    N     N_3   0.500040 0.499970 0.858290 -0.160882
N4    N     N_3   0.499960 0.500030 0.141710 -0.160360
O1    O     O_R   0.500030 0.316850 0.620870 -0.563073
O2    O     O_R   0.499970 0.683150 0.379130 -0.562346
O3    O     O_R   0.500000 0.316860 0.379090 -0.599112
O4    O     O_R   0.500000 0.683140 0.620910 -0.599823
O5    O     O_R   0.417890 0.499960 0.620920 -0.587295
O6    O     O_R   0.582110 0.500040 0.379080 -0.594742
O7    O     O_R   0.417870 0.499970 0.379140 -0.584931
O8    O     O_R   0.582130 0.500030 0.620860 -0.577928
O9    O     O_2   0.848932 0.714990 0.487498 -0.535691
O10   O     O_2   0.151135 0.287968 0.486789 -0.535186
O11   O     O_2   0.852043 0.273899 0.490480 -0.506274
O12   O     O_2   0.148132 0.728934 0.494038 -0.503677
O13   O     O_3   0.949710 0.153484 0.444532 -0.667149
H17   H     H_    0.922671 0.162134 0.364714 0.354618
O14   O     O_3   0.050266 0.849565 0.533862 -0.665317
H18   H     H_    0.076504 0.841417 0.615421 0.350972
O15   O     O_3   0.214720 0.562209 0.243621 -0.716705
H19   H     H_    0.172957 0.556672 0.253292 0.329928
O16   O     O_3   0.784948 0.440263 0.235952 -0.722108
H20   H     H_    0.826687 0.447439 0.243903 0.323385
C45   C     C_R   0.207191 0.451524 0.758057 0.130648
C46   C     C_R   0.169129 0.538157 0.819831 -0.127248
C47   C     C_R   0.138884 0.506981 0.942979 -0.115761
C48   C     C_R   0.146822 0.389827 0.006226 -0.073081
C49   C     C_R   0.185295 0.303962 0.946889 -0.100650
C50   C     C_R   0.215456 0.334562 0.823395 -0.119193
H21   H     H_    0.163133 0.629970 0.773428 0.152264
H22   H     H_    0.109485 0.573908 0.989823 0.138014
H23   H     H_    0.123477 0.365982 0.101788 0.133726
H24   H     H_    0.191608 0.213478 0.996320 0.147646
H25   H     H_    0.244696 0.266582 0.777688 0.140415
C51   C     C_R   0.793071 0.551094 0.752226 0.124927
C52   C     C_R   0.831609 0.465240 0.811143 -0.118257
C53   C     C_R   0.861869 0.496899 0.933965 -0.119243
C54   C     C_R   0.853495 0.613785 0.999701 -0.077818
C55   C     C_R   0.814579 0.698897 0.943187 -0.098707
C56   C     C_R   0.784387 0.667797 0.820058 -0.117130
H26   H     H_    0.837957 0.373640 0.762822 0.169905
H27   H     H_    0.891617 0.430550 0.978631 0.136459
H28   H     H_    0.876852 0.638001 0.095005 0.134804
H29   H     H_    0.807935 0.789179 0.994538 0.146988
H30   H     H_    0.754790 0.735203 0.776571 0.140117
O17   O     O_3   0.593515 0.091814 0.631836 -0.723165
H31   H     H_    0.615421 0.017854 0.664250 0.318607
O18   O     O_3   0.406470 0.908135 0.368189 -0.723951
H32   H     H_    0.384555 0.982075 0.335761 0.321659

loop_
_geom_bond_atom_site_label_1
_geom_bond_atom_site_label_2
_ccdc_geom_bond_type
C38   C40   A    
C45   C46   A    
C54   C55   A    
C8    C24   S    
Cu1   O5    S    
C18   C21   S    
C15   O17   S    
C36   C42   A    
O18   H32   S    
C24   O8    A    
O14   H18   S    
C48   H23   S    
Cu1   Cu2   S    
C53   H27   S    
C28   C29   S    
C10   H12   S    
Cu2   N4    S    
C2    O2    A    
C26   H4    S    
C51   C56   A    
C18   C20   S    
C7    C9    A    
C47   H22   S    
Cu2   O3    S    
C17   C19   S    
C49   H24   S    
C43   H7    S    
C40   C43   A    
C52   C53   A    
C11   C45   S    
Cu1   O1    S    
C56   H30   S    
Cu2   O6    S    
C3    C13   A    
C52   H26   S    
C2    C19   S    
C45   C50   A    
C27   C30   S    
C41   C43   A    
C42   O14   S    
C42   C44   A    
C23   O7    A    
C50   H25   S    
C25   C29   S    
C15   C20   S    
C31   N1    A    
C32   N2    A    
C4    C6    A    
C6    H10   S    
C49   C50   A    
C5    C7    A    
C6    C8    A    
C4    O16   S    
O16   H20   S    
C1    O3    A    
Cu1   O8    S    
C28   N4    S    
Cu2   O2    S    
C37   C38   A    
C27   N3    S    
C23   O5    A    
C22   H16   S    
C31   O9    S    
O15   H19   S    
C33   N1    A    
C34   N2    A    
C55   H29   S    
C9    C11   A    
C30   N4    S    
C10   C12   A    
C17   H13   S    
C29   N3    S    
C18   H14   S    
C12   C14   A    
C26   C30   S    
Cu1   N3    S    
C24   O6    A    
C41   O13   S    
C29   H5    S    
C27   H1    S    
C54   H28   S    
C15   C17   S    
C30   H6    S    
C46   H21   S    
C28   H2    S    
C1    C20   S    
C16   C22   S    
C35   C37   A    
Cu1   O4    S    
C26   N3    S    
C21   H15   S    
C5    H9    S    
C8    C10   A    
C25   N4    S    
C20   C22   S    
C3    C5    A    
C32   O10   S    
C39   C44   A    
C1    O1    A    
C25   C27   S    
C26   C28   S    
C17   C22   S    
C36   C38   A    
C37   C39   A    
O17   H31   S    
C34   O12   S    
C3    O15   S    
C11   C13   A    
C33   O11   S    
C48   C49   A    
C13   N2    S    
C16   C19   S    
C7    C23   S    
C14   N1    S    
C53   C54   A    
C33   C35   A    
C34   C36   A    
C31   C39   A    
C9    H11   S    
C32   C40   A    
C4    C14   A    
C55   C56   A    
C35   C41   A    
C25   H3    S    
O13   H17   S    
C44   H8    S    
C15   C21   S    
C46   C47   A    
C16   C18   S    
C51   C52   A    
C12   C51   S    
C47   C48   A    
C2    O4    A    
Cu2   O7    S    
C16   O18   S    
C19   C21   S    
