data_mof_unit_17560.cif
_audit_creation_date              2012-12-11T16:56:08-0500
_audit_creation_method            fapswitch 2.2
_symmetry_space_group_name_H-M    P1
_symmetry_Int_Tables_number       1
_space_group_crystal_system       triclinic
_cell_length_a                    7.000434
_cell_length_b                    14.528749
_cell_length_c                    16.191806
_cell_angle_alpha                 90.374029
_cell_angle_beta                  89.940334
_cell_angle_gamma                 90.07923
_cell_volume                      1646.79135171

loop_
_atom_site_label
_atom_site_type_symbol
_atom_type_description
_atom_site_fract_x
_atom_site_fract_y
_atom_site_fract_z
_atom_type_partial_charge
O1    O     O_R   0.505830 0.583360 0.413880 -0.526376
O2    O     O_R   0.175830 0.595460 0.585520 -0.543700
O3    O     O_R   0.005520 0.416640 0.586120 -0.545116
C1    C     C_R   0.344718 0.617642 0.614034 0.691247
O4    O     O_R   0.176120 0.594390 0.414490 -0.516724
O5    O     O_R   0.005810 0.415570 0.413870 -0.546993
C2    C     C_R   0.345329 0.617123 0.386837 0.743213
O6    O     O_R   0.505540 0.584430 0.586130 -0.534581
O7    O     O_3   0.339200 0.441330 0.500000 -0.382800
V1    V     V_3+5 0.064350 0.510880 0.500000 1.452087
O8    O     O_R   0.676100 0.404540 0.414480 -0.544149
C3    C     C_R   0.844996 0.382475 0.385978 0.678992
O9    O     O_R   0.675810 0.405610 0.585510 -0.542360
C4    C     C_R   0.844829 0.383886 0.613623 0.731245
V2    V     V_3+5 0.564340 0.489120 0.500000 1.428807
O10   O     O_3   0.839360 0.558670 0.500000 -0.348914
C5    C     C_2   0.721756 0.209879 0.787126 -0.134172
C6    C     C_2   0.885746 0.182104 0.822951 -0.307101
H1    H     H_    0.586951 0.181701 0.808657 0.133411
H2    H     H_    0.022198 0.209782 0.803690 0.124034
C7    C     C_2   0.709187 0.278390 0.719095 -0.139882
C8    C     C_2   0.861102 0.315664 0.680587 -0.308829
H3    H     H_    0.566417 0.298057 0.699913 0.133785
H4    H     H_    0.004918 0.296690 0.698010 0.128648
C9    C     C_R   0.712537 0.198236 0.228238 0.019210
C10   C     C_R   0.877924 0.188748 0.180908 -0.082139
C11   C     C_R   0.031486 0.246791 0.200780 -0.166209
H5    H     H_    0.153594 0.248832 0.161062 0.137587
C12   C     C_R   0.021917 0.308157 0.268269 -0.166713
H6    H     H_    0.139378 0.355150 0.278639 0.129942
C13   C     C_R   0.857591 0.313192 0.318458 -0.074351
C14   C     C_R   0.705072 0.254229 0.298867 0.022232
C15   C     C_3   0.504343 0.281435 0.281625 -0.399366
C16   C     C_3   0.521260 0.230696 0.199849 0.292104
H7    H     H_    0.486212 0.357208 0.275733 0.188472
H8    H     H_    0.403391 0.248248 0.325373 0.122547
H9    H     H_    0.417499 0.173212 0.191925 0.031346
C17   C     C_R   0.515550 0.687706 0.735972 0.030167
C18   C     C_R   0.353983 0.682772 0.685085 -0.095656
C19   C     C_R   0.200445 0.741497 0.704776 -0.194177
H10   H     H_    0.076073 0.742754 0.665534 0.152100
C20   C     C_R   0.212126 0.804136 0.771621 -0.191240
H11   H     H_    0.097618 0.851869 0.782304 0.193457
C21   C     C_R   0.377316 0.811125 0.820505 -0.112405
C22   C     C_R   0.527825 0.752238 0.800418 0.016327
C23   C     C_3   0.730349 0.774189 0.778604 0.335833
C24   C     C_3   0.718987 0.700968 0.710939 -0.459561
H12   H     H_    0.828285 0.754028 0.829323 0.074642
H13   H     H_    0.806094 0.639034 0.724777 0.140562
H14   H     H_    0.736204 0.726275 0.646761 0.181257
C25   C     C_R   0.511467 0.686275 0.264718 -0.093350
C26   C     C_R   0.355318 0.685037 0.318654 -0.172267
C27   C     C_R   0.217137 0.754699 0.309552 0.463205
C28   C     C_R   0.222511 0.814304 0.240941 -0.288238
H15   H     H_    0.113341 0.866624 0.235454 0.140775
C29   C     C_R   0.377515 0.812975 0.185199 -0.137112
C30   C     C_R   0.522758 0.748545 0.198863 0.017150
C31   C     C_3   0.728827 0.769282 0.214443 -0.453736
C32   C     C_3   0.713693 0.705432 0.288782 0.457312
H16   H     H_    0.756811 0.843252 0.226417 0.161247
H17   H     H_    0.820505 0.740334 0.164588 0.141994
H18   H     H_    0.803796 0.642907 0.281779 0.066069
O11   O     O_R   0.229930 0.912420 0.917160 -0.538074
O12   O     O_R   0.559420 0.902500 0.088780 -0.539135
O13   O     O_R   0.729660 0.081330 0.089380 -0.552848
C33   C     C_R   0.390379 0.881224 0.117614 0.720221
O14   O     O_R   0.559650 0.901420 0.917750 -0.523696
O15   O     O_R   0.729880 0.080250 0.917130 -0.538809
C34   C     C_R   0.390714 0.880008 0.888606 0.709708
O16   O     O_R   0.229700 0.913500 0.089410 -0.538620
O17   O     O_3   0.396250 0.055540 0.003280 -0.396283
V3    V     V_3+5 0.671130 0.986010 0.003260 1.405927
O18   O     O_R   0.059600 0.091310 0.917720 -0.546292
C35   C     C_R   0.891010 0.113272 0.889787 0.758589
O19   O     O_R   0.059370 0.092380 0.088750 -0.550477
C36   C     C_R   0.889931 0.117633 0.114648 0.653443
V4    V     V_3+5 0.171120 0.007820 0.003230 1.373300
O20   O     O_3   0.896130 0.938240 0.003240 -0.361219
O21   O     O_3   0.769361 0.865835 0.751426 -0.553984
C37   C     C_3   0.638880 0.903828 0.694140 -0.208461
H19   H     H_    0.536993 0.949461 0.727190 0.138746
H20   H     H_    0.558196 0.852972 0.656697 0.131370
H21   H     H_    0.720170 0.947383 0.650393 0.136450
O22   O     O_3   0.085881 0.770151 0.371355 -0.521915
C38   C     C_3   0.168188 0.828428 0.431635 -0.227297
H22   H     H_    0.292882 0.795338 0.461840 0.111402
H23   H     H_    0.060366 0.841869 0.480482 0.159245
H24   H     H_    0.209657 0.895998 0.404963 0.102153
O23   O     O_3   0.727129 0.742490 0.370706 -0.502982
C39   C     C_3   0.676094 0.836311 0.379641 -0.166140
H25   H     H_    0.649454 0.850459 0.446053 0.119426
H26   H     H_    0.544203 0.854530 0.345943 0.106195
H27   H     H_    0.795342 0.881695 0.360268 0.147307
O24   O     O_3   0.535493 0.296959 0.135901 -0.547364
C40   C     C_3   0.485927 0.260199 0.058009 0.136385
H28   H     H_    0.362515 0.212447 0.060862 0.127732
H29   H     H_    0.610844 0.224940 0.030314 0.142387
C41   C     C_3   0.430975 0.338502 0.000945 -0.744549
H30   H     H_    0.552064 0.387468 0.994736 0.229027
H31   H     H_    0.394533 0.310581 0.938889 0.174234
H32   H     H_    0.305012 0.375599 0.026277 0.222112

loop_
_geom_bond_atom_site_label_1
_geom_bond_atom_site_label_2
_ccdc_geom_bond_type
C11   C12   A    
C16   H9    S    
O18   C35   A    
C40   H28   S    
C1    O6    A    
C30   C31   S    
C40   C41   S    
C24   H13   S    
C33   O16   A    
V4    O20   S    
C21   C22   A    
C10   C11   A    
O13   C36   A    
C27   O22   S    
C2    C26   S    
O5    C3    A    
C23   O21   S    
O15   C35   A    
V2    O10   S    
C15   H8    S    
C29   C30   A    
O14   V3    S    
C32   O23   S    
C17   C22   A    
V3    O20   S    
C15   H7    S    
C28   H15   S    
O8    V2    S    
O11   C34   A    
C10   C36   S    
C25   C30   A    
O7    V1    S    
C9    C16   S    
C31   H17   S    
C19   C20   A    
C6    C35   S    
O9    C4    A    
O16   V4    S    
C20   C21   A    
C37   H21   S    
C5    C6    D    
C24   H14   S    
C23   H12   S    
C38   H23   S    
C28   C29   A    
C25   C26   A    
O22   C38   S    
C37   H20   S    
C18   C19   A    
O4    C2    A    
C31   C32   S    
C38   H22   S    
C5    C7    S    
O14   C34   A    
O12   C33   A    
O2    C1    A    
O19   C36   A    
C12   H6    S    
C39   H26   S    
C13   C14   A    
C1    C18   S    
O15   V3    S    
C15   C16   S    
C21   C34   S    
O19   V4    S    
C17   C24   S    
O3    C4    A    
O1    V2    S    
C19   H10   S    
O6    V2    S    
C41   H31   S    
O9    V2    S    
C3    C13   S    
C8    H4    S    
C25   C32   S    
C20   H11   S    
O2    V1    S    
O17   V4    S    
C26   C27   A    
C39   H27   S    
O11   V4    S    
C38   H24   S    
C23   C24   S    
C32   H18   S    
O1    C2    A    
C16   O24   S    
C37   H19   S    
O5    V1    S    
O8    C3    A    
C40   H29   S    
C27   C28   A    
O13   V3    S    
C41   H32   S    
C14   C15   S    
C4    C8    S    
C7    H3    S    
C9    C10   A    
O17   V3    S    
C12   C13   A    
O3    V1    S    
V1    O10   S    
C39   H25   S    
C17   C18   A    
C9    C14   A    
C29   C33   S    
C5    H1    S    
C6    H2    S    
O12   V3    S    
O7    V2    S    
O24   C40   S    
O21   C37   S    
C22   C23   S    
O4    V1    S    
C41   H30   S    
C11   H5    S    
O18   V4    S    
O23   C39   S    
C7    C8    D    
C31   H16   S    
