data_mof_unit_60782.cif
_audit_creation_date              2012-12-10T18:29:32-0500
_audit_creation_method            fapswitch 2.2
_symmetry_space_group_name_H-M    P1
_symmetry_Int_Tables_number       1
_space_group_crystal_system       triclinic
_cell_length_a                    35.939106
_cell_length_b                    25.796258
_cell_length_c                    22.124388
_cell_angle_alpha                 89.947222
_cell_angle_beta                  144.32801
_cell_angle_gamma                 90.033421
_cell_volume                      11961.0956292

loop_
_atom_site_label
_atom_site_type_symbol
_atom_type_description
_atom_site_fract_x
_atom_site_fract_y
_atom_site_fract_z
_atom_type_partial_charge
C1    C     C_R   0.650304 0.749960 0.000044 0.817730
C2    C     C_3   0.477626 0.784350 0.930386 -0.166477
C3    C     C_3   0.269436 0.529754 0.088949 -0.381819
C4    C     C_3   0.683801 0.970051 0.908570 -0.501690
C5    C     C_3   0.684524 0.029942 0.906363 -0.512283
C6    C     C_3   0.186005 0.470222 0.895240 -0.529558
C7    C     C_3   0.185118 0.529990 0.896774 -0.513332
C8    C     C_3   0.789741 0.970566 0.995006 0.324596
C9    C     C_3   0.795038 0.030840 0.004448 0.297553
C10   C     C_3   0.304337 0.469429 0.027583 0.341381
C11   C     C_3   0.301407 0.530028 0.020124 0.327304
C12   C     C_3   0.753143 0.948918 0.003701 0.035187
C13   C     C_3   0.992205 0.706167 0.959717 -0.167590
C14   C     C_3   0.753712 0.051004 0.004022 0.078800
C15   C     C_3   0.251956 0.449150 0.002565 0.076386
C16   C     C_3   0.252074 0.550907 0.002270 0.083597
C17   C     C_R   0.608633 0.750034 0.717183 0.766062
C18   C     C_R   0.608640 0.250172 0.717226 0.771264
C19   C     C_R   0.108554 0.250164 0.717181 0.769295
C20   C     C_R   0.108589 0.750085 0.717254 0.771828
C21   C     C_R   0.750767 0.891320 0.000918 0.796009
C22   C     C_R   0.751535 0.108666 0.001802 0.791044
C23   C     C_R   0.250532 0.391390 0.000722 0.810748
C24   C     C_3   0.989025 0.291645 0.953493 -0.166956
C25   C     C_R   0.250481 0.608622 0.000597 0.788603
C26   C     C_R   0.750078 0.608582 0.000058 0.743630
C27   C     C_R   0.750073 0.391421 0.000055 0.743647
C28   C     C_R   0.249908 0.108581 0.999858 0.743730
C29   C     C_R   0.249903 0.891420 0.999856 0.744380
C30   C     C_3   0.707040 0.530018 0.891863 -0.399521
C31   C     C_3   0.707034 0.470093 0.891860 -0.399586
C32   C     C_3   0.180939 0.029762 0.918784 -0.385082
C33   C     C_3   0.180936 0.970259 0.918786 -0.385190
C34   C     C_3   0.725430 0.529922 0.028796 -0.398515
C35   C     C_3   0.939524 0.746609 0.903833 -0.161743
C36   C     C_3   0.725426 0.470002 0.028792 -0.398623
C37   C     C_3   0.292830 0.029913 0.107932 -0.399236
C38   C     C_3   0.292826 0.969993 0.107928 -0.400091
C39   C     C_3   0.819012 0.529747 0.080913 -0.383282
C40   C     C_3   0.819007 0.470245 0.080909 -0.385825
C41   C     C_3   0.274660 0.030007 0.971258 -0.397716
C42   C     C_3   0.274655 0.970083 0.971254 -0.398145
C43   C     C_3   0.471187 0.628724 0.356113 0.084700
C44   C     C_3   0.507937 0.584532 0.435435 -0.413064
C45   C     C_3   0.484560 0.531659 0.382986 -0.872297
C46   C     C_3   0.939081 0.249460 0.903150 -0.165227
C47   C     C_3   0.559139 0.242474 0.411747 0.052931
C48   C     C_3   0.521394 0.245326 0.302906 -0.278762
C49   C     C_3   0.564402 0.259786 0.306570 -1.008058
C50   C     C_3   0.974574 0.130896 0.357568 0.085449
C51   C     C_3   0.015128 0.087980 0.439883 -0.370384
C52   C     C_3   0.993721 0.034597 0.390406 -0.967074
C53   C     C_3   0.056558 0.743035 0.407102 0.056352
C54   C     C_3   0.013586 0.756825 0.296882 -0.299954
C55   C     C_3   0.052539 0.775226 0.294057 -0.993647
C56   C     C_3   0.891725 0.934320 0.155282 0.140959
C57   C     C_3   0.439132 0.246928 0.902868 -0.158593
C58   C     C_3   0.952936 0.915137 0.205879 -0.323960
C59   C     C_3   0.004433 0.902798 0.320363 -1.024062
C60   C     C_3   0.879223 0.082099 0.077188 0.063813
C61   C     C_3   0.900537 0.053662 0.048020 -0.312125
C62   C     C_3   0.923130 0.091877 0.029639 -0.990297
C63   C     C_3   0.408308 0.444630 0.137159 0.138706
C64   C     C_3   0.411811 0.387120 0.125564 -0.381601
C65   C     C_3   0.461823 0.377487 0.142747 -0.989575
C66   C     C_3   0.377963 0.593602 0.092860 0.080061
C67   C     C_3   0.440937 0.582701 0.143433 -0.377472
C68   C     C_3   0.440272 0.736926 0.905436 -0.165972
C69   C     C_3   0.463685 0.629878 0.137872 -0.955561
C70   C     C_1   0.889612 0.750186 0.000400 -0.147836
C71   C     C_1   0.889895 0.249368 0.000947 -0.152884
C72   C     C_1   0.389109 0.249684 0.999423 -0.147783
C73   C     C_R   0.650346 0.250057 0.000160 0.818419
C74   C     C_1   0.389318 0.750213 0.999800 -0.153143
C75   C     C_1   0.610891 0.250297 0.000798 -0.152724
C76   C     C_1   0.610610 0.749825 0.000179 -0.152148
C77   C     C_1   0.110918 0.750293 0.000825 -0.153071
C78   C     C_1   0.110784 0.249564 0.000523 -0.152103
C79   C     C_3   0.016255 0.710010 0.057503 -0.161072
C80   C     C_3   0.013465 0.290781 0.051789 -0.161650
C81   C     C_3   0.515281 0.209310 0.055558 -0.164397
C82   C     C_3   0.500179 0.797394 0.025037 -0.161865
C83   C     C_3   0.964209 0.750444 0.001585 0.206486
C84   C     C_R   0.150315 0.249939 0.000065 0.816499
C85   C     C_3   0.964163 0.248604 0.001448 0.208305
C86   C     C_3   0.463629 0.249992 0.000481 0.206401
C87   C     C_3   0.463476 0.749977 0.000080 0.209335
C88   C     C_3   0.561748 0.253514 0.099295 -0.163095
C89   C     C_3   0.559822 0.762740 0.094962 -0.162416
C90   C     C_3   0.062174 0.754394 0.099838 -0.162936
C91   C     C_3   0.062139 0.247891 0.099472 -0.165004
C92   C     C_3   0.537215 0.250428 0.001597 0.205811
C93   C     C_3   0.536618 0.749705 0.000302 0.206112
C94   C     C_3   0.037451 0.750549 0.002011 0.204724
C95   C     C_R   0.150341 0.750046 0.000141 0.818754
C96   C     C_3   0.037053 0.248769 0.001164 0.205448
C97   C     C_3   0.009459 0.794834 0.043955 -0.166602
C98   C     C_3   0.012168 0.205698 0.049125 -0.164598
C99   C     C_3   0.509425 0.294205 0.044263 -0.172094
C100  C     C_3   0.522455 0.715316 0.070008 -0.164515
C101  C     C_R   0.849728 0.750046 0.000080 0.815739
C102  C     C_R   0.849797 0.249871 0.000223 0.814415
C103  C     C_R   0.349585 0.249902 0.999803 0.816882
C104  C     C_R   0.349658 0.750049 0.999948 0.817637
C105  C     C_3   0.485577 0.291138 0.946608 -0.160974
C106  C     C_3   0.750375 0.550873 0.000385 0.205133
C107  C     C_3   0.499919 0.702271 0.975361 -0.164324
C108  C     C_3   0.985416 0.790998 0.946163 -0.160129
C109  C     C_3   0.987755 0.206566 0.950818 -0.159750
C110  C     C_1   0.923277 0.750303 0.000882 -0.093931
C111  C     C_1   0.923512 0.248903 0.001327 -0.091230
C112  C     C_1   0.422628 0.249720 0.999620 -0.101812
C113  C     C_1   0.422784 0.750181 0.999872 -0.091125
C114  C     C_1   0.577724 0.250435 0.001365 -0.092330
C115  C     C_1   0.577217 0.749724 0.000278 -0.092325
C116  C     C_1   0.077817 0.750459 0.001513 -0.092040
C117  C     C_3   0.750367 0.449134 0.000379 0.206150
C118  C     C_1   0.077513 0.249156 0.000864 -0.092389
C119  C     C_3   0.491657 0.767301 0.559638 -0.416092
C120  C     C_3   0.502065 0.291592 0.559284 -0.402039
C121  C     C_3   0.991062 0.265555 0.559778 -0.414348
C122  C     C_3   0.002242 0.791773 0.559305 -0.401218
C123  C     C_3   0.431853 0.767015 0.439848 -0.508739
C124  C     C_3   0.443314 0.292135 0.440371 -0.490104
C125  C     C_3   0.931218 0.265553 0.439956 -0.510756
C126  C     C_3   0.943516 0.792272 0.440397 -0.490816
C127  C     C_3   0.539140 0.694827 0.560657 -0.433408
C128  C     C_3   0.249602 0.050872 0.999479 0.205420
C129  C     C_3   0.569981 0.264083 0.560954 -0.461599
C130  C     C_3   0.040481 0.195803 0.560444 -0.439179
C131  C     C_3   0.070098 0.763454 0.561229 -0.458124
C132  C     C_3   0.560173 0.787667 0.559525 -0.387422
C133  C     C_3   0.518654 0.196593 0.559975 -0.401898
C134  C     C_3   0.058854 0.289753 0.559525 -0.388385
C135  C     C_3   0.018267 0.696575 0.560022 -0.403223
C136  C     C_3   0.551155 0.749995 0.601787 0.144527
C137  C     C_3   0.551056 0.250613 0.601871 0.155892
C138  C     C_3   0.050983 0.250357 0.601777 0.145695
C139  C     C_3   0.249595 0.949132 0.999473 0.205651
C140  C     C_3   0.051000 0.750468 0.601954 0.153689
C141  C     C_3   0.449664 0.749614 0.398364 0.127321
C142  C     C_3   0.449789 0.250511 0.398429 0.137323
C143  C     C_3   0.949381 0.250123 0.398351 0.128723
C144  C     C_3   0.949801 0.750353 0.398506 0.135811
C145  C     C_3   0.479151 0.694153 0.440403 0.379224
C146  C     C_3   0.510543 0.263097 0.440422 0.388216
C147  C     C_3   0.980224 0.195186 0.440203 0.379416
C148  C     C_3   0.010756 0.762477 0.440840 0.394798
C149  C     C_R   0.891657 0.750233 0.282867 0.754881
C150  C     C_3   0.491418 0.206230 0.957904 -0.165649
C151  C     C_R   0.891376 0.250149 0.282827 0.784284
C152  C     C_R   0.391634 0.250253 0.282837 0.759545
C153  C     C_R   0.391567 0.749869 0.282835 0.780825
C154  C     C_3   0.500565 0.787949 0.440610 -0.355447
C155  C     C_3   0.458138 0.196886 0.440302 -0.376306
C156  C     C_3   0.999258 0.289967 0.440591 -0.356188
C157  C     C_3   0.957803 0.696863 0.440304 -0.375382
C158  C     C_3   0.781723 0.970434 0.101477 -0.420790
C159  C     C_3   0.782235 0.029924 0.101686 -0.370585
C160  C     C_3   0.266142 0.470372 0.085647 -0.363850
H1    H     H_    0.657333 0.544307 0.832312 0.177310
H2    H     H_    0.609467 0.773334 0.172830 0.131094
H3    H     H_    0.342544 0.955707 0.167573 0.177628
H4    H     H_    0.888606 0.743409 0.823318 0.131025
H5    H     H_    0.887990 0.250090 0.822505 0.128652
H6    H     H_    0.388228 0.244214 0.822185 0.130177
H7    H     H_    0.390622 0.726324 0.827586 0.129341
H8    H     H_    0.484547 0.170078 0.922447 0.128821
H9    H     H_    0.459730 0.812709 0.873018 0.128358
H10   H     H_    0.985644 0.669733 0.925122 0.128836
H11   H     H_    0.980032 0.326956 0.914198 0.128352
H12   H     H_    0.473916 0.324772 0.901890 0.130690
H13   H     H_    0.113079 0.757597 0.180376 0.130711
H14   H     H_    0.500342 0.663188 0.954968 0.130528
H15   H     H_    0.973279 0.824276 0.900438 0.131702
H16   H     H_    0.977714 0.171966 0.909333 0.131284
H17   H     H_    0.476356 0.624078 0.313420 0.179563
H18   H     H_    0.419120 0.626510 0.297341 0.141830
H19   H     H_    0.559618 0.588325 0.493263 0.229609
H20   H     H_    0.501673 0.586742 0.476946 0.205266
H21   H     H_    0.433104 0.526769 0.325491 0.279175
H22   H     H_    0.511682 0.500568 0.442153 0.243825
H23   H     H_    0.492002 0.527566 0.343370 0.267477
H24   H     H_    0.113224 0.247253 0.180125 0.130481
H25   H     H_    0.598064 0.213578 0.457900 0.161342
H26   H     H_    0.582550 0.280593 0.451440 0.111951
H27   H     H_    0.499038 0.207063 0.264244 0.246335
H28   H     H_    0.482878 0.274680 0.256547 0.212383
H29   H     H_    0.584939 0.299033 0.340496 0.266705
H30   H     H_    0.536265 0.259839 0.226972 0.274189
H31   H     H_    0.603695 0.231181 0.353668 0.264400
H32   H     H_    0.978292 0.127280 0.312663 0.164614
H33   H     H_    0.923046 0.126264 0.300846 0.135680
H34   H     H_    0.066005 0.093775 0.494540 0.228563
H35   H     H_    0.028374 0.676777 0.103282 0.131630
H36   H     H_    0.011054 0.089522 0.484514 0.204045
H37   H     H_    0.943840 0.027100 0.338952 0.261187
H38   H     H_    0.024948 0.004545 0.452032 0.256262
H39   H     H_    0.996983 0.031922 0.344692 0.276769
H40   H     H_    0.089370 0.711409 0.436434 0.163246
H41   H     H_    0.087316 0.776776 0.459855 0.117994
H42   H     H_    0.985797 0.722019 0.246897 0.254127
H43   H     H_    0.979581 0.787756 0.265494 0.210057
H44   H     H_    0.083002 0.808707 0.346858 0.261613
H45   H     H_    0.019946 0.787526 0.214206 0.271957
H46   H     H_    0.023503 0.325373 0.093286 0.131313
H47   H     H_    0.083293 0.743323 0.317681 0.264306
H48   H     H_    0.874649 0.902753 0.162698 0.110285
H49   H     H_    0.903189 0.969298 0.197306 0.192230
H50   H     H_    0.942347 0.879531 0.165433 0.224302
H51   H     H_    0.971195 0.945174 0.198427 0.221700
H52   H     H_    0.019473 0.938516 0.363980 0.274624
H53   H     H_    0.046726 0.886052 0.353224 0.272839
H54   H     H_    0.986259 0.874532 0.329954 0.253463
H55   H     H_    0.920570 0.104086 0.149597 0.140964
H56   H     H_    0.842074 0.111467 0.017443 0.161971
H57   H     H_    0.526924 0.175737 0.100356 0.133458
H58   H     H_    0.940255 0.026861 0.111722 0.227636
H59   H     H_    0.860374 0.030510 0.976494 0.225834
H60   H     H_    0.883789 0.118590 0.964898 0.275245
H61   H     H_    0.938622 0.070324 0.009220 0.264665
H62   H     H_    0.964094 0.114929 0.100775 0.261119
H63   H     H_    0.456128 0.457638 0.215699 0.163821
H64   H     H_    0.396609 0.467898 0.080732 0.115170
H65   H     H_    0.424214 0.364242 0.182877 0.212547
H66   H     H_    0.364576 0.373909 0.046542 0.236332
H67   H     H_    0.449719 0.399334 0.085047 0.263399
H68   H     H_    0.499750 0.836469 0.045443 0.130762
H69   H     H_    0.463345 0.335661 0.133737 0.277964
H70   H     H_    0.509761 0.389492 0.222146 0.263226
H71   H     H_    0.383249 0.628867 0.128130 0.138401
H72   H     H_    0.341238 0.602939 0.009724 0.148874
H73   H     H_    0.478167 0.571642 0.225867 0.222359
H74   H     H_    0.434372 0.549923 0.102924 0.205333
H75   H     H_    0.428246 0.640136 0.055751 0.269503
H76   H     H_    0.509785 0.620855 0.176351 0.257696
H77   H     H_    0.470745 0.663488 0.177826 0.265178
H78   H     H_    0.483850 0.740835 0.588399 0.184740
H79   H     H_    0.524169 0.330839 0.588706 0.180448
H80   H     H_    0.983935 0.237766 0.588287 0.185622
H81   H     H_    0.657326 0.455827 0.832317 0.177272
H82   H     H_    0.024574 0.830936 0.588694 0.180120
H83   H     H_    0.499219 0.806951 0.588070 0.166224
H84   H     H_    0.486855 0.282660 0.586305 0.190296
H85   H     H_    0.997648 0.304717 0.588592 0.165730
H86   H     H_    0.986960 0.783197 0.586299 0.190366
H87   H     H_    0.410482 0.806512 0.410546 0.178474
H88   H     H_    0.399927 0.284619 0.410821 0.203573
H89   H     H_    0.909040 0.304764 0.410987 0.178074
H90   H     H_    0.900081 0.785053 0.410826 0.204593
H91   H     H_    0.395485 0.740407 0.411398 0.182997
H92   H     H_    0.161623 0.043940 0.937156 0.175787
H93   H     H_    0.438001 0.331336 0.412859 0.180469
H94   H     H_    0.895414 0.237959 0.411301 0.183882
H95   H     H_    0.938407 0.831382 0.412855 0.176111
H96   H     H_    0.532263 0.666945 0.589460 0.137660
H97   H     H_    0.592162 0.303257 0.588639 0.111435
H98   H     H_    0.034757 0.166667 0.589643 0.136146
H99   H     H_    0.092578 0.802514 0.589019 0.113086
H100  H     H_    0.443143 0.668187 0.414730 0.058890
H101  H     H_    0.503218 0.302328 0.410408 0.028778
H102  H     H_    0.944992 0.168163 0.414951 0.057831
H103  H     H_    0.161624 0.956027 0.937168 0.175809
H104  H     H_    0.003884 0.801677 0.411551 0.022983
H105  H     H_    0.602260 0.775736 0.587687 0.184341
H106  H     H_    0.552327 0.166589 0.587399 0.187032
H107  H     H_    0.101281 0.279494 0.587686 0.185013
H108  H     H_    0.051790 0.666330 0.587567 0.186762
H109  H     H_    0.724265 0.544508 0.870091 0.150712
H110  H     H_    0.724254 0.455660 0.870083 0.150373
H111  H     H_    0.148704 0.044006 0.839826 0.173006
H112  H     H_    0.148697 0.956084 0.839829 0.173059
H113  H     H_    0.569235 0.827710 0.588154 0.177518
H114  H     H_    0.015989 0.831212 0.078628 0.131438
H115  H     H_    0.505647 0.185835 0.589957 0.151620
H116  H     H_    0.066700 0.329445 0.588163 0.175859
H117  H     H_    0.005111 0.686171 0.589877 0.151782
H118  H     H_    0.480646 0.827952 0.412756 0.166808
H119  H     H_    0.415663 0.188109 0.412674 0.144141
H120  H     H_    0.978234 0.329616 0.412565 0.164453
H121  H     H_    0.915228 0.688375 0.412528 0.144559
H122  H     H_    0.514222 0.777285 0.411642 0.209991
H123  H     H_    0.461729 0.165664 0.410544 0.207750
H124  H     H_    0.013270 0.280706 0.411781 0.211249
H125  H     H_    0.021153 0.170386 0.088401 0.134536
H126  H     H_    0.961302 0.665470 0.410625 0.207114
H127  H     H_    0.581860 0.681580 0.591407 0.179969
H128  H     H_    0.606526 0.236075 0.592866 0.195200
H129  H     H_    0.083384 0.184239 0.590616 0.179691
H130  H     H_    0.106440 0.735180 0.593068 0.196898
H131  H     H_    0.752061 0.957231 0.101177 0.199522
H132  H     H_    0.753863 0.044144 0.103427 0.186341
H133  H     H_    0.227948 0.457903 0.067082 0.173663
H134  H     H_    0.235836 0.545273 0.079130 0.178441
H135  H     H_    0.830218 0.955548 0.174901 0.151032
H136  H     H_    0.516221 0.330286 0.079785 0.136638
H137  H     H_    0.831813 0.044264 0.173279 0.190002
H138  H     H_    0.312029 0.454646 0.163710 0.211069
H139  H     H_    0.318216 0.542639 0.166172 0.199533
H140  H     H_    0.655975 0.957347 0.912096 0.195935
H141  H     H_    0.653872 0.045837 0.902578 0.193430
H142  H     H_    0.147718 0.454478 0.874373 0.191339
H143  H     H_    0.149310 0.542947 0.883469 0.193191
H144  H     H_    0.756422 0.963093 0.912749 0.085814
H145  H     H_    0.773185 0.045801 0.932846 0.038431
H146  H     H_    0.292944 0.453248 0.966900 0.015630
H147  H     H_    0.540342 0.686973 0.127376 0.133652
H148  H     H_    0.283005 0.538816 0.949609 0.004958
H149  H     H_    0.676114 0.544204 0.972160 0.179655
H150  H     H_    0.676108 0.455734 0.972156 0.179644
H151  H     H_    0.275521 0.044345 0.129561 0.150251
H152  H     H_    0.275514 0.955504 0.129555 0.150414
H153  H     H_    0.658762 0.954336 0.835125 0.174595
H154  H     H_    0.663658 0.042813 0.835050 0.177466
H155  H     H_    0.175446 0.457387 0.834342 0.187733
H156  H     H_    0.169920 0.545649 0.832084 0.187825
H157  H     H_    0.851328 0.543918 0.159913 0.174997
H158  H     H_    0.612629 0.256232 0.180019 0.132182
H159  H     H_    0.851323 0.456002 0.159908 0.172939
H160  H     H_    0.323993 0.044277 0.027998 0.180494
H161  H     H_    0.323986 0.955800 0.027990 0.180100
H162  H     H_    0.838232 0.543986 0.062377 0.176202
H163  H     H_    0.838225 0.456066 0.062370 0.175913
H164  H     H_    0.244123 0.044506 0.893413 0.150565
H165  H     H_    0.244116 0.955660 0.893407 0.150446
H166  H     H_    0.756037 0.544345 0.106682 0.149913
H167  H     H_    0.756031 0.455505 0.106678 0.149661
H168  H     H_    0.342550 0.044182 0.167577 0.179341
O1    O     O_3   0.749990 0.749990 0.000000 -0.471666
O2    O     O_R   0.611600 0.280630 0.766300 -0.651199
O3    O     O_R   0.111600 0.219370 0.766300 -0.647544
O4    O     O_R   0.111600 0.780630 0.766300 -0.651180
O5    O     O_R   0.698440 0.780630 0.061300 -0.637951
O6    O     O_R   0.698440 0.219370 0.061300 -0.639061
O7    O     O_R   0.198440 0.280630 0.061300 -0.639510
O8    O     O_R   0.198440 0.719370 0.061300 -0.639046
O9    O     O_R   0.801540 0.780630 0.938710 -0.627531
O10   O     O_R   0.801540 0.219370 0.938710 -0.651419
O11   O     O_R   0.301540 0.280630 0.938710 -0.642941
O12   O     O_3   0.749990 0.250010 0.000000 -0.466021
O13   O     O_R   0.301540 0.719370 0.938710 -0.649346
O14   O     O_R   0.637170 0.719360 0.938750 -0.639342
O15   O     O_R   0.637170 0.280640 0.938750 -0.639019
O16   O     O_R   0.137170 0.219360 0.938750 -0.639399
O17   O     O_R   0.137170 0.780640 0.938750 -0.638954
O18   O     O_R   0.862810 0.719350 0.061240 -0.653470
O19   O     O_R   0.862810 0.280650 0.061240 -0.633709
O20   O     O_R   0.362810 0.219350 0.061240 -0.647632
O21   O     O_R   0.362810 0.780650 0.061240 -0.634742
O22   O     O_R   0.845300 0.780620 0.233710 -0.660787
O23   O     O_3   0.249990 0.249990 0.000000 -0.469642
O24   O     O_R   0.845300 0.219380 0.233710 -0.664977
O25   O     O_R   0.345300 0.280620 0.233710 -0.657724
O26   O     O_R   0.345300 0.719380 0.233710 -0.665318
O27   O     O_R   0.654690 0.780640 0.766300 -0.652399
O28   O     O_R   0.654690 0.219360 0.766300 -0.648011
O29   O     O_R   0.154690 0.280640 0.766300 -0.650761
O30   O     O_R   0.154690 0.719360 0.766300 -0.648196
O31   O     O_R   0.759080 0.866840 0.061290 -0.657669
O32   O     O_R   0.759080 0.133160 0.061290 -0.650867
O33   O     O_R   0.259080 0.366840 0.061290 -0.644733
O34   O     O_3   0.249990 0.750010 0.000000 -0.466380
O35   O     O_R   0.259080 0.633160 0.061290 -0.651477
O36   O     O_R   0.697810 0.633140 0.938720 -0.648766
O37   O     O_R   0.697810 0.366860 0.938720 -0.648515
O38   O     O_R   0.197810 0.133140 0.938720 -0.651280
O39   O     O_R   0.197810 0.866860 0.938720 -0.650981
O40   O     O_R   0.740900 0.866850 0.938740 -0.632014
O41   O     O_R   0.740900 0.133150 0.938740 -0.670735
O42   O     O_R   0.240900 0.366850 0.938740 -0.666558
O43   O     O_R   0.240900 0.633150 0.938740 -0.670625
O44   O     O_R   0.802180 0.633140 0.061250 -0.649683
O45   O     O_R   0.888390 0.719350 0.233690 -0.606411
O46   O     O_R   0.802180 0.366860 0.061250 -0.652173
O47   O     O_R   0.302180 0.133140 0.061250 -0.647184
O48   O     O_R   0.302180 0.866860 0.061250 -0.648818
O49   O     O_3   0.497126 0.677712 0.405194 -0.662919
O50   O     O_3   0.518588 0.225031 0.405329 -0.626098
O51   O     O_3   0.997906 0.180573 0.403871 -0.662259
O52   O     O_3   0.019007 0.724273 0.406166 -0.626169
O53   O     O_3   0.846298 0.944782 0.049845 -0.637666
O54   O     O_3   0.859698 0.046650 0.096754 -0.661672
O55   O     O_3   0.365051 0.452251 0.128400 -0.627462
O56   O     O_R   0.888390 0.280650 0.233690 -0.643742
O57   O     O_3   0.363063 0.551446 0.112094 -0.642046
O58   O     O_R   0.388390 0.219350 0.233690 -0.606221
O59   O     O_R   0.388390 0.780650 0.233690 -0.644503
O60   O     O_R   0.611600 0.719370 0.766300 -0.647928
Zn1   Zn    Zn3+2 0.824550 0.706220 0.087530 0.958645
Zn2   Zn    Zn3+2 0.737010 0.206230 0.912460 0.940955
Zn3   Zn    Zn3+2 0.237010 0.293770 0.912460 0.943625
Zn4   Zn    Zn3+2 0.237010 0.706230 0.912460 0.938928
Zn5   Zn    Zn3+2 0.675440 0.706230 0.912460 0.949697
Zn6   Zn    Zn3+2 0.675440 0.293770 0.912460 0.951096
Zn7   Zn    Zn3+2 0.175440 0.206230 0.912460 0.949449
Zn8   Zn    Zn3+2 0.175440 0.793770 0.912460 0.950343
Zn9   Zn    Zn3+2 0.824550 0.293780 0.087530 0.956817
Zn10  Zn    Zn3+2 0.324550 0.206220 0.087530 0.960463
Zn11  Zn    Zn3+2 0.324550 0.793780 0.087530 0.955961
Zn12  Zn    Zn3+2 0.762980 0.793760 0.087560 0.944738
Zn13  Zn    Zn3+2 0.762980 0.206240 0.087560 0.949453
Zn14  Zn    Zn3+2 0.262980 0.293760 0.087560 0.953575
Zn15  Zn    Zn3+2 0.262980 0.706240 0.087560 0.947148
Zn16  Zn    Zn3+2 0.737010 0.793770 0.912460 0.967180

loop_
_geom_bond_atom_site_label_1
_geom_bond_atom_site_label_2
_ccdc_geom_bond_type
O27   Zn16  S    
C8    H144  S    
C133  C137  S    
O25   Zn14  S    
C142  C146  S    
O46   Zn9   S    
C13   C79   S    
C17   O27   A    
O12   Zn2   S    
C65   H70   S    
O38   Zn7   S    
C60   H55   S    
C48   H28   S    
C24   C96   S    
C141  C154  S    
C82   C87   S    
C10   H146  S    
C153  O26   A    
C134  H107  S    
C62   H61   S    
C24   H11   S    
C102  O10   A    
C79   C90   S    
C131  C140  S    
O14   Zn5   S    
C91   C96   S    
C6    H155  S    
O8    Zn15  S    
O42   Zn3   S    
C4    C12   S    
O56   Zn9   S    
O11   Zn3   S    
C81   C86   S    
C141  C145  S    
C122  H86   S    
C143  C151  S    
C40   C117  S    
C98   C109  S    
C91   H24   S    
C73   C75   S    
C147  O51   S    
O48   Zn11  S    
C102  O19   A    
C29   C139  S    
C44   H19   S    
C45   H22   S    
C27   C117  S    
C51   C52   S    
C34   C106  S    
C127  H127  S    
C8    O53   S    
C38   H152  S    
C127  C136  S    
C34   H149  S    
C99   H136  S    
C4    C5    S    
C57   H6    S    
C82   H68   S    
C101  O18   A    
C53   H41   S    
O40   Zn16  S    
C18   C137  S    
C43   C44   S    
O16   Zn7   S    
C37   C38   S    
C150  H8    S    
C123  C141  S    
C47   H26   S    
C86   C99   S    
C3    H139  S    
C6    C7    S    
C40   H159  S    
C127  C145  S    
C71   C102  S    
O1    Zn1   S    
C25   O43   A    
C158  C159  S    
C154  H122  S    
C52   H38   S    
C130  C138  S    
C89   H2    S    
C95   O8    A    
C16   C25   S    
C73   O15   A    
O32   Zn13  S    
C69   H76   S    
C61   H59   S    
C3    H134  S    
C124  H93   S    
C59   H53   S    
C119  H78   S    
C157  H126  S    
O44   Zn1   S    
C72   C103  S    
C119  C123  S    
C96   C109  S    
C119  C136  S    
C13   C94   S    
C66   O57   S    
C24   C46   S    
C125  H89   S    
C56   H49   S    
C18   O2    A    
C32   C33   S    
C30   C31   S    
C18   O28   A    
O12   Zn9   S    
C33   C139  S    
C41   H164  S    
C91   C98   S    
C155  H123  S    
C29   O48   A    
O30   Zn4   S    
C87   C113  S    
C88   C99   S    
C2    H9    S    
C15   C160  S    
C129  C137  S    
O47   Zn10  S    
C32   H111  S    
C4    H140  S    
C5    H141  S    
C42   H165  S    
C7    H143  S    
C80   H46   S    
C43   H18   S    
C124  H88   S    
C135  C157  S    
C46   H5    S    
O31   Zn12  S    
C70   C101  S    
C56   O53   S    
O24   Zn13  S    
C82   C89   S    
C78   C118  T    
C146  O50   S    
C158  H135  S    
C13   C35   S    
C2    C68   S    
C39   H162  S    
C148  O52   S    
O43   Zn4   S    
C103  O11   A    
C54   H43   S    
C108  H15   S    
C7    H156  S    
C79   H35   S    
C65   H67   S    
C146  H101  S    
C159  H132  S    
C155  H119  S    
C70   C110  T    
O6    Zn13  S    
C132  H105  S    
C50   O51   S    
C151  O56   A    
C28   O47   A    
C132  C154  S    
O20   Zn10  S    
C9    O54   S    
O21   Zn11  S    
C132  C136  S    
C60   O54   S    
C66   C67   S    
O12   Zn6   S    
C23   O42   A    
C88   H158  S    
C19   O29   A    
C64   H65   S    
C130  H98   S    
C104  O13   A    
O4    Zn8   S    
C26   O44   A    
O1    Zn16  S    
C153  O59   A    
C63   H63   S    
C37   H168  S    
C39   C40   S    
C52   H39   S    
C49   H30   S    
C120  H79   S    
C41   H160  S    
C66   H71   S    
O10   Zn2   S    
C27   O46   A    
C121  C125  S    
C26   C106  S    
C1    O5    A    
C104  O21   A    
C8    C12   S    
C81   H57   S    
C31   H110  S    
O23   Zn3   S    
C83   C110  S    
C148  H104  S    
C38   H3    S    
C95   O17   A    
C69   H77   S    
C135  H108  S    
C20   O30   A    
C22   O32   A    
C20   O4    A    
C74   C104  S    
C87   C100  S    
C54   C55   S    
C130  C147  S    
C1    C76   S    
C7    C16   S    
C4    H153  S    
C73   O6    A    
C120  C137  S    
C107  H14   S    
C55   H47   S    
C36   H167  S    
C65   H69   S    
C14   C159  S    
C72   C112  T    
C14   C22   S    
C60   H56   S    
O5    Zn12  S    
C122  C140  S    
C160  H133  S    
C141  C153  S    
O1    Zn5   S    
C125  C143  S    
C132  H113  S    
C11   O57   S    
C130  H129  S    
C126  C144  S    
C56   C58   S    
C34   C36   S    
C62   H62   S    
C89   C93   S    
C61   C62   S    
C10   C11   S    
C63   C64   S    
C68   C87   S    
C47   O50   S    
C159  H137  S    
C12   C158  S    
C144  C157  S    
C3    C16   S    
O1    Zn12  S    
C39   C106  S    
C67   H74   S    
C133  H115  S    
C41   C42   S    
C103  O20   A    
O45   Zn1   S    
C44   H20   S    
C45   H21   S    
O12   Zn13  S    
C30   H109  S    
C84   O7    A    
C81   C88   S    
C156  H120  S    
O36   Zn5   S    
O26   Zn15  S    
C76   C115  T    
C25   O35   A    
C142  C152  S    
C6    H142  S    
C100  H147  S    
C134  C156  S    
C84   O16   A    
O39   Zn8   S    
C38   C139  S    
C68   C107  S    
C47   H25   S    
C50   H32   S    
C97   H114  S    
C90   C97   S    
C98   H125  S    
C37   C128  S    
C121  H85   S    
O23   Zn14  S    
C158  H131  S    
C90   C94   S    
O7    Zn14  S    
C2    C93   S    
C135  C140  S    
C55   H45   S    
C59   H54   S    
C149  O22   A    
C89   C100  S    
C21   O31   A    
O34   Zn11  S    
C61   H58   S    
C48   H27   S    
C156  H124  S    
C35   C83   S    
C58   C59   S    
C53   C54   S    
C74   C113  T    
C40   H163  S    
C63   O55   S    
O34   Zn15  S    
C60   C61   S    
C37   H151  S    
C9    C14   S    
C80   C85   S    
C11   C16   S    
C56   H48   S    
O17   Zn8   S    
C50   C51   S    
C5    C14   S    
C131  H99   S    
C48   C49   S    
C33   H112  S    
C92   C150  S    
C2    C82   S    
O15   Zn6   S    
C152  O25   A    
O59   Zn11  S    
C44   C45   S    
C45   H23   S    
C43   O49   S    
C43   H17   S    
C94   C116  S    
C135  H117  S    
C31   H81   S    
C22   O41   A    
C85   C111  S    
C121  H80   S    
C33   H103  S    
O23   Zn7   S    
C35   H4    S    
C129  H97   S    
C126  H90   S    
O22   Zn12  S    
C64   C65   S    
C20   C140  S    
C80   C91   S    
O60   Zn5   S    
C79   C83   S    
C32   C128  S    
C55   H44   S    
C145  O49   S    
C50   H33   S    
C69   H75   S    
C39   H157  S    
O29   Zn3   S    
C92   C105  S    
C9    H145  S    
O23   Zn10  S    
C83   C97   S    
C46   C109  S    
C26   O36   A    
C52   H37   S    
C30   H1    S    
C28   O38   A    
C10   O55   S    
C28   C128  S    
C62   H60   S    
O19   Zn9   S    
C34   H166  S    
C57   C105  S    
C105  H12   S    
C134  H116  S    
C144  C148  S    
C64   H66   S    
C143  C156  S    
C109  H16   S    
C133  H106  S    
C122  H82   S    
C143  C147  S    
O2    Zn6   S    
C90   H13   S    
C94   C108  S    
C96   C118  S    
C10   C15   S    
C120  H84   S    
C49   H29   S    
O33   Zn14  S    
C81   C150  S    
C66   H72   S    
C21   O40   A    
C57   C86   S    
C93   C115  S    
C1    O14   A    
C160  H138  S    
C31   C117  S    
C85   C98   S    
C6    C15   S    
C97   C108  S    
C24   C80   S    
C88   C92   S    
C8    C9    S    
C53   O52   S    
C71   C111  T    
C126  H95   S    
C35   C108  S    
C142  C155  S    
C77   C116  T    
C15   C23   S    
C30   C106  S    
C145  H100  S    
C41   C128  S    
C124  C142  S    
C125  H94   S    
O28   Zn2   S    
C58   H50   S    
C99   C105  S    
C36   H150  S    
C127  H96   S    
C154  H118  S    
C151  O24   A    
C27   O37   A    
O18   Zn1   S    
C149  O45   A    
C54   H42   S    
C12   C21   S    
C77   C95   S    
O37   Zn6   S    
C67   C69   S    
C121  C138  S    
C122  C126  S    
C86   C112  S    
C123  H91   S    
C144  C149  S    
C36   C117  S    
O35   Zn15  S    
O34   Zn8   S    
C47   C48   S    
O9    Zn16  S    
C57   C150  S    
C17   C136  S    
C129  C146  S    
C131  C148  S    
C75   C114  T    
C147  H102  S    
C5    H154  S    
C46   C85   S    
C13   H10   S    
O41   Zn2   S    
C3    C160  S    
C23   O33   A    
C152  O58   A    
C59   H52   S    
C157  H121  S    
C67   H73   S    
C100  C107  S    
C11   H148  S    
C131  H130  S    
C101  O9    A    
C42   C139  S    
C133  C155  S    
C53   H40   S    
C63   H64   S    
C129  H128  S    
C51   H34   S    
C134  C138  S    
C42   H161  S    
C49   H31   S    
C32   H92   S    
O3    Zn7   S    
C93   C107  S    
C17   O60   A    
C123  H87   S    
C51   H36   S    
C119  H83   S    
C19   C138  S    
C19   O3    A    
C58   H51   S    
O58   Zn10  S    
O34   Zn4   S    
O13   Zn4   S    
C29   O39   A    
C68   H7    S    
C78   C84   S    
C92   C114  S    
C120  C124  S    
