data_mof_unit_9896.cif
_audit_creation_date              2012-12-10T17:35:34-0500
_audit_creation_method            fapswitch 2.2
_symmetry_space_group_name_H-M    P1
_symmetry_Int_Tables_number       1
_space_group_crystal_system       triclinic
_cell_length_a                    10.797379
_cell_length_b                    12.383553
_cell_length_c                    13.401291
_cell_angle_alpha                 116.659677
_cell_angle_beta                  75.405672
_cell_angle_gamma                 101.949758
_cell_volume                      1540.53530993

loop_
_atom_site_label
_atom_site_type_symbol
_atom_type_description
_atom_site_fract_x
_atom_site_fract_y
_atom_site_fract_z
_atom_type_partial_charge
C1    C     C_R   0.520625 0.854161 0.284828 0.802648
C2    C     C_3   0.123422 0.990656 0.489024 -0.000921
C3    C     C_3   0.048945 0.038465 0.613925 -0.455552
C4    C     C_3   0.060308 0.860119 0.416727 0.034111
C5    C     C_R   0.474404 0.265897 0.027660 -0.101578
C6    C     C_R   0.459920 0.223859 0.836179 -0.089243
C7    C     C_R   0.548605 0.817039 0.075263 0.187043
C8    C     C_R   0.535215 0.736496 0.963712 -0.127123
C9    C     C_R   0.505044 0.612397 0.932343 -0.224573
C10   C     C_R   0.489172 0.562131 0.010902 0.102811
C11   C     C_R   0.514813 0.642244 0.121095 0.027031
C12   C     C_R   0.740126 0.999630 0.498952 0.776774
C13   C     C_R   0.466203 0.433415 0.979995 0.065420
C14   C     C_R   0.480748 0.389652 0.057327 0.052977
C15   C     C_R   0.512604 0.469352 0.161278 -0.111980
C16   C     C_R   0.539186 0.591137 0.186967 -0.157004
C17   C     C_R   0.434963 0.345411 0.874360 0.098405
C18   C     C_R   0.470782 0.182163 0.916369 0.112029
C19   C     C_R   0.530019 0.771219 0.159120 -0.115212
C20   C     C_R   0.701225 0.346634 0.321101 0.336226
C21   C     C_R   0.316982 0.754989 0.638821 0.062205
C22   C     C_R   0.273484 0.656327 0.667383 -0.244477
C23   C     C_R   0.477190 0.144379 0.713428 0.805862
C24   C     C_R   0.340760 0.554045 0.615195 -0.200201
C25   C     C_R   0.453995 0.550003 0.534401 0.041696
C26   C     C_R   0.496197 0.655291 0.510902 0.308706
C27   C     C_R   0.526569 0.445821 0.474465 -0.083453
C28   C     C_R   0.636611 0.450110 0.391489 -0.012223
C29   C     C_R   0.682613 0.559016 0.381772 -0.226030
C30   C     C_R   0.611573 0.656264 0.436585 -0.264022
C31   C     C_R   0.495700 0.337551 0.492294 0.004187
C32   C     C_R   0.678051 0.250778 0.354835 0.234328
C33   C     C_R   0.261348 0.994743 0.493139 0.829060
C34   C     C_3   0.965277 0.087797 0.450620 -0.458885
C35   C     C_3   0.108908 0.078522 0.437605 0.215061
C36   C     C_3   0.902679 0.030539 0.618442 0.021200
C37   C     C_3   0.918303 0.868578 0.417665 -0.443330
C38   C     C_3   0.878579 0.998359 0.497589 0.081368
Cu1   Cu    Cu3+1 0.529690 0.098270 0.475420 0.966385
Cu2   Cu    Cu3+1 0.470310 0.901730 0.524580 0.921111
H1    H     H_    0.944079 0.182803 0.507083 0.156939
H2    H     H_    0.853773 0.954961 0.642690 0.174595
H3    H     H_    0.064893 0.986771 0.658467 0.175791
H4    H     H_    0.529038 0.435980 0.218314 0.187569
H5    H     H_    0.483745 0.235440 0.089565 0.181544
H6    H     H_    0.505852 0.557065 0.843410 0.162564
H7    H     H_    0.551285 0.769531 0.898541 0.143578
H8    H     H_    0.941820 0.065957 0.367579 0.213486
H9    H     H_    0.594968 0.643371 0.250662 0.165457
H10   H     H_    0.774125 0.570592 0.329817 0.226722
H11   H     H_    0.411594 0.325937 0.551285 0.125790
H12   H     H_    0.262619 0.832666 0.678734 0.131539
H13   H     H_    0.302129 0.479493 0.638880 0.135349
H14   H     H_    0.186349 0.658645 0.729358 0.156983
H15   H     H_    0.646807 0.727607 0.411106 0.193122
H16   H     H_    0.152999 0.171355 0.487702 0.102049
H17   H     H_    0.088720 0.134142 0.661115 0.165216
H18   H     H_    0.852978 0.801801 0.445971 0.181384
H19   H     H_    0.905446 0.843761 0.329821 0.179401
H20   H     H_    0.112212 0.829150 0.327381 0.220781
N1    N     N_R   0.574690 0.246280 0.438200 -0.192317
N2    N     N_R   0.426100 0.754320 0.561190 -0.208560
O1    O     O_R   0.537340 0.972510 0.318130 -0.550033
O2    O     O_R   0.487200 0.806530 0.359650 -0.599819
O3    O     O_R   0.707380 0.082980 0.479220 -0.588811
O4    O     O_R   0.657240 0.917000 0.520740 -0.615681
O5    O     O_R   0.512800 0.193470 0.640350 -0.573805
O6    O     O_R   0.462660 0.027490 0.681870 -0.587818
O7    O     O_R   0.342760 0.083000 0.479260 -0.556914
O8    O     O_R   0.292620 0.917020 0.520780 -0.595163
C39   C     C_3   0.066680 0.758706 0.452041 -0.830984
H21   H     H_    0.029963 0.784899 0.543960 0.235425
H22   H     H_    0.007442 0.674546 0.404416 0.244065
H23   H     H_    0.165803 0.733083 0.429000 0.265776
C40   C     C_3   0.478899 0.050826 0.887904 -0.756463
H24   H     H_    0.391871 0.993440 0.855172 0.243788
H25   H     H_    0.567436 0.018930 0.824911 0.232063
H26   H     H_    0.482065 0.037921 0.963843 0.228726
C41   C     C_3   0.348083 0.370308 0.815892 -0.858690
H27   H     H_    0.273056 0.292235 0.787915 0.220308
H28   H     H_    0.295889 0.450685 0.874468 0.244560
H29   H     H_    0.403933 0.384227 0.740473 0.226203
C42   C     C_3   0.595848 0.947680 0.096819 -0.713495
H30   H     H_    0.618827 0.961435 0.017593 0.210195
H31   H     H_    0.523294 0.009582 0.156683 0.293915
H32   H     H_    0.687130 0.972860 0.128925 0.226391
C43   C     C_3   0.782811 0.170579 0.317380 -0.703364
H33   H     H_    0.838040 0.209986 0.387075 0.200418
H34   H     H_    0.745398 0.075247 0.297550 0.237322
H35   H     H_    0.854207 0.168435 0.241821 0.267191
S1    S     S_3+6 0.807372 0.334097 0.190008 -0.058447
O9    O     O_2   0.943925 0.365269 0.209556 -0.300871
O10   O     O_2   0.790959 0.205767 0.101432 -0.321390
O11   O     O_3   0.778704 0.426065 0.138548 -0.575910
H36   H     H_    0.837644 0.405786 0.064294 0.381527
S2    S     S_3+6 0.188677 0.038260 0.290288 -0.022852
O12   O     O_2   0.301848 0.970342 0.261335 -0.289034
O13   O     O_2   0.098694 0.959432 0.209306 -0.311478
O14   O     O_3   0.241057 0.166529 0.271264 -0.512877
H37   H     H_    0.162127 0.204897 0.287314 0.350614
C44   C     C_3   0.846968 0.147053 0.712495 -0.858028
H38   H     H_    0.891232 0.228247 0.696373 0.237482
H39   H     H_    0.741220 0.138848 0.719710 0.228176
H40   H     H_    0.865764 0.161575 0.795652 0.257966

loop_
_geom_bond_atom_site_label_1
_geom_bond_atom_site_label_2
_ccdc_geom_bond_type
C2    C35   S    
C7    C42   S    
C43   H33   S    
C18   C40   S    
C31   N1    A    
C36   H2    S    
C7    C8    A    
C22   H14   S    
C35   S2    S    
C11   C19   A    
C44   H38   S    
Cu2   O8    S    
C28   C29   A    
C37   C38   S    
C15   H4    S    
C15   C16   A    
S2    O14   S    
C17   C41   S    
Cu2   N2    S    
C34   C35   S    
C23   O5    A    
C39   H23   S    
O14   H37   S    
C8    C9    A    
S2    O13   D    
C9    C10   A    
C37   H18   S    
C33   O7    A    
C9    H6    S    
C44   H39   S    
Cu2   O4    S    
C21   C22   A    
C12   C38   S    
Cu1   O3    S    
C34   H1    S    
Cu1   N1    S    
C1    O1    A    
C29   H10   S    
C6    C18   A    
C20   S1    S    
C1    C19   S    
C27   C31   A    
C24   C25   A    
S1    O9    D    
C39   H22   S    
C5    C18   A    
C20   C28   A    
C24   H13   S    
C32   C43   S    
C12   O4    A    
C36   C44   S    
C23   O6    A    
C2    C4    S    
C40   H24   S    
C29   C30   A    
S1    O10   D    
C11   C16   A    
C12   O3    A    
C42   H30   S    
C3    H3    S    
S2    O12   D    
C4    H20   S    
Cu1   O7    S    
C16   H9    S    
C40   H25   S    
C5    C14   A    
C37   H19   S    
C33   O8    A    
C3    H17   S    
C2    C33   S    
C42   H31   S    
C26   C30   A    
C44   H40   S    
C7    C19   A    
C43   H34   S    
C22   C24   A    
C34   H8    S    
C1    O2    A    
Cu1   Cu2   S    
C41   H28   S    
C20   C32   A    
C6    C17   A    
C35   H16   S    
C34   C38   S    
Cu1   O5    S    
C31   H11   S    
C10   C13   A    
C32   N1    A    
C41   H29   S    
C25   C27   A    
Cu1   O1    S    
C30   H15   S    
Cu2   O2    S    
C13   C17   A    
C36   C38   S    
C2    C3    S    
C25   C26   A    
C8    H7    S    
C39   H21   S    
S1    O11   S    
C5    H5    S    
C3    C36   S    
C6    C23   S    
C21   H12   S    
C26   N2    A    
O11   H36   S    
C40   H26   S    
C10   C11   A    
C41   H27   S    
C42   H32   S    
C4    C37   S    
Cu2   O6    S    
C43   H35   S    
C27   C28   A    
C14   C15   A    
C21   N2    A    
C13   C14   A    
C4    C39   S    
