data_mof_unit_40170.cif
_audit_creation_date              2012-12-10T19:08:09-0500
_audit_creation_method            fapswitch 2.2
_symmetry_space_group_name_H-M    P1
_symmetry_Int_Tables_number       1
_space_group_crystal_system       triclinic
_cell_length_a                    9.084985
_cell_length_b                    10.796858
_cell_length_c                    9.601356
_cell_angle_alpha                 90.595986
_cell_angle_beta                  90.373182
_cell_angle_gamma                 89.07105
_cell_volume                      941.59653807

loop_
_atom_site_label
_atom_site_type_symbol
_atom_type_description
_atom_site_fract_x
_atom_site_fract_y
_atom_site_fract_z
_atom_type_partial_charge
C1    C     C_R   0.500034 0.262907 0.498782 0.789807
C2    C     C_R   0.608393 0.557317 0.928239 0.221551
C3    C     C_3   0.646193 0.691033 0.924970 -0.240793
C4    C     C_R   0.220911 0.497548 0.499583 0.846522
C5    C     C_3   0.649531 0.690542 0.083642 -0.539175
C6    C     C_R   0.500395 0.737497 0.500675 0.787559
C7    C     C_R   0.779187 0.498451 0.500229 0.837985
C8    C     C_1   0.065640 0.495540 0.499078 -0.165472
C9    C     C_1   0.934465 0.496096 0.500002 -0.167115
C10   C     C_R   0.393806 0.066876 0.571151 0.079675
C11   C     C_R   0.494971 0.130251 0.492770 -0.082639
C12   C     C_R   0.585764 0.933203 0.401802 -0.224627
C13   C     C_R   0.583814 0.062790 0.398667 -0.243565
C14   C     C_R   0.172606 0.129045 0.712846 0.170417
C15   C     C_R   0.115476 0.187926 0.832019 -0.158353
C16   C     C_R   0.969727 0.231553 0.834915 -0.129103
C17   C     C_R   0.878379 0.215192 0.719134 -0.103942
C18   C     C_R   0.932524 0.155092 0.600370 -0.164039
C19   C     C_R   0.078249 0.111612 0.596985 -0.131503
C20   C     C_R   0.288396 0.355585 0.135865 0.166522
C21   C     C_R   0.319512 0.231332 0.168279 -0.135621
C22   C     C_R   0.208870 0.156001 0.219581 -0.157765
C23   C     C_R   0.499934 0.871096 0.499796 -0.084071
C24   C     C_R   0.065457 0.202992 0.234112 -0.126502
C25   C     C_R   0.032447 0.325190 0.197097 -0.165011
C26   C     C_R   0.142999 0.400836 0.146231 -0.145981
C27   C     C_R   0.791639 0.712181 0.854388 0.193391
C28   C     C_R   0.798519 0.799075 0.746856 -0.116267
C29   C     C_R   0.925712 0.808387 0.667193 -0.156397
C30   C     C_R   0.048289 0.733495 0.696804 -0.129083
C31   C     C_R   0.045782 0.651768 0.808533 -0.123670
C32   C     C_R   0.917668 0.639941 0.886201 -0.151007
C33   C     C_R   0.398872 0.940424 0.578297 0.062404
C34   C     C_3   0.350604 0.944126 0.727512 -0.514130
C35   C     C_3   0.332788 0.084599 0.713598 -0.200765
C36   C     C_R   0.609040 0.557172 0.075070 0.204064
C37   C     C_R   0.401327 0.431790 0.070751 0.054392
C38   C     C_R   0.401907 0.433047 0.922639 -0.150023
Cu1   Cu    Cu3+1 0.499990 0.499980 0.640670 0.927351
Cu2   Cu    Cu3+1 0.500010 0.500020 0.359330 0.937927
H1    H     H_    0.656344 0.109821 0.328172 0.140248
H2    H     H_    0.184089 0.199520 0.922758 0.132900
H3    H     H_    0.927119 0.277730 0.926964 0.132212
H4    H     H_    0.765534 0.248476 0.721863 0.151488
H5    H     H_    0.861455 0.141817 0.510962 0.121256
H6    H     H_    0.116183 0.063813 0.504118 0.119360
H7    H     H_    0.429003 0.192694 0.152675 0.129100
H8    H     H_    0.233890 0.060715 0.246037 0.136537
H9    H     H_    0.979465 0.144191 0.272017 0.115476
H10   H     H_    0.920877 0.360876 0.206247 0.142546
H11   H     H_    0.116064 0.494913 0.116248 0.116653
H12   H     H_    0.553480 0.747858 0.883447 0.160237
H13   H     H_    0.704088 0.857114 0.721923 0.124301
H14   H     H_    0.928289 0.872014 0.580975 0.134318
H15   H     H_    0.144876 0.737788 0.631897 0.127673
H16   H     H_    0.141535 0.594980 0.832652 0.155243
H17   H     H_    0.915359 0.572061 0.968230 0.104848
H18   H     H_    0.760167 0.703586 0.131204 0.188149
H19   H     H_    0.560926 0.749717 0.129761 0.211887
H20   H     H_    0.658933 0.882115 0.332670 0.148243
H21   H     H_    0.245983 0.897440 0.747288 0.208960
H22   H     H_    0.440917 0.918834 0.800489 0.179759
H23   H     H_    0.406656 0.137596 0.784421 0.155316
H24   H     H_    0.321102 0.381403 0.864072 0.150642
N1    N     N_R   0.500920 0.500930 0.147930 -0.195809
N2    N     N_R   0.500930 0.500890 0.852020 -0.198931
O1    O     O_R   0.500000 0.319640 0.618810 -0.598684
O2    O     O_R   0.500020 0.319680 0.381230 -0.581548
O3    O     O_R   0.288380 0.499980 0.618770 -0.590810
O4    O     O_R   0.288400 0.500020 0.381190 -0.567126
O5    O     O_R   0.499980 0.680320 0.618770 -0.585471
O6    O     O_R   0.500000 0.680360 0.381190 -0.581402
O7    O     O_R   0.711600 0.499980 0.618810 -0.568518
O8    O     O_R   0.711620 0.500020 0.381230 -0.592005

loop_
_geom_bond_atom_site_label_1
_geom_bond_atom_site_label_2
_ccdc_geom_bond_type
C22   H8    S    
C1    C11   S    
C4    C8    S    
C4    O4    A    
C19   H6    S    
C7    O7    A    
C6    O6    A    
C12   C23   A    
C37   C38   A    
Cu2   O4    S    
C5    H18   S    
C28   C29   A    
C34   C35   S    
C30   C31   A    
C29   H14   S    
C15   C16   A    
C5    C36   S    
C34   H22   S    
C1    O2    A    
C18   C19   A    
C25   H10   S    
C38   N2    A    
C8    C9    T    
C23   C33   A    
C37   N1    A    
C10   C35   S    
C31   H16   S    
C21   C22   A    
C32   H17   S    
C13   H1    S    
C4    O3    A    
C17   C18   A    
C7    O8    A    
C38   H24   S    
C6    O5    A    
C5    H19   S    
C24   C25   A    
Cu1   Cu2   S    
C36   N1    A    
C16   C17   A    
C3    C5    S    
C25   C26   A    
C34   H21   S    
C29   C30   A    
C31   C32   A    
C28   H13   S    
C33   C34   S    
Cu1   O3    S    
C20   C21   A    
C16   H3    S    
Cu2   N1    S    
Cu1   N2    S    
C22   C24   A    
C18   H5    S    
C14   C35   S    
C2    C36   A    
C24   H9    S    
C7    C9    S    
Cu2   O6    S    
C27   C32   A    
Cu1   O1    S    
C14   C19   A    
C15   H2    S    
C2    N2    A    
C3    H12   S    
C30   H15   S    
C3    C27   S    
C2    C3    S    
C17   H4    S    
C26   H11   S    
C20   C37   S    
C11   C13   A    
C20   C26   A    
C6    C23   S    
C1    O1    A    
Cu2   O8    S    
C10   C33   A    
Cu1   O7    S    
C10   C11   A    
C12   H20   S    
C12   C13   A    
Cu2   O2    S    
C27   C28   A    
Cu1   O5    S    
C14   C15   A    
C35   H23   S    
C21   H7    S    
