data_mof_unit_41322.cif
_audit_creation_date              2012-12-10T16:51:14-0500
_audit_creation_method            fapswitch 2.2
_symmetry_space_group_name_H-M    P1
_symmetry_Int_Tables_number       1
_space_group_crystal_system       triclinic
_cell_length_a                    27.789427
_cell_length_b                    8.72051
_cell_length_c                    7.422203
_cell_angle_alpha                 102.806951
_cell_angle_beta                  94.397769
_cell_angle_gamma                 92.552637
_cell_volume                      1745.26478231

loop_
_atom_site_label
_atom_site_type_symbol
_atom_type_description
_atom_site_fract_x
_atom_site_fract_y
_atom_site_fract_z
_atom_type_partial_charge
C1    C     C_R   0.498561 0.200024 0.453625 0.808009
C2    C     C_R   0.501434 0.799976 0.546375 0.807028
C3    C     C_R   0.102162 0.501275 0.512815 -0.036544
C4    C     C_R   0.897461 0.493293 0.471605 -0.032621
C5    C     C_R   0.126327 0.371567 0.550036 -0.013469
C6    C     C_R   0.873305 0.623345 0.435341 -0.029137
C7    C     C_R   0.099669 0.242568 0.582244 -0.138899
C8    C     C_R   0.899915 0.751499 0.400836 -0.160752
C9    C     C_R   0.129509 0.632629 0.484963 -0.019999
C10   C     C_R   0.870141 0.362356 0.500674 -0.020156
C11   C     C_R   0.354428 0.494037 0.504875 -0.175470
C12   C     C_R   0.645612 0.504718 0.494356 -0.175311
C13   C     C_R   0.972512 0.363165 0.519789 0.044656
C14   C     C_R   0.027071 0.630392 0.461809 0.044865
C15   C     C_R   0.975700 0.627603 0.449327 0.046548
C16   C     C_R   0.023878 0.365903 0.532145 0.045568
C17   C     C_R   0.948787 0.494576 0.479946 0.070233
C18   C     C_R   0.050806 0.499252 0.502405 0.070824
C19   C     C_R   0.943702 0.232796 0.545424 -0.209262
C20   C     C_R   0.055882 0.760801 0.436295 -0.207690
C21   C     C_R   0.893651 0.232717 0.535789 -0.141994
C22   C     C_R   0.105963 0.761597 0.447947 -0.140947
C23   C     C_R   0.407423 0.497815 0.501671 0.836961
C24   C     C_R   0.592597 0.501859 0.498250 0.836335
C25   C     C_R   0.049585 0.239792 0.574568 -0.205944
C26   C     C_R   0.949975 0.753585 0.406609 -0.203328
C27   C     C_2   0.497931 0.033064 0.426970 0.295984
C28   C     C_2   0.502057 0.966935 0.573031 0.295513
C29   C     C_R   0.176876 0.373291 0.552160 0.584835
C30   C     C_R   0.822833 0.622818 0.436617 0.574013
C31   C     C_R   0.180060 0.630785 0.491782 0.613645
C32   C     C_R   0.819671 0.365444 0.497421 0.626222
C33   C     C_R   0.284053 0.556294 0.673870 -0.080543
C34   C     C_R   0.715561 0.448870 0.321223 -0.065659
C35   C     C_R   0.333996 0.554529 0.670837 -0.235081
C36   C     C_R   0.665714 0.450787 0.326102 -0.229573
C37   C     C_R   0.323964 0.430889 0.341882 0.556784
C38   C     C_R   0.676400 0.560775 0.658289 0.552033
C39   C     C_R   0.273393 0.430757 0.343637 -0.112120
C40   C     C_R   0.727058 0.560970 0.655000 -0.122463
C41   C     C_R   0.253672 0.496461 0.511942 0.204017
C42   C     C_R   0.746305 0.501893 0.483588 0.207816
Cu1   Cu    Cu3+1 0.505380 0.517380 0.684380 1.085823
Cu2   Cu    Cu3+1 0.494620 0.482620 0.315620 1.086015
H1    H     H_    0.462230 0.378049 0.948070 0.264975
H2    H     H_    0.537772 0.621945 0.051930 0.264694
H3    H     H_    0.117462 0.142470 0.613959 0.181376
H4    H     H_    0.882113 0.851643 0.369296 0.184053
H5    H     H_    0.642865 0.407801 0.198216 0.213811
H6    H     H_    0.356663 0.602948 0.797916 0.211707
H7    H     H_    0.730555 0.405460 0.190359 0.175455
H8    H     H_    0.268740 0.604745 0.802697 0.177427
H9    H     H_    0.873412 0.130591 0.558423 0.193591
H10   H     H_    0.126210 0.863900 0.425820 0.191682
H11   H     H_    0.958415 0.127853 0.573841 0.136235
H12   H     H_    0.041147 0.865374 0.406865 0.135196
H13   H     H_    0.032339 0.136144 0.603387 0.134007
H14   H     H_    0.967202 0.856714 0.376455 0.134306
N1    N     N_R   0.202442 0.500939 0.521031 -0.443761
N2    N     N_R   0.797385 0.496343 0.471189 -0.440895
N3    N     N_2   0.486510 0.456430 0.038510 -0.177390
N4    N     N_2   0.513490 0.543570 0.961490 -0.177442
O1    O     O_R   0.503500 0.286120 0.619780 -0.567134
O2    O     O_R   0.496500 0.713880 0.380220 -0.567168
O3    O     O_R   0.494410 0.256780 0.308360 -0.520135
O4    O     O_R   0.505590 0.743220 0.691640 -0.521134
O5    O     O_R   0.434810 0.514700 0.655690 -0.605971
O6    O     O_R   0.565190 0.485300 0.344310 -0.606683
O7    O     O_R   0.425720 0.485350 0.344280 -0.521477
O8    O     O_R   0.574280 0.514650 0.655720 -0.519956
O9    O     O_2   0.200298 0.247858 0.582491 -0.527440
O10   O     O_2   0.799383 0.748094 0.405809 -0.491430
O11   O     O_2   0.793098 0.240430 0.524466 -0.497717
O12   O     O_2   0.206639 0.756159 0.465720 -0.503159
F1    F     F_    0.343540 0.370382 0.180889 -0.610748
F2    F     F_    0.657064 0.614784 0.821559 -0.614860
C43   C     C_2   0.242082 0.360580 0.169805 0.919653
O13   O     O_2   0.201371 0.404095 0.145209 -0.606094
O14   O     O_R   0.259264 0.243837 0.032875 -0.660449
H15   H     H_    0.234595 0.204325 0.922525 0.365715
C44   C     C_2   0.758927 0.623972 0.830170 0.920745
O15   O     O_2   0.743302 0.713591 0.960652 -0.482040
O16   O     O_R   0.806676 0.581484 0.847983 -0.775740
H16   H     H_    0.824124 0.631942 0.973661 0.338636
F3    F     F_    0.493096 0.946719 0.248534 -0.620591
F4    F     F_    0.506890 0.053279 0.751466 -0.620615

loop_
_geom_bond_atom_site_label_1
_geom_bond_atom_site_label_2
_ccdc_geom_bond_type
C38   C40   A    
C8    C26   A    
C23   O7    A    
C34   C42   A    
C20   H12   S    
C44   O15   D    
Cu1   O1    S    
C39   C41   A    
C38   F2    S    
C43   O13   D    
Cu2   O2    S    
C33   H8    S    
C34   H7    S    
H2    N4    S    
C39   C43   S    
C19   C21   A    
C9    C22   A    
C31   N1    A    
C3    C18   A    
C11   C37   A    
C23   O5    A    
C27   F3    S    
C14   C18   A    
C29   N1    A    
C30   N2    A    
C1    O3    A    
C12   C36   A    
H1    N3    S    
C40   C42   A    
C37   F1    S    
Cu2   O3    S    
C25   H13   S    
C1    O1    A    
C44   O16   S    
C2    O2    A    
C5    C29   A    
C43   O14   S    
C10   C21   A    
C13   C19   A    
C24   O8    A    
C14   C20   A    
C41   N1    S    
C22   H10   S    
C42   N2    S    
C32   O11   S    
C5    C7    A    
C9    C31   A    
C15   C26   A    
C6    C8    A    
C3    C5    A    
C7    H3    S    
Cu1   Cu2   S    
C8    H4    S    
Cu1   O5    S    
C3    C9    A    
O16   H16   S    
C35   H6    S    
Cu2   O7    S    
C26   H14   S    
C4    C17   A    
C4    C6    A    
C6    C30   A    
C20   C22   A    
Cu1   O8    S    
C28   F4    S    
Cu2   O6    S    
C32   N2    A    
C4    C10   A    
C19   H11   S    
C16   C25   A    
C15   C17   A    
C40   C44   S    
C2    O4    A    
C30   O10   S    
Cu2   N3    S    
C12   C24   S    
C7    C25   A    
C13   C17   A    
C33   C41   A    
C11   C35   A    
C37   C39   A    
C21   H9    S    
Cu1   O4    S    
C11   C23   S    
C33   C35   A    
C34   C36   A    
C12   C38   A    
N3    N4    D    
C31   O12   S    
C24   O6    A    
O14   H15   S    
C10   C32   A    
C16   C18   A    
C13   C16   A    
C27   C28   D    
C1    C27   S    
C14   C15   A    
C2    C28   S    
C36   H5    S    
Cu1   N4    S    
C29   O9    S    
