data_mof_unit_59399.cif
_audit_creation_date              2012-12-10T20:42:43-0500
_audit_creation_method            fapswitch 2.2
_symmetry_space_group_name_H-M    P1
_symmetry_Int_Tables_number       1
_space_group_crystal_system       triclinic
_cell_length_a                    8.901778
_cell_length_b                    10.680889
_cell_length_c                    9.902213
_cell_angle_alpha                 89.907438
_cell_angle_beta                  90.046366
_cell_angle_gamma                 90.226233
_cell_volume                      941.482675265

loop_
_atom_site_label
_atom_site_type_symbol
_atom_type_description
_atom_site_fract_x
_atom_site_fract_y
_atom_site_fract_z
_atom_type_partial_charge
Br1   Br    Br    0.147917 0.579603 0.120937 -0.495199
C1    C     C_R   0.504242 0.260102 0.500116 0.863567
C2    C     C_R   0.410468 0.418438 0.928557 0.151731
C3    C     C_3   0.244305 0.408365 0.917335 -0.512693
C4    C     C_R   0.218840 0.499925 0.499962 0.940924
C5    C     C_3   0.237964 0.420445 0.069983 0.088279
C6    C     C_R   0.504065 0.739959 0.499918 0.880165
C7    C     C_R   0.781177 0.500145 0.500047 0.926343
C8    C     C_1   0.065449 0.500010 0.499972 -0.167406
C9    C     C_1   0.934575 0.500102 0.500047 -0.165993
C10   C     C_R   0.527894 0.063782 0.622594 0.138868
C11   C     C_R   0.527213 0.128738 0.500618 -0.099752
C12   C     C_R   0.553357 0.935806 0.379056 -0.195995
C13   C     C_R   0.554054 0.065167 0.379235 -0.223824
C14   C     C_1   0.702854 0.652492 0.140601 0.253431
C15   C     C_R   0.526649 0.871559 0.500348 -0.102466
C16   C     C_R   0.527748 0.936031 0.622468 0.120175
C17   C     C_3   0.421873 0.928477 0.739428 -0.452738
C18   C     C_3   0.422001 0.070449 0.739500 -0.484375
C19   C     C_R   0.406584 0.421812 0.070598 0.115762
C20   C     C_R   0.598975 0.571764 0.071182 0.025362
C21   C     C_R   0.598258 0.571946 0.927492 -0.134955
H1    H     H_    0.564921 0.114240 0.283881 0.174072
H2    H     H_    0.193532 0.488104 0.861692 0.253372
H3    H     H_    0.208757 0.314528 0.880556 0.169239
H4    H     H_    0.189855 0.336705 0.121057 0.130455
H5    H     H_    0.563130 0.887347 0.283541 0.180806
H6    H     H_    0.311281 0.886911 0.711845 0.210998
H7    H     H_    0.475781 0.887382 0.830527 0.209739
H8    H     H_    0.311516 0.111566 0.711904 0.201965
H9    H     H_    0.475895 0.111485 0.830662 0.206048
H10   H     H_    0.674988 0.632033 0.872331 0.149279
N1    N     N_R   0.499010 0.499140 0.142800 -0.109819
N2    N     N_R   0.499010 0.499180 0.857150 -0.095682
N3    N     N_1   0.786862 0.717683 0.195820 -0.177657
O1    O     O_R   0.500020 0.316790 0.614690 -0.615456
O2    O     O_R   0.500000 0.316760 0.385350 -0.633436
O3    O     O_R   0.285350 0.500020 0.614650 -0.630502
O4    O     O_R   0.285340 0.499980 0.385310 -0.568093
O5    O     O_R   0.500000 0.683240 0.614650 -0.621049
O6    O     O_R   0.499980 0.683210 0.385310 -0.610072
O7    O     O_R   0.714660 0.500020 0.614690 -0.622543
O8    O     O_R   0.714650 0.499980 0.385350 -0.608140
Zn1   Zn    Zn3+2 0.500010 0.500020 0.653130 0.949558
Zn2   Zn    Zn3+2 0.499990 0.499980 0.346870 0.987707

loop_
_geom_bond_atom_site_label_1
_geom_bond_atom_site_label_2
_ccdc_geom_bond_type
C13   H1    S    
C10   C11   A    
O7    Zn1   S    
O3    Zn1   S    
N1    Zn2   S    
C8    C9    T    
O5    Zn1   S    
C7    O8    A    
O4    Zn2   S    
C6    O5    A    
C18   H9    S    
C20   C21   A    
C4    O4    A    
C3    H3    S    
C1    C11   S    
C2    C19   A    
C17   H7    S    
C12   C13   A    
C4    C8    S    
O8    Zn2   S    
C1    O2    A    
C10   C18   S    
C5    H4    S    
C21   H10   S    
C5    C19   S    
C21   N2    A    
C19   N1    A    
C14   N3    T    
C6    C15   S    
C11   C13   A    
C16   C17   S    
C6    O6    A    
C3    H2    S    
O1    Zn1   S    
C20   N1    A    
O2    Zn2   S    
C2    C3    S    
C14   C20   S    
C17   H6    S    
C3    C5    S    
C17   C18   S    
C12   C15   A    
C1    O1    A    
N2    Zn1   S    
O6    Zn2   S    
C12   H5    S    
C2    N2    A    
C4    O3    A    
C18   H8    S    
C7    C9    S    
C10   C16   A    
Br1   C5    S    
C7    O7    A    
C15   C16   A    
