data_mof_unit_25055.cif
_audit_creation_date              2013-03-05T15:52:56-0500
_audit_creation_method            fapswitch 2.2
_symmetry_space_group_name_H-M    P1
_symmetry_Int_Tables_number       1
_space_group_crystal_system       triclinic
_cell_length_a                    10.894938
_cell_length_b                    10.822636
_cell_length_c                    17.031526
_cell_angle_alpha                 100.027299
_cell_angle_beta                  100.420076
_cell_angle_gamma                 60.224897
_cell_volume                      1705.97135837

loop_
_atom_site_label
_atom_site_type_symbol
_atom_site_description
_atom_site_fract_x
_atom_site_fract_y
_atom_site_fract_z
_atom_type_partial_charge
O1    O     O_R   0.749810 0.499790 0.438040 -0.512449
O2    O     O_R   0.477660 0.726260 0.439290 -0.505284
C1    C     C_R   0.356516 0.765164 0.396940 0.593977
O3    O     O_R   0.260150 0.743000 0.412270 -0.468293
O4    O     O_R   0.297740 0.466550 0.394720 -0.492161
C2    C     C_R   0.370928 0.347035 0.357173 0.553026
O5    O     O_R   0.488080 0.253500 0.386430 -0.481971
O6    O     O_R   0.722670 0.303800 0.421940 -0.487985
C3    C     C_R   0.783111 0.372749 0.407515 0.545765
O7    O     O_R   0.751130 0.502220 0.613520 -0.514109
O8    O     O_R   0.478890 0.728510 0.601960 -0.492091
C4    C     C_R   0.359239 0.766804 0.627710 0.567318
O9    O     O_R   0.261470 0.745430 0.587750 -0.497446
O10   O     O_R   0.298970 0.468800 0.557390 -0.497564
C5    C     C_R   0.373878 0.348390 0.586852 0.575383
O11   O     O_R   0.489400 0.255930 0.561910 -0.512511
O12   O     O_R   0.723890 0.306050 0.584610 -0.480519
C6    C     C_R   0.780980 0.377354 0.628084 0.567990
Cr1   Cr    Cr6+3 0.608100 0.610860 0.522250 1.050145
Cr2   Cr    Cr6+3 0.288890 0.599990 0.488420 1.092684
Cr3   Cr    Cr6+3 0.603040 0.289190 0.489390 1.080780
O13   O     O_3   0.500010 0.500010 0.500020 -0.275003
C7    C     C_1   0.347307 0.337595 0.273608 -0.060309
C8    C     C_1   0.335513 0.328028 0.202666 -0.043733
H1    H     H_    0.908349 0.499514 0.357601 0.169852
C9    C     C_R   0.878768 0.317387 0.176740 0.025397
C10   C     C_R   0.861131 0.209553 0.204845 0.011414
C11   C     C_R   0.879085 0.202925 0.288474 -0.026659
C12   C     C_R   0.898140 0.417074 0.314883 -0.144292
C13   C     C_R   0.911711 0.412098 0.235561 -0.025889
C14   C     C_R   0.838984 0.099906 0.155387 0.005587
C15   C     C_R   0.888600 0.968797 0.186280 -0.134816
C16   C     C_R   0.932681 0.956022 0.268117 0.145283
C17   C     C_R   0.916988 0.075746 0.319557 -0.033945
C18   C     C_R   0.865998 0.322507 0.339708 -0.000440
H2    H     H_    0.883654 0.879895 0.148220 0.177416
H3    H     H_    0.941695 0.067211 0.383591 0.186471
H4    H     H_    0.254631 0.661570 0.266531 0.179310
C19   C     C_R   0.357204 0.817380 0.158105 0.035415
C20   C     C_R   0.439722 0.859447 0.220282 -0.005231
C21   C     C_R   0.410600 0.875913 0.300448 -0.024008
C22   C     C_R   0.291986 0.731519 0.254810 -0.133848
C23   C     C_R   0.292615 0.744327 0.176160 -0.135964
C24   C     C_R   0.552854 0.880090 0.207167 0.161068
C25   C     C_R   0.623396 0.926442 0.271677 -0.043993
C26   C     C_R   0.588247 0.951067 0.349420 0.123952
C27   C     C_R   0.469218 0.944112 0.362446 0.028999
C28   C     C_R   0.340801 0.805093 0.317304 0.045964
H5    H     H_    0.238065 0.701500 0.129432 0.157194
H6    H     H_    0.708709 0.940285 0.261051 0.194150
H7    H     H_    0.128936 0.500830 0.658052 0.141917
C29   C     C_R   0.277951 0.253470 0.793024 -0.015310
C30   C     C_R   0.395588 0.146800 0.752520 0.013401
C31   C     C_R   0.436882 0.187775 0.693556 0.064532
C32   C     C_R   0.205979 0.404386 0.685666 -0.141397
C33   C     C_R   0.179275 0.377763 0.756156 -0.148966
C34   C     C_R   0.484297 0.005547 0.773977 -0.115393
C35   C     C_R   0.607672 0.910650 0.738478 -0.122154
C36   C     C_R   0.660753 0.963819 0.693486 -0.139968
C37   C     C_R   0.584152 0.109045 0.683148 0.057811
C38   C     C_R   0.337196 0.313845 0.655802 0.033942
H8    H     H_    0.465241 0.966538 0.819272 0.174386
H9    H     H_    0.084868 0.457368 0.783650 0.143465
H10   H     H_    0.670930 0.802036 0.754734 0.143172
H11   H     H_    0.769912 0.899520 0.679805 0.113234
C39   C     C_1   0.855553 0.327317 0.704389 -0.015168
C40   C     C_1   0.901772 0.291809 0.771505 -0.031012
C41   C     C_1   0.340313 0.805681 0.710044 -0.031973
C42   C     C_1   0.312895 0.834045 0.777934 -0.042099
O14   O     O_R   0.171100 0.914680 0.053100 -0.525941
O15   O     O_R   0.941680 0.184840 0.050710 -0.494474
C43   C     C_R   0.908376 0.304261 0.093674 0.607359
O16   O     O_R   0.922080 0.403420 0.072610 -0.430690
O17   O     O_R   0.196880 0.369150 0.083850 -0.490760
C44   C     C_R   0.320217 0.300812 0.119422 0.583426
O18   O     O_R   0.411730 0.181020 0.091530 -0.474096
O19   O     O_R   0.365010 0.944360 0.063320 -0.457404
C45   C     C_R   0.298126 0.888724 0.084467 0.568818
O20   O     O_R   0.159380 0.906670 0.876210 -0.506871
O21   O     O_R   0.930820 0.177420 0.886730 -0.464346
C46   C     C_R   0.945634 0.272318 0.855126 0.534475
O22   O     O_R   0.910360 0.395420 0.895720 -0.485525
O23   O     O_R   0.186010 0.361730 0.919870 -0.501062
C47   C     C_R   0.274488 0.246486 0.877997 0.533347
O24   O     O_R   0.400000 0.173010 0.914630 -0.478454
O25   O     O_R   0.354140 0.936940 0.899340 -0.538816
C48   C     C_R   0.278538 0.884282 0.857656 0.541555
Cr4   Cr    Cr6+3 0.053960 0.052250 0.967380 1.036616
Cr5   Cr    Cr6+3 0.059890 0.373160 0.992710 1.084955
Cr6   Cr    Cr6+3 0.373370 0.061690 0.991710 1.061119
O26   O     O_3   0.162410 0.162370 0.983930 -0.336009
Br1   Br    Br    0.715291 0.975744 0.437488 -0.487767
C49   C     C_2   0.403083 0.015717 0.438134 0.266371
H12   H     H_    0.466430 0.027757 0.492716 0.154625
O27   O     O_2   0.275159 0.066285 0.439435 -0.537992
C50   C     C_2   0.668064 0.183813 0.698779 0.299581
H13   H     H_    0.779271 0.125671 0.688409 0.095869
O28   O     O_2   0.615495 0.308436 0.727870 -0.498115
C51   C     C_2   0.744622 0.124756 0.078609 0.299223
H14   H     H_    0.745700 0.034648 0.038419 0.111048
O29   O     O_2   0.660624 0.245899 0.061056 -0.465995
C52   C     C_2   0.978661 0.496211 0.223302 0.289887
H15   H     H_    0.072187 0.485492 0.262649 0.119659
O30   O     O_2   0.923973 0.588368 0.177282 -0.408058
Br2   Br    Br    0.987984 0.784615 0.313647 -0.505367
Br3   Br    Br    0.649272 0.805788 0.111561 -0.426638

loop_
_geom_bond_atom_site_label_1
_geom_bond_atom_site_label_2
_geom_bond_distance
_ccdc_geom_bond_type
C32   C33   1.392509 A    
C49   H12   1.082840 S    
O14   C45   1.295491 A    
C17   H3    1.083777 S    
C9    C43   1.474882 S    
O14   Cr4   2.042717 S    
O20   C48   1.285788 A    
C46   O22   1.291319 A    
Cr6   O26   1.985004 S    
C34   H8    1.036757 S    
O4    Cr2   1.938161 S    
C31   C37   1.422774 A    
C30   C31   1.387172 A    
C24   C25   1.391049 A    
C4    C41   1.413815 S    
O8    Cr1   1.937810 S    
C9    C10   1.441727 A    
O11   Cr3   2.082936 S    
O22   Cr5   2.053322 S    
C15   H2    1.081891 S    
O17   Cr5   1.939078 S    
H4    C22   1.080095 S    
O4    C2    1.260890 A    
C26   Br1   1.927083 S    
C5    O11   1.249144 A    
C1    C28   1.449933 S    
O12   C6    1.281320 A    
C29   C47   1.470466 S    
C51   H14   1.085718 S    
C11   C18   1.387502 A    
O6    C3    1.288876 A    
C50   O28   1.222850 D    
C7    C8    1.183464 T    
C14   C51   1.483493 S    
Cr5   O26   1.971077 S    
C42   C48   1.415608 S    
C43   O16   1.270931 A    
C39   C40   1.208489 T    
C11   C17   1.398368 A    
C36   C37   1.392216 A    
C49   O27   1.221417 D    
Cr3   O13   1.970933 S    
H1    C12   1.086739 S    
C5    C38   1.466155 S    
O20   Cr4   2.051464 S    
C16   C17   1.383670 A    
C35   H10   1.083097 S    
O23   Cr5   1.958764 S    
O19   Cr6   1.950025 S    
O1    Cr1   2.059857 S    
O17   C44   1.262620 A    
C10   C14   1.427842 A    
C19   C45   1.461165 S    
O10   Cr2   1.946035 S    
Cr1   O13   2.013243 S    
C16   Br2   1.904587 S    
C47   O24   1.294483 A    
O25   Cr6   1.940040 S    
C19   C20   1.425199 A    
C30   C34   1.415631 A    
O25   C48   1.273202 A    
C41   C42   1.196123 T    
C19   C23   1.389354 A    
C35   C36   1.377364 A    
O19   C45   1.276533 A    
O12   Cr3   1.939097 S    
C44   O18   1.254431 A    
C12   C13   1.374379 A    
O23   C47   1.318424 A    
Cr4   O26   2.014202 S    
O7    Cr1   2.041477 S    
O24   Cr6   2.072389 S    
C50   H13   1.084713 S    
C13   C52   1.478203 S    
O6    Cr3   1.962901 S    
C21   C27   1.421422 A    
C33   H9    1.083088 S    
O1    C3    1.271294 A    
C22   C28   1.403729 A    
C52   O30   1.215396 D    
C37   C50   1.460523 S    
C20   C21   1.418594 A    
C51   O29   1.221347 D    
Cr2   O13   1.984602 S    
C9    C13   1.435561 A    
C22   C23   1.372053 A    
C1    O3    1.264553 A    
C29   C30   1.422749 A    
C26   C27   1.394081 A    
C27   C49   1.488266 S    
O9    Cr2   2.053614 S    
O2    Cr1   1.923849 S    
C14   C15   1.406327 A    
C23   H5    1.084189 S    
O21   C46   1.326342 A    
O8    C4    1.292429 A    
C8    C44   1.393729 S    
C40   C46   1.435097 S    
C2    O5    1.250791 A    
C31   C38   1.426803 A    
C24   Br3   1.930119 S    
C6    C39   1.438222 S    
C12   C18   1.381689 A    
C15   C16   1.396971 A    
O2    C1    1.284140 A    
O16   Cr5   2.075788 S    
O15   C43   1.280029 A    
O21   Cr4   1.923048 S    
O5    Cr3   2.059870 S    
C36   H11   1.083853 S    
C34   C35   1.390597 A    
C25   H6    1.061946 S    
O7    C6    1.282404 A    
C2    C7    1.394721 S    
C32   C38   1.400279 A    
C21   C28   1.408070 A    
H7    C32   1.083137 S    
C52   H15   1.078664 S    
O15   Cr4   1.935245 S    
O3    Cr2   2.060687 S    
C25   C26   1.389248 A    
C20   C24   1.417563 A    
C4    O9    1.256577 A    
C10   C11   1.411727 A    
C3    C18   1.454565 S    
O10   C5    1.280367 A    
C29   C33   1.404697 A    
O18   Cr6   2.060900 S    
