data_mof_unit_28803.cif
_audit_creation_date              2012-12-10T19:00:49-0500
_audit_creation_method            fapswitch 2.2
_symmetry_space_group_name_H-M    P1
_symmetry_Int_Tables_number       1
_space_group_crystal_system       triclinic
_cell_length_a                    15.032432
_cell_length_b                    10.826461
_cell_length_c                    9.605426
_cell_angle_alpha                 89.675207
_cell_angle_beta                  89.298595
_cell_angle_gamma                 91.305455
_cell_volume                      1562.71372582

loop_
_atom_site_label
_atom_site_type_symbol
_atom_type_description
_atom_site_fract_x
_atom_site_fract_y
_atom_site_fract_z
_atom_type_partial_charge
C1    C     C_R   0.501632 0.262356 0.500118 0.815021
C2    C     C_R   0.186543 0.419143 0.413992 -0.230209
C3    C     C_R   0.232627 0.498447 0.502470 -0.070157
C4    C     C_R   0.329068 0.499922 0.500766 0.815750
C5    C     C_R   0.186885 0.575941 0.592475 -0.233288
C6    C     C_R   0.517306 0.062563 0.623315 0.132568
C7    C     C_R   0.511076 0.129175 0.499067 -0.095048
C8    C     C_R   0.519192 0.065475 0.372301 -0.153440
C9    C     C_R   0.520268 0.936658 0.371744 -0.211652
C10   C     C_R   0.513238 0.870622 0.498015 -0.098338
C11   C     C_R   0.518756 0.935377 0.622703 0.120477
C12   C     C_R   0.906360 0.574940 0.588515 0.073981
C13   C     C_3   0.462082 0.923594 0.750783 -0.450188
C14   C     C_3   0.459291 0.063341 0.750501 -0.472465
C15   C     C_R   0.543227 0.591627 0.070716 0.181564
C16   C     C_R   0.502748 0.737430 0.499447 0.790784
C17   C     C_R   0.447473 0.418973 0.075988 -0.012693
C18   C     C_R   0.444716 0.422155 0.926803 0.278013
C19   C     C_R   0.540378 0.594180 0.924726 0.186448
C20   C     C_3   0.633290 0.642238 0.909587 -0.527540
C21   C     C_3   0.639602 0.632388 0.067659 -0.274615
C22   C     C_R   0.670821 0.497883 0.499690 0.799524
C23   C     C_R   0.956326 0.325853 0.329510 -0.036657
C24   C     C_R   0.813895 0.577372 0.580432 -0.233222
C25   C     C_R   0.767387 0.491683 0.500384 -0.120275
C26   C     C_R   0.812018 0.398339 0.428745 -0.057909
C27   C     C_R   0.906338 0.403215 0.419572 0.036854
C28   C     C_R   0.953071 0.490739 0.504199 -0.015324
C29   C     C_1   0.394513 0.326821 0.150048 0.294932
C30   C     C_3   0.290876 0.388478 0.865518 -0.633230
C31   C     C_1   0.702081 0.535511 0.104807 0.343919
C32   C     C_1   0.759825 0.293286 0.379426 0.272824
C33   C     C_1   0.916913 0.244384 0.227417 0.272426
C34   C     C_R   0.048903 0.332864 0.329377 -0.249321
C35   C     C_1   0.092649 0.740623 0.774067 0.223270
C36   C     C_3   0.879088 0.685716 0.899366 -0.658386
C37   C     C_R   0.094013 0.414838 0.416216 0.116924
C38   C     C_R   0.046676 0.494072 0.504872 0.053939
C39   C     C_R   0.093435 0.576646 0.593474 0.026815
C40   C     C_R   0.046086 0.657556 0.680372 -0.085827
C41   C     C_R   0.952465 0.657171 0.677511 0.197135
Cu1   Cu    Cu3+1 0.500000 0.499980 0.640670 0.966201
Cu2   Cu    Cu3+1 0.500000 0.500020 0.359330 0.974126
H1    H     H_    0.776732 0.645687 0.637489 0.178697
H2    H     H_    0.086378 0.274203 0.259745 0.153982
H3    H     H_    0.222903 0.358896 0.345344 0.166076
H4    H     H_    0.225053 0.637190 0.658998 0.148946
H5    H     H_    0.520378 0.114191 0.273492 0.177095
H6    H     H_    0.384921 0.255366 0.883991 0.224402
H7    H     H_    0.261042 0.364503 0.968738 0.202570
H8    H     H_    0.250371 0.342430 0.784141 0.231687
H9    H     H_    0.287902 0.490128 0.850394 0.237628
H10   H     H_    0.931119 0.826315 0.772817 0.268979
H11   H     H_    0.939239 0.671318 0.963033 0.237723
H12   H     H_    0.521709 0.889387 0.272678 0.163561
H13   H     H_    0.843072 0.595917 0.886150 0.238673
H14   H     H_    0.834509 0.749570 0.955352 0.232595
H15   H     H_    0.396309 0.878226 0.731233 0.206475
H16   H     H_    0.499075 0.885422 0.840190 0.195635
H17   H     H_    0.391844 0.098030 0.728338 0.205282
H18   H     H_    0.493845 0.105467 0.840856 0.198378
H19   H     H_    0.676674 0.578949 0.850356 0.223396
H20   H     H_    0.635767 0.739284 0.871107 0.188936
H21   H     H_    0.652407 0.722262 0.119898 0.149478
N1    N     N_R   0.500570 0.500930 0.147930 -0.222092
N2    N     N_R   0.500570 0.500890 0.852020 -0.192829
N3    N     N_1   0.351905 0.251642 0.207500 -0.332890
N4    N     N_2   0.381746 0.346751 0.855463 -0.380989
N5    N     N_1   0.752262 0.459483 0.129946 -0.289125
N6    N     N_1   0.717662 0.209745 0.340936 -0.275988
N7    N     N_1   0.886153 0.179130 0.144989 -0.258592
N8    N     N_1   0.129775 0.806865 0.848876 -0.289204
N9    N     N_2   0.903921 0.738332 0.765304 -0.443147
O1    O     O_R   0.500000 0.319640 0.618810 -0.559382
O2    O     O_R   0.500010 0.319680 0.381230 -0.576911
O3    O     O_R   0.370250 0.499950 0.618800 -0.558099
O4    O     O_R   0.370260 0.499990 0.381220 -0.576558
O5    O     O_R   0.499990 0.680320 0.618770 -0.581712
O6    O     O_R   0.500000 0.680360 0.381190 -0.588126
O7    O     O_R   0.629740 0.500010 0.618780 -0.589906
O8    O     O_R   0.629750 0.500050 0.381200 -0.568354

loop_
_geom_bond_atom_site_label_1
_geom_bond_atom_site_label_2
_ccdc_geom_bond_type
C30   H8    S    
C26   C32   S    
H6    N4    S    
C34   C37   A    
C17   C29   S    
C19   C20   S    
C7    C8    A    
C2    H3    S    
C15   C19   A    
C21   C31   S    
C26   C27   A    
C12   C41   A    
C12   C28   A    
C1    O1    A    
Cu1   O7    S    
Cu2   O6    S    
C15   N1    A    
C19   N2    A    
C21   H21   S    
C29   N3    T    
C8    C9    A    
C23   C33   S    
C22   C25   S    
C9    H12   S    
C23   C27   A    
C9    C10   A    
C30   H7    S    
C13   C14   S    
Cu2   O2    S    
Cu1   O1    S    
C1    O2    A    
C22   O8    A    
C24   C25   A    
C36   H14   S    
C10   C11   A    
C39   C40   A    
C32   N6    T    
C13   H15   S    
C25   C26   A    
C14   H18   S    
C8    H5    S    
C37   C38   A    
C36   H13   S    
C6    C14   S    
C5    H4    S    
C31   N5    T    
C28   C38   A    
Cu2   N1    S    
C23   C34   A    
C17   C18   A    
C34   H2    S    
C40   C41   A    
C35   N8    T    
Cu1   O5    S    
C5    C39   A    
C24   H1    S    
C18   N2    A    
Cu1   Cu2   S    
C3    C4    S    
C6    C11   A    
C30   H9    S    
C1    C7    S    
C17   N1    A    
H10   N9    S    
C3    C5    A    
C6    C7    A    
C13   H16   S    
Cu2   O4    S    
C14   H17   S    
C12   C24   A    
Cu1   O3    S    
C16   O6    A    
C20   H20   S    
C35   C40   S    
C22   O7    A    
C4    O4    A    
C10   C16   S    
C11   C13   S    
C2    C37   A    
C38   C39   A    
Cu2   O8    S    
C2    C3    A    
C16   O5    A    
C20   H19   S    
C4    O3    A    
C36   H11   S    
C36   N9    S    
C33   N7    T    
C41   N9    S    
C15   C21   S    
C20   C21   S    
C27   C28   A    
Cu1   N2    S    
C18   N4    S    
C30   N4    S    
