data_mof_unit_34338.cif
_audit_creation_date              2012-12-11T15:55:42-0500
_audit_creation_method            fapswitch 2.2
_symmetry_space_group_name_H-M    P1
_symmetry_Int_Tables_number       1
_space_group_crystal_system       triclinic
_cell_length_a                    11.08077
_cell_length_b                    11.092286
_cell_length_c                    18.756584
_cell_angle_alpha                 90.993959
_cell_angle_beta                  91.238871
_cell_angle_gamma                 58.955848
_cell_volume                      1974.67751252

loop_
_atom_site_label
_atom_site_type_symbol
_atom_type_description
_atom_site_fract_x
_atom_site_fract_y
_atom_site_fract_z
_atom_type_partial_charge
C1    C     C_R   0.362032 0.760841 0.394431 0.538137
C2    C     C_R   0.638197 0.114354 0.161783 0.071331
C3    C     C_R   0.375007 0.331089 0.157601 -0.036739
C4    C     C_R   0.493297 0.237214 0.270208 0.183279
C5    C     C_R   0.498172 0.228432 0.195394 0.004257
C6    C     C_R   0.059219 0.632592 0.351081 -0.076781
C7    C     C_R   0.921921 0.701950 0.376082 -0.098255
C8    C     C_R   0.660163 0.994021 0.121769 -0.080776
C9    C     C_R   0.794007 0.886742 0.101405 -0.148483
C10   C     C_R   0.266746 0.446413 0.193447 -0.194880
C11   C     C_R   0.251706 0.446597 0.267148 -0.067053
C12   C     C_R   0.387267 0.355247 0.385962 0.584211
C13   C     C_R   0.818914 0.692233 0.338057 -0.056136
C14   C     C_R   0.851110 0.622937 0.272775 -0.085976
C15   C     C_R   0.991175 0.540519 0.252071 -0.058015
C16   C     C_R   0.101325 0.537472 0.293046 0.061335
C17   C     C_R   0.370891 0.343164 0.307575 0.047627
C18   C     C_R   0.866601 0.334274 0.183743 0.010622
C19   C     C_R   0.958655 0.237615 0.233915 -0.032126
C20   C     C_R   0.925427 0.247883 0.304203 0.012133
C21   C     C_R   0.695887 0.445704 0.277089 -0.167971
C22   C     C_R   0.728955 0.433174 0.204375 -0.192067
C23   C     C_R   0.770532 0.381805 0.401779 0.547106
C24   C     C_3   0.110964 0.175102 0.249572 -0.199339
C25   C     C_3   0.074039 0.187491 0.328355 0.077516
C26   C     C_R   0.800638 0.360176 0.327632 0.052958
C27   C     C_R   0.370907 0.817758 0.171128 0.004148
C28   C     C_R   0.454910 0.843232 0.219421 -0.026515
C29   C     C_R   0.445412 0.830729 0.292341 -0.012671
C30   C     C_R   0.301144 0.732207 0.270522 -0.167077
C31   C     C_R   0.309106 0.744664 0.197324 -0.158944
C32   C     C_3   0.467795 0.968783 0.233604 -0.255261
C33   C     C_3   0.446800 0.959814 0.311775 -0.251969
C34   C     C_R   0.348780 0.760006 0.607038 0.549637
C35   C     C_R   0.359761 0.786595 0.318929 0.004584
C36   C     C_R   0.299117 0.308676 0.809032 0.021526
C37   C     C_R   0.375733 0.189214 0.765985 0.044977
C38   C     C_R   0.383869 0.198674 0.693680 0.015733
C39   C     C_R   0.221222 0.449205 0.702104 -0.162689
C40   C     C_R   0.212885 0.438518 0.775920 -0.180784
C41   C     C_3   0.525214 0.071207 0.772456 -0.263628
C42   C     C_3   0.533374 0.078377 0.692447 -0.274584
C43   C     C_R   0.317455 0.330319 0.661553 0.017221
C44   C     C_R   0.802264 0.344390 0.837901 0.017813
C45   C     C_R   0.369328 0.350930 0.595395 0.559022
C46   C     C_R   0.775960 0.465951 0.801459 0.032151
C47   C     C_R   0.767399 0.470837 0.728687 0.037829
C48   C     C_R   0.778758 0.249005 0.724348 -0.163649
C49   C     C_R   0.787401 0.242953 0.799357 -0.172854
C50   C     C_3   0.851461 0.546945 0.801895 -0.265363
C51   C     C_3   0.842266 0.549244 0.721665 -0.280261
C52   C     C_R   0.781024 0.358606 0.688430 0.019003
C53   C     C_R   0.317040 0.812707 0.832278 0.017763
C54   C     C_R   0.218034 0.797188 0.792137 0.018429
C55   C     C_R   0.227953 0.784158 0.719003 0.033099
C56   C     C_R   0.756888 0.380255 0.612111 0.543752
C57   C     C_R   0.448480 0.776461 0.724302 -0.154478
C58   C     C_R   0.440817 0.785442 0.798671 -0.152268
C59   C     C_3   0.061397 0.889050 0.787901 -0.271833
C60   C     C_3   0.072667 0.873605 0.707634 -0.278876
C61   C     C_R   0.335753 0.787156 0.683379 0.018493
C62   C     C_R   0.911885 0.316230 0.111429 0.543508
C63   C     C_R   0.333154 0.295893 0.089813 0.544676
C64   C     C_R   0.310435 0.896945 0.104863 0.531692
C65   C     C_R   0.878544 0.312277 0.906013 0.543178
C66   C     C_R   0.293955 0.286876 0.884584 0.548955
C67   C     C_R   0.912204 0.890142 0.123680 -0.091051
C68   C     C_R   0.277561 0.889915 0.899491 0.544094
C69   C     C_R   0.896030 0.000806 0.166359 -0.067741
C70   C     C_R   0.761219 0.111850 0.183652 -0.073004
Cr1   Cr    Cr6+3 0.601740 0.606840 0.505840 1.003999
Cr2   Cr    Cr6+3 0.291500 0.601560 0.495070 0.991099
Cr3   Cr    Cr6+3 0.606780 0.291630 0.499130 1.012697
Cr4   Cr    Cr6+3 0.062440 0.063060 0.008240 1.010305
Cr5   Cr    Cr6+3 0.062950 0.375000 0.998920 0.992343
Cr6   Cr    Cr6+3 0.374550 0.061770 0.992470 0.992990
H1    H     H_    0.714367 0.740294 0.358507 0.132210
H2    H     H_    0.767324 0.632778 0.238655 0.125688
H3    H     H_    0.012678 0.481022 0.203071 0.133454
H4    H     H_    0.592090 0.525119 0.294240 0.134195
H5    H     H_    0.650765 0.502697 0.165775 0.127005
H6    H     H_    0.152117 0.242451 0.232849 0.159222
H7    H     H_    0.170346 0.064881 0.230588 0.109247
H8    H     H_    0.117945 0.084856 0.356054 0.108987
H9    H     H_    0.245353 0.684167 0.288922 0.133939
H10   H     H_    0.806258 0.796908 0.071382 0.105702
H11   H     H_    0.251659 0.712931 0.162092 0.127158
H12   H     H_    0.385181 0.065434 0.206871 0.144694
H13   H     H_    0.578070 0.939840 0.227681 0.177845
H14   H     H_    0.536424 0.943510 0.345845 0.177741
H15   H     H_    0.345677 0.045975 0.331710 0.170143
H16   H     H_    0.163555 0.552700 0.678530 0.141291
H17   H     H_    0.146256 0.532147 0.807113 0.120102
H18   H     H_    0.534640 0.972413 0.790459 0.139321
H19   H     H_    0.593121 0.102237 0.802140 0.139342
H20   H     H_    0.610602 0.107590 0.676808 0.158667
H21   H     H_    0.894598 0.767185 0.423582 0.099560
H22   H     H_    0.543488 0.984892 0.664045 0.130369
H23   H     H_    0.777290 0.165447 0.694714 0.122270
H24   H     H_    0.795760 0.153315 0.826166 0.117834
H25   H     H_    0.962102 0.485152 0.820975 0.179995
H26   H     H_    0.788204 0.653055 0.826596 0.120148
H27   H     H_    0.775415 0.656538 0.699721 0.131469
H28   H     H_    0.946104 0.484895 0.695724 0.146893
H29   H     H_    0.539522 0.766458 0.698845 0.128197
H30   H     H_    0.524914 0.785353 0.829054 0.120604
H31   H     H_    0.026688 0.997166 0.806501 0.166423
H32   H     H_    0.016139 0.804525 0.110063 0.111791
H33   H     H_    0.006834 0.839227 0.811749 0.129319
H34   H     H_    0.026043 0.813234 0.684902 0.132130
H35   H     H_    0.041479 0.973521 0.679841 0.139842
H36   H     H_    0.988695 0.998503 0.187226 0.137953
H37   H     H_    0.751584 0.191901 0.219371 0.116099
H38   H     H_    0.126071 0.662526 0.375777 0.176163
H39   H     H_    0.578787 0.970834 0.111033 0.167631
H40   H     H_    0.179637 0.527132 0.162302 0.126128
O1    O     O_R   0.748670 0.497520 0.427970 -0.506159
O2    O     O_R   0.300170 0.471020 0.567120 -0.507494
O3    O     O_R   0.491630 0.259030 0.574940 -0.523475
O4    O     O_R   0.718640 0.304340 0.577850 -0.509995
O5    O     O_3   0.500010 0.500010 0.500020 -0.260835
O6    O     O_R   0.186620 0.923750 0.087000 -0.532282
O7    O     O_R   0.957350 0.194160 0.084660 -0.494919
O8    O     O_R   0.935120 0.407280 0.085350 -0.533902
O9    O     O_R   0.203800 0.365060 0.067090 -0.506947
O10   O     O_R   0.417470 0.174910 0.067830 -0.539649
O11   O     O_R   0.375160 0.946380 0.070880 -0.520486
O12   O     O_R   0.476470 0.723930 0.429450 -0.502317
O13   O     O_R   0.160500 0.919670 0.926690 -0.519539
O14   O     O_R   0.933140 0.190380 0.936050 -0.502212
O15   O     O_R   0.909010 0.403210 0.925030 -0.529645
O16   O     O_R   0.179590 0.361290 0.918480 -0.514555
O17   O     O_R   0.391360 0.170840 0.907510 -0.518828
O18   O     O_R   0.350950 0.942600 0.922260 -0.508729
O19   O     O_3   0.166650 0.166610 0.999880 -0.245150
O20   O     O_R   0.264730 0.744140 0.416740 -0.557248
O21   O     O_R   0.309440 0.472410 0.418220 -0.530690
O22   O     O_R   0.501630 0.260530 0.414310 -0.480767
O23   O     O_R   0.727920 0.305730 0.428950 -0.526811
O24   O     O_R   0.738670 0.496020 0.588600 -0.519041
O25   O     O_R   0.467190 0.722540 0.578350 -0.507222
O26   O     O_R   0.254720 0.742640 0.577370 -0.518861
O27   O     O_3   0.606813 0.130750 0.306488 -0.707058
H41   H     H_    0.666548 0.169432 0.321598 0.337749
O28   O     O_3   0.096136 0.286341 0.364459 -0.693889
H42   H     H_    0.078383 0.280071 0.415473 0.329051

loop_
_geom_bond_atom_site_label_1
_geom_bond_atom_site_label_2
_ccdc_geom_bond_type
C44   C49   A    
C45   O2    A    
C7    C13   A    
C57   H29   S    
C21   C26   A    
C34   O25   A    
Cr3   O3    S    
Cr2   O5    S    
Cr6   O10   S    
C41   C42   S    
Cr1   O24   S    
C19   C20   A    
C1    O12   A    
C40   H17   S    
C4    O27   S    
C62   O8    A    
C65   O14   A    
C53   C54   A    
Cr2   O26   S    
C30   C35   A    
C64   O6    A    
C42   H20   S    
C23   O23   A    
C36   C37   A    
C24   H7    S    
C38   C42   S    
C33   H15   S    
C30   C31   A    
C56   O24   A    
C69   H36   S    
Cr5   O19   S    
C67   H32   S    
Cr2   O20   S    
C20   C25   S    
C51   H27   S    
O27   H41   S    
C32   H12   S    
C29   C33   S    
C18   C19   A    
C23   C26   S    
C53   C68   S    
C24   H6    S    
C6    H38   S    
C8    H39   S    
C21   C22   A    
C54   C55   A    
C15   H3    S    
C41   H18   S    
Cr5   O15   S    
C8    C9    A    
C12   C17   S    
C25   H8    S    
C1    O20   A    
Cr1   O25   S    
C45   O3    A    
Cr4   O7    S    
C59   C60   S    
Cr3   O4    S    
C55   C60   S    
C56   O4    A    
C44   C65   S    
C69   C70   A    
C62   O7    A    
C65   O15   A    
Cr6   O19   S    
C44   C46   A    
O28   H42   S    
C66   O16   A    
C54   C59   S    
C70   H37   S    
C13   H1    S    
C31   H11   S    
C15   C16   A    
Cr1   O1    S    
C27   C31   A    
Cr5   O8    S    
C22   H5    S    
C28   C32   S    
C24   C25   S    
C27   C64   S    
C39   C40   A    
Cr6   O18   S    
C18   C62   S    
C39   C43   A    
Cr3   O23   S    
C51   H28   S    
C34   C61   S    
C59   H31   S    
C58   H30   S    
C47   C52   A    
C9    C67   A    
C37   C38   A    
C9    H10   S    
C66   O17   A    
C34   O26   A    
C11   C16   S    
Cr5   O9    S    
C32   H13   S    
C14   C15   A    
C36   C40   A    
Cr6   O17   S    
C64   O11   A    
Cr4   O19   S    
C50   C51   S    
C30   H9    S    
C43   C45   S    
C63   O9    A    
C4    C17   A    
Cr2   O21   S    
Cr4   O6    S    
C50   H26   S    
Cr3   O5    S    
Cr4   O14   S    
C12   O22   A    
Cr1   O12   S    
C2    C5    S    
C39   H16   S    
C10   H40   S    
Cr5   O16   S    
C1    C35   S    
C48   H23   S    
C46   C50   S    
C46   C47   A    
C28   C29   A    
C7    H21   S    
C18   C22   A    
Cr1   O5    S    
C2    C8    A    
C4    C5    A    
C3    C5    A    
C11   C17   A    
C23   O1    A    
C47   C51   S    
C53   C58   A    
C57   C61   A    
C6    C7    A    
C3    C63   S    
C29   C35   A    
C32   C33   S    
C42   H22   S    
C19   C24   S    
C38   C43   A    
C60   H35   S    
C2    C70   A    
C33   H14   S    
C49   H24   S    
C57   C58   A    
C41   H19   S    
C20   C26   A    
C48   C49   A    
C55   C61   A    
C21   H4    S    
C68   O18   A    
C59   H33   S    
C36   C66   S    
C14   H2    S    
C37   C41   S    
C68   O13   A    
C63   O10   A    
C60   H34   S    
C10   C11   A    
C6    C16   A    
C48   C52   A    
C50   H25   S    
Cr3   O22   S    
Cr4   O13   S    
Cr2   O2    S    
C27   C28   A    
C3    C10   A    
Cr6   O11   S    
C12   O21   A    
C25   O28   S    
C67   C69   A    
C13   C14   A    
C52   C56   S    
