data_mof_unit_35672.cif
_audit_creation_date              2012-12-10T19:42:54-0500
_audit_creation_method            fapswitch 2.2
_symmetry_space_group_name_H-M    P1
_symmetry_Int_Tables_number       1
_space_group_crystal_system       triclinic
_cell_length_a                    10.81233
_cell_length_b                    12.955229
_cell_length_c                    11.725425
_cell_angle_alpha                 100.636587
_cell_angle_beta                  94.565071
_cell_angle_gamma                 91.636562
_cell_volume                      1607.54216737

loop_
_atom_site_label
_atom_site_type_symbol
_atom_type_description
_atom_site_fract_x
_atom_site_fract_y
_atom_site_fract_z
_atom_type_partial_charge
C1    C     C_R   0.503663 0.299299 0.477887 0.847076
C2    C     C_R   0.496337 0.700701 0.522113 0.847077
C3    C     C_R   0.871521 0.495287 0.500437 -0.066116
C4    C     C_R   0.128479 0.504713 0.499563 -0.066116
C5    C     C_R   0.944995 0.457117 0.587446 0.009894
C6    C     C_R   0.055005 0.542883 0.412554 0.009895
C7    C     C_R   0.486902 0.814046 0.535094 -0.191103
C8    C     C_R   0.513098 0.185954 0.464906 -0.191103
C9    C     C_R   0.596419 0.020288 0.379169 0.375384
C10   C     C_R   0.403581 0.979711 0.620831 0.375384
C11   C     C_R   0.585991 0.128601 0.382949 0.110914
C12   C     C_R   0.414009 0.871398 0.617051 0.110914
C13   C     C_R   0.453279 0.136441 0.542504 -0.221338
C14   C     C_R   0.546721 0.863559 0.457496 -0.221338
C15   C     C_R   0.463927 0.029310 0.541321 -0.014944
C16   C     C_R   0.536073 0.970690 0.458679 -0.014944
C17   C     C_R   0.371734 0.408187 0.017874 0.030227
C18   C     C_R   0.628266 0.591813 0.982126 0.030227
C19   C     C_R   0.387568 0.413191 0.140349 0.340994
C20   C     C_R   0.612432 0.586808 0.859651 0.340994
C21   C     C_R   0.554278 0.539557 0.158795 0.023390
C22   C     C_R   0.445722 0.460443 0.841205 0.023391
C23   C     C_R   0.262375 0.502591 0.499864 0.805380
C24   C     C_R   0.737625 0.497408 0.500136 0.805381
C25   C     C_R   0.546450 0.533053 0.035600 -0.061120
C26   C     C_R   0.453550 0.466947 0.964400 -0.061120
C27   C     C_R   0.241593 0.727028 0.268228 -0.082449
C28   C     C_R   0.758407 0.272972 0.731771 -0.082449
C29   C     C_R   0.187906 0.682855 0.353755 -0.093920
C30   C     C_R   0.812094 0.317145 0.646244 -0.093921
C31   C     C_R   0.108445 0.592558 0.322026 0.117146
C32   C     C_R   0.891554 0.407442 0.677974 0.117146
C33   C     C_R   0.080732 0.549109 0.203457 -0.108996
C34   C     C_R   0.919267 0.450890 0.796543 -0.108996
C35   C     C_R   0.134439 0.593655 0.118206 -0.116807
C36   C     C_R   0.865561 0.406344 0.881793 -0.116807
C37   C     C_R   0.215339 0.682158 0.150575 -0.075871
C38   C     C_R   0.784660 0.317841 0.849424 -0.075871
C39   C     C_R   0.926831 0.536598 0.413606 -0.192783
C40   C     C_R   0.073168 0.463402 0.586394 -0.192783
Cu1   Cu    Cu3+1 0.509250 0.507730 0.615930 0.993599
Cu2   Cu    Cu3+1 0.490750 0.492270 0.384070 0.993599
H1    H     H_    0.257463 0.716071 0.084479 0.163398
H2    H     H_    0.742536 0.283929 0.915520 0.163398
H3    H     H_    0.378088 0.408538 0.784290 0.171790
H4    H     H_    0.621912 0.591462 0.215710 0.171790
H5    H     H_    0.303854 0.795840 0.293212 0.153359
H6    H     H_    0.696146 0.204159 0.706787 0.153359
H7    H     H_    0.209208 0.718143 0.444610 0.122856
H8    H     H_    0.790793 0.281856 0.555390 0.122856
H9    H     H_    0.019386 0.479762 0.177285 0.149373
H10   H     H_    0.980613 0.520238 0.822715 0.149374
H11   H     H_    0.113943 0.559180 0.027075 0.148258
H12   H     H_    0.886055 0.440820 0.972925 0.148258
H13   H     H_    0.870028 0.567542 0.348259 0.168017
H14   H     H_    0.129972 0.432457 0.651741 0.168017
H15   H     H_    0.601537 0.816671 0.395708 0.219229
H16   H     H_    0.398464 0.183329 0.604292 0.219229
N1    N     N_R   0.523180 0.519350 0.790130 -0.220505
N2    N     N_R   0.476820 0.480650 0.209870 -0.220505
O1    O     O_R   0.506570 0.354460 0.582000 -0.598061
O2    O     O_R   0.493430 0.645540 0.418000 -0.598061
O3    O     O_R   0.490940 0.341410 0.386200 -0.535265
O4    O     O_R   0.509060 0.658590 0.613800 -0.535265
O5    O     O_R   0.327460 0.506540 0.597900 -0.586577
O6    O     O_R   0.672540 0.493460 0.402100 -0.586577
O7    O     O_R   0.311830 0.493480 0.402100 -0.565982
O8    O     O_R   0.688170 0.506520 0.597900 -0.565982
I1    I     I_    0.728763 0.692781 0.790324 -0.200370
I2    I     I_    0.271237 0.307219 0.209676 -0.200370
I3    I     I_    0.220532 0.315028 0.913715 -0.286851
I4    I     I_    0.779468 0.684972 0.086285 -0.286851
I5    I     I_    0.309531 0.795086 0.728494 -0.208011
I6    I     I_    0.690469 0.204913 0.271506 -0.208010
Cl1   Cl    Cl    0.686964 0.948084 0.275311 -0.523217
Cl2   Cl    Cl    0.313036 0.051916 0.724689 -0.523217

loop_
_geom_bond_atom_site_label_1
_geom_bond_atom_site_label_2
_ccdc_geom_bond_type
C8    C13   A    
C35   H11   S    
C1    C8    S    
Cu1   Cu2   S    
C2    C7    S    
Cu1   O1    S    
C29   H7    S    
C17   C26   A    
C35   C37   A    
C9    C16   A    
C10   C15   A    
C27   C29   A    
C15   C16   A    
C23   O7    A    
C17   C19   A    
C10   Cl2   S    
C7    C14   A    
C39   H13   S    
C4    C40   A    
C40   H14   S    
C31   C33   A    
Cu2   O2    S    
C18   C20   A    
C24   O6    A    
C5    C32   S    
C6    C31   S    
C30   H8    S    
C3    C39   A    
C12   I5    S    
C3    C24   S    
C18   C25   A    
C1    O3    A    
C2    O4    A    
Cu1   O8    S    
C18   I4    S    
C7    C12   A    
Cu1   N1    S    
C21   N2    A    
C4    C6    A    
Cu2   N2    S    
C22   N1    A    
C4    C23   S    
Cu1   O5    S    
C13   H16   S    
C25   C26   A    
C32   C34   A    
C37   H1    S    
C38   H2    S    
C28   C38   A    
C20   N1    A    
C9    C11   A    
C10   C12   A    
C17   I3    S    
C13   C15   A    
Cu2   O7    S    
C14   C16   A    
C20   I1    S    
C21   H4    S    
C27   H5    S    
C14   H15   S    
C21   C25   A    
C28   H6    S    
C3    C5    A    
C11   I6    S    
C1    O1    A    
C19   N2    A    
C33   H9    S    
C34   H10   S    
C23   O5    A    
C36   C38   A    
C29   C31   A    
C30   C32   A    
C27   C37   A    
C8    C11   A    
C28   C30   A    
C33   C35   A    
C34   C36   A    
C36   H12   S    
C24   O8    A    
C22   H3    S    
C22   C26   A    
C5    C40   A    
Cu2   O6    S    
C6    C39   A    
C19   I2    S    
C9    Cl1   S    
Cu1   O4    S    
Cu2   O3    S    
C2    O2    A    
