data_mof_unit_67450.cif
_audit_creation_date              2012-12-10T16:46:00-0500
_audit_creation_method            fapswitch 2.2
_symmetry_space_group_name_H-M    P1
_symmetry_Int_Tables_number       1
_space_group_crystal_system       triclinic
_cell_length_a                    10.94997
_cell_length_b                    9.014993
_cell_length_c                    7.711832
_cell_angle_alpha                 103.290096
_cell_angle_beta                  96.121511
_cell_angle_gamma                 94.973483
_cell_volume                      731.771942428

loop_
_atom_site_label
_atom_site_type_symbol
_atom_type_description
_atom_site_fract_x
_atom_site_fract_y
_atom_site_fract_z
_atom_type_partial_charge
C1    C     C_R   0.504208 0.201760 0.454250 0.850562
C2    C     C_3   0.878193 0.506743 0.516508 0.140754
C3    C     C_3   0.924319 0.643441 0.445617 -0.416383
C4    C     C_3   0.912125 0.357037 0.401514 -0.437072
C5    C     C_2   0.517815 0.035483 0.434007 -0.454519
C6    C     C_2   0.532004 0.969105 0.575355 -0.093337
C7    C     C_R   0.260784 0.508164 0.500031 0.712900
C8    C     C_R   0.512988 0.799752 0.547368 0.807709
C9    C     C_R   0.739204 0.500162 0.503710 0.739325
C10   C     C_3   0.091188 0.521935 0.699846 -0.100796
C11   C     C_3   0.949336 0.529547 0.709021 -0.403522
C12   C     C_3   0.066241 0.662846 0.456334 -0.478668
C13   C     C_3   0.043975 0.380440 0.354765 -0.064034
C14   C     C_3   0.121720 0.517113 0.503083 0.082125
Cu1   Cu    Cu3+1 0.514070 0.517380 0.684380 0.924757
Cu2   Cu    Cu3+1 0.485930 0.482620 0.315620 0.904611
H1    H     H_    0.849422 0.328412 0.276233 0.171516
H2    H     H_    0.082251 0.673944 0.323203 0.162958
H3    H     H_    0.884022 0.617374 0.303180 0.206149
H4    H     H_    0.513552 0.965460 0.299343 0.172716
H5    H     H_    0.405412 0.371293 0.949394 0.201613
H6    H     H_    0.112882 0.410446 0.727683 0.121578
H7    H     H_    0.913077 0.439644 0.773965 0.140130
H8    H     H_    0.933883 0.642498 0.793199 0.182301
H9    H     H_    0.097010 0.776244 0.545838 0.177346
H10   H     H_    0.891878 0.750536 0.520900 0.153623
H11   H     H_    0.032570 0.429792 0.235852 0.172021
H12   H     H_    0.900834 0.261684 0.470171 0.166826
N1    N     N_2   0.464720 0.456420 0.038520 -0.231403
N2    N     N_2   0.535280 0.543580 0.961480 -0.116291
O1    O     O_R   0.509140 0.286130 0.619770 -0.597463
O2    O     O_R   0.485380 0.256770 0.308360 -0.600085
O3    O     O_R   0.329570 0.514650 0.655700 -0.574294
O4    O     O_R   0.305810 0.485300 0.344290 -0.591171
O5    O     O_R   0.514620 0.743230 0.691640 -0.588022
O6    O     O_R   0.490860 0.713870 0.380230 -0.620633
O7    O     O_R   0.694190 0.514700 0.655710 -0.613471
O8    O     O_R   0.670430 0.485350 0.344300 -0.618888
C15   C     C_R   0.170343 0.652260 0.848457 0.138627
C16   C     C_R   0.244938 0.778037 0.814412 -0.042044
C17   C     C_R   0.303011 0.897772 0.953091 -0.170731
C18   C     C_R   0.293801 0.892434 0.127945 -0.168251
C19   C     C_R   0.248613 0.756827 0.164623 -0.085810
C20   C     C_R   0.182889 0.638158 0.026550 -0.171160
H13   H     H_    0.265138 0.786591 0.683723 0.093831
H14   H     H_    0.346492 0.999845 0.924472 0.126577
H15   H     H_    0.318478 0.994235 0.234010 0.145849
H16   H     H_    0.262498 0.749352 0.302331 0.148402
H17   H     H_    0.142568 0.535218 0.056944 0.116097
C21   C     C_3   0.570568 0.074100 0.759750 -0.353705
C22   C     C_3   0.626313 0.016319 0.912276 -0.422967
C23   C     C_3   0.676341 0.155058 0.062913 -0.880267
H18   H     H_    0.754408 0.217300 0.019323 0.227000
H19   H     H_    0.607554 0.237239 0.082877 0.317890
H20   H     H_    0.702024 0.121391 0.190273 0.247744
H21   H     H_    0.552691 0.951311 0.958315 0.261103
H22   H     H_    0.702078 0.950324 0.866939 0.234184
H23   H     H_    0.646722 0.157807 0.741967 0.242826
H24   H     H_    0.488537 0.128500 0.805114 0.215005
C24   C     C_3   0.614558 0.673991 0.075066 -0.031160
C25   C     C_3   0.742109 0.692776 0.016457 -0.399751
C26   C     C_3   0.826690 0.822431 0.148951 -1.007964
H25   H     H_    0.803331 0.840774 0.288009 0.255297
H26   H     H_    0.924513 0.800472 0.145963 0.266906
H27   H     H_    0.816105 0.929234 0.110461 0.282898
H28   H     H_    0.783708 0.583347 0.005657 0.219254
H29   H     H_    0.735122 0.723064 0.886165 0.253381
H30   H     H_    0.567154 0.776194 0.082495 0.143412
H31   H     H_    0.633906 0.663316 0.209415 0.229870
C27   C     C_3   0.091439 0.226332 0.267289 -0.421742
C28   C     C_3   0.013209 0.162527 0.079662 -0.393731
C29   C     C_3   0.053490 0.024421 0.959422 -0.846184
H32   H     H_    0.135955 0.062478 0.902825 0.254469
H33   H     H_    0.069095 0.936191 0.034748 0.284365
H34   H     H_    0.979610 0.974679 0.845143 0.229918
H35   H     H_    0.919669 0.130212 0.102757 0.238281
H36   H     H_    0.009084 0.250813 0.999965 0.200600
H37   H     H_    0.189707 0.241184 0.247016 0.232207
H38   H     H_    0.081084 0.143363 0.352824 0.198000

loop_
_geom_bond_atom_site_label_1
_geom_bond_atom_site_label_2
_ccdc_geom_bond_type
C20   H17   S    
C27   H37   S    
C17   C18   A    
C5    H4    S    
C10   H6    S    
C26   H25   S    
C1    C5    S    
C21   H24   S    
C5    C6    D    
C13   C27   S    
Cu1   Cu2   S    
C11   H8    S    
C1    O1    A    
C22   H21   S    
C8    O6    A    
C4    C13   S    
Cu1   O7    S    
C26   H26   S    
C3    C12   S    
Cu2   O4    S    
C25   H28   S    
C10   C15   S    
C7    C14   S    
N2    C24   S    
C17   H14   S    
C3    H3    S    
C27   C28   S    
C22   H22   S    
C19   H16   S    
C23   H20   S    
C13   C14   S    
C7    O3    A    
C29   H34   S    
C2    C11   S    
Cu1   O5    S    
C4    H12   S    
C23   H19   S    
C16   H13   S    
C22   C23   S    
C21   H23   S    
C29   H33   S    
C10   C14   S    
C15   C16   A    
C6    C8    S    
Cu2   N1    S    
H5    N1    S    
C1    O2    A    
C24   C25   S    
C8    O5    A    
C2    C4    S    
C19   C20   A    
N1    N2    D    
C25   H29   S    
C9    O7    A    
C21   C22   S    
C6    C21   S    
C4    H1    S    
C16   C17   A    
C12   C14   S    
C7    O4    A    
C18   C19   A    
C28   H36   S    
C23   H18   S    
Cu1   N2    S    
C26   H27   S    
C27   H38   S    
C3    H10   S    
C29   H32   S    
Cu1   O1    S    
C15   C20   A    
Cu2   O2    S    
C12   H9    S    
C2    C3    S    
C28   C29   S    
Cu2   O6    S    
C28   H35   S    
C24   H31   S    
C11   H7    S    
C9    O8    A    
C18   H15   S    
C25   C26   S    
C10   C11   S    
C24   H30   S    
C12   H2    S    
C13   H11   S    
C2    C9    S    
Cu1   O3    S    
Cu2   O8    S    
