data_mof_unit_33934.cif
_audit_creation_date              2012-12-10T18:45:04-0500
_audit_creation_method            fapswitch 2.2
_symmetry_space_group_name_H-M    P1
_symmetry_Int_Tables_number       1
_space_group_crystal_system       triclinic
_cell_length_a                    10.660366
_cell_length_b                    9.806917
_cell_length_c                    10.617599
_cell_angle_alpha                 89.799604
_cell_angle_beta                  87.798592
_cell_angle_gamma                 89.08016
_cell_volume                      1109.05355893

loop_
_atom_site_label
_atom_site_type_symbol
_atom_type_description
_atom_site_fract_x
_atom_site_fract_y
_atom_site_fract_z
_atom_type_partial_charge
C1    C     C_R   0.259744 0.500121 0.502513 1.054248
C2    C     C_R   0.739791 0.497518 0.490805 0.997287
C3    C     C_R   0.944078 0.461875 0.382153 0.386257
C4    C     C_R   0.070036 0.495995 0.383375 0.240903
C5    C     C_R   0.568911 0.070555 0.583912 -0.013284
C6    C     C_R   0.431323 0.073616 0.415936 -0.028595
C7    C     C_R   0.569041 0.926420 0.583827 0.005585
C8    C     C_R   0.431228 0.929546 0.416035 0.051061
C9    C     C_R   0.518139 0.500943 0.260071 1.010985
C10   C     C_R   0.487926 0.501069 0.741149 0.944341
C11   C     C_R   0.586624 0.756798 0.101008 0.464524
C12   C     C_R   0.422433 0.757190 0.901527 0.453516
C13   C     C_R   0.545884 0.879200 0.047997 -0.252215
C14   C     C_R   0.459974 0.879398 0.954041 -0.339875
C15   C     C_R   0.475617 0.630698 0.943736 -0.061074
C16   C     C_R   0.537817 0.630595 0.058114 -0.090412
C17   C     C_R   0.540129 0.504755 0.125187 -0.003201
C18   C     C_R   0.476438 0.504676 0.876890 -0.052298
C19   C     C_R   0.527674 0.381170 0.062715 -0.124396
C20   C     C_R   0.500017 0.381274 0.938294 -0.124164
C21   C     C_R   0.056609 0.472537 0.614816 -0.098235
C22   C     C_R   0.926997 0.490821 0.611926 -0.147809
C23   C     C_R   0.872100 0.488035 0.493814 -0.280452
C24   C     C_R   0.126689 0.497082 0.501137 -0.274953
H1    H     H_    0.535370 0.283885 0.110823 0.155231
H2    H     H_    0.498231 0.284097 0.890123 0.171040
H3    H     H_    0.580886 0.975798 0.079869 0.199980
H4    H     H_    0.422329 0.976154 0.921851 0.189435
H5    H     H_    0.623863 0.124183 0.650907 0.154878
H6    H     H_    0.376585 0.129635 0.348735 0.152927
H7    H     H_    0.623941 0.870372 0.650874 0.136944
H8    H     H_    0.376872 0.876157 0.348613 0.143489
N1    N     N_R   0.500000 0.857200 0.500000 -0.063381
N2    N     N_R   0.500000 0.142810 0.500000 -0.084773
O1    O     O_R   0.316770 0.614620 0.499990 -0.561880
O2    O     O_R   0.683230 0.614620 0.500010 -0.608964
O3    O     O_R   0.316800 0.385290 0.500000 -0.589049
O4    O     O_R   0.683200 0.385290 0.500000 -0.563238
O5    O     O_R   0.500010 0.614690 0.316770 -0.588082
O6    O     O_R   0.499990 0.614690 0.683230 -0.626374
O7    O     O_R   0.500040 0.385360 0.316770 -0.630459
O8    O     O_R   0.499960 0.385360 0.683230 -0.610487
Zn1   Zn    Zn3+2 0.500000 0.653120 0.500000 1.077299
Zn2   Zn    Zn3+2 0.500000 0.346880 0.500000 1.055399
S1    S     S_3+6 0.722913 0.771049 0.189165 0.040559
O9    O     O_2   0.755135 0.641201 0.254460 -0.324843
O10   O     O_2   0.830258 0.807979 0.100297 -0.214385
O11   O     O_3   0.701903 0.896303 0.295844 -0.589646
H9    H     H_    0.781157 0.898064 0.341504 0.395502
S2    S     S_3+6 0.285043 0.771468 0.814433 0.080860
O12   O     O_2   0.302949 0.873764 0.709905 -0.317500
O13   O     O_2   0.250790 0.638061 0.759979 -0.307698
O14   O     O_3   0.165960 0.824918 0.911470 -0.419343
H10   H     H_    0.182183 0.922434 0.927203 0.362517
C25   C     C_2   0.113993 0.411333 0.729128 0.996572
O15   O     O_2   0.197586 0.325052 0.717230 -0.617444
O16   O     O_R   0.070850 0.449074 0.850311 -0.667224
H11   H     H_    0.117080 0.399234 0.918822 0.390359
C26   C     C_2   0.848062 0.497740 0.730205 0.987211
O17   O     O_2   0.779020 0.403486 0.759375 -0.630883
O18   O     O_R   0.853647 0.612067 0.807886 -0.688831
H12   H     H_    0.795527 0.605205 0.885458 0.369338
S3    S     S_3+6 0.893690 0.347282 0.262927 0.094845
O19   O     O_2   0.847482 0.423316 0.150350 -0.224073
O20   O     O_2   0.003526 0.258766 0.220221 -0.234989
O21   O     O_3   0.779895 0.243505 0.317401 -0.548589
H13   H     H_    0.752414 0.193975 0.242383 0.383410
S4    S     S_3+6 0.156290 0.530373 0.239643 0.089307
O22   O     O_2   0.239688 0.409856 0.206555 -0.287458
O23   O     O_2   0.070167 0.557557 0.133418 -0.142942
O24   O     O_3   0.245533 0.668270 0.255764 -0.564212
H14   H     H_    0.185130 0.743812 0.275071 0.361896

loop_
_geom_bond_atom_site_label_1
_geom_bond_atom_site_label_2
_ccdc_geom_bond_type
C15   C18   A    
S2    O13   D    
C25   O15   D    
S3    O20   D    
O4    Zn2   S    
C3    S3    S    
C10   O8    A    
O1    Zn1   S    
C11   C16   A    
C2    O4    A    
C9    O7    A    
C19   C20   A    
C1    C24   S    
C12   C15   A    
C1    O3    A    
C6    N2    A    
C5    N2    A    
O6    Zn1   S    
O3    Zn2   S    
S1    O10   D    
O21   H13   S    
S3    O21   S    
C21   C25   S    
O24   H14   S    
C22   C26   S    
C21   C22   A    
C13   H3    S    
C11   C13   A    
O16   H11   S    
C16   C17   A    
C20   H2    S    
C10   C18   S    
S4    O24   S    
C4    C24   A    
C9    C17   S    
O11   H9    S    
C17   C19   A    
C12   C14   A    
S2    O12   D    
C5    H5    S    
C8    N1    A    
C25   O16   S    
O5    Zn1   S    
O18   H12   S    
C19   H1    S    
O7    Zn2   S    
C11   S1    S    
S2    O14   S    
C7    H7    S    
C7    N1    A    
S3    O19   D    
C8    H8    S    
S1    O9    D    
C26   O17   D    
N2    Zn2   S    
C1    O1    A    
C18   C20   A    
C10   O6    A    
C21   C24   A    
C2    O2    A    
C2    C23   S    
C5    C7    A    
S4    O23   D    
C22   C23   A    
S4    O22   D    
O2    Zn1   S    
C6    C8    A    
S1    O11   S    
C13   C14   A    
C14   H4    S    
O14   H10   S    
C3    C23   A    
C6    H6    S    
C9    O5    A    
O8    Zn2   S    
C3    C4    A    
C15   C16   A    
C4    S4    S    
C12   S2    S    
C26   O18   S    
N1    Zn1   S    
