data_mof_unit_39437.cif
_audit_creation_date              2012-12-10T20:27:54-0500
_audit_creation_method            fapswitch 2.2
_symmetry_space_group_name_H-M    P1
_symmetry_Int_Tables_number       1
_space_group_crystal_system       triclinic
_cell_length_a                    12.877735
_cell_length_b                    10.683174
_cell_length_c                    9.859682
_cell_angle_alpha                 89.241126
_cell_angle_beta                  97.171819
_cell_angle_gamma                 90.324825
_cell_volume                      1345.7049763

loop_
_atom_site_label
_atom_site_type_symbol
_atom_type_description
_atom_site_fract_x
_atom_site_fract_y
_atom_site_fract_z
_atom_type_partial_charge
C1    C     C_R   0.504065 0.259662 0.501125 0.875794
C2    C     C_R   0.028727 0.483127 0.562486 0.192758
C3    C     C_R   0.970989 0.518263 0.436579 0.190218
C4    C     C_R   0.863934 0.527548 0.427996 -0.282068
C5    C     C_R   0.870848 0.464566 0.667347 -0.214112
C6    C     C_R   0.978719 0.457215 0.677651 -0.233085
C7    C     C_R   0.538595 0.061463 0.626347 0.129872
C8    C     C_R   0.523645 0.128239 0.503231 -0.103708
C9    C     C_R   0.532607 0.066228 0.380324 -0.220867
C10   C     C_R   0.533493 0.936776 0.379483 -0.231470
C11   C     C_R   0.525620 0.870838 0.501610 -0.109683
C12   C     C_R   0.298125 0.499634 0.473191 0.881535
C13   C     C_R   0.539810 0.933534 0.625434 0.157280
C14   C     C_3   0.481673 0.921867 0.746847 -0.451864
C15   C     C_3   0.479510 0.063414 0.747300 -0.524753
C16   C     C_R   0.414007 0.460802 0.058026 0.204960
C17   C     C_R   0.578523 0.555926 0.084700 -0.282445
C18   C     C_R   0.579653 0.556600 0.938567 0.529622
C19   C     C_R   0.413773 0.461065 0.915843 0.131112
C20   C     C_3   0.363209 0.335338 0.905093 -0.509364
C21   C     C_3   0.363212 0.335597 0.059059 -0.483751
C22   C     C_R   0.504935 0.739972 0.499953 0.883893
C23   C     C_R   0.701825 0.500512 0.526672 0.883651
C24   C     C_R   0.813901 0.499215 0.542377 -0.042077
C25   C     C_R   0.185931 0.501202 0.456922 -0.051852
C26   C     C_R   0.021053 0.542633 0.321051 -0.226228
C27   C     C_R   0.128947 0.533642 0.331109 -0.208554
C28   C     C_R   0.135762 0.474640 0.571441 -0.282980
H1    H     H_    0.819632 0.555347 0.331479 0.152077
H2    H     H_    0.530733 0.880566 0.837009 0.222751
H3    H     H_    0.399185 0.101568 0.721714 0.207318
H4    H     H_    0.527156 0.103229 0.838502 0.203109
H5    H     H_    0.639537 0.600071 0.152693 0.168991
H6    H     H_    0.283397 0.337760 0.847710 0.195704
H7    H     H_    0.415999 0.264582 0.871448 0.212803
H8    H     H_    0.283405 0.340528 0.090492 0.198810
H9    H     H_    0.414991 0.263201 0.113419 0.209856
H10   H     H_    0.832043 0.440686 0.755579 0.157987
H11   H     H_    0.977053 0.569072 0.224001 0.132246
H12   H     H_    0.022706 0.429921 0.774398 0.135768
H13   H     H_    0.167727 0.554433 0.242002 0.159311
H14   H     H_    0.179910 0.448385 0.668335 0.151937
H15   H     H_    0.530439 0.116211 0.283731 0.167991
H16   H     H_    0.531430 0.889626 0.282557 0.172429
H17   H     H_    0.402775 0.878911 0.722459 0.203983
N1    N     N_R   0.499290 0.499140 0.142710 -0.123452
N2    N     N_R   0.499290 0.499180 0.857070 -0.147886
O1    O     O_R   0.500010 0.316790 0.614690 -0.621313
O2    O     O_R   0.500000 0.316760 0.385350 -0.622921
O3    O     O_R   0.346360 0.499990 0.595720 -0.623099
O4    O     O_R   0.346350 0.499960 0.366370 -0.620786
O5    O     O_R   0.500000 0.683240 0.614650 -0.587517
O6    O     O_R   0.499990 0.683210 0.385310 -0.626469
O7    O     O_R   0.653650 0.500040 0.633630 -0.578829
O8    O     O_R   0.653640 0.500010 0.404280 -0.633591
Zn1   Zn    Zn3+2 0.500010 0.500020 0.653130 0.983028
Zn2   Zn    Zn3+2 0.499990 0.499980 0.346870 0.940043
O9    O     O_3   0.654188 0.620222 0.872376 -0.581933
C29   C     C_3   0.751569 0.640215 0.952952 0.077952
H18   H     H_    0.813523 0.633457 0.884668 0.176136
H19   H     H_    0.771787 0.567467 0.033628 0.101824
C30   C     C_3   0.757408 0.772368 0.010576 -0.895323
H20   H     H_    0.693321 0.789097 0.073436 0.243708
H21   H     H_    0.833620 0.785986 0.074991 0.221259
H22   H     H_    0.750749 0.842120 0.925400 0.264265

loop_
_geom_bond_atom_site_label_1
_geom_bond_atom_site_label_2
_ccdc_geom_bond_type
C12   O3    A    
C23   C24   S    
C1    O1    A    
C23   O8    A    
C30   H20   S    
O4    Zn2   S    
C22   O6    A    
C1    C8    S    
C29   H18   S    
C9    C10   A    
C27   H13   S    
C11   C22   S    
C30   H21   S    
C4    H1    S    
C12   C25   S    
C20   H6    S    
C18   N2    A    
C7    C15   S    
C17   C18   A    
C21   H9    S    
C7    C8    A    
C21   H8    S    
C5    H10   S    
C20   C21   S    
C25   C28   A    
C15   H3    S    
C11   C13   A    
C26   C27   A    
C2    C6    A    
C5    C24   A    
C17   H5    S    
C14   H2    S    
C16   C19   A    
C15   H4    S    
C28   H14   S    
C2    C3    A    
C14   H17   S    
O7    Zn1   S    
O8    Zn2   S    
N1    Zn2   S    
C5    C6    A    
C4    C24   A    
C6    H12   S    
C26   H11   S    
C9    H15   S    
C29   H19   S    
C10   C11   A    
C10   H16   S    
C3    C4    A    
O5    Zn1   S    
C7    C13   A    
C12   O4    A    
O2    Zn2   S    
C17   N1    A    
C23   O7    A    
C22   O5    A    
C19   N2    A    
C16   N1    A    
O1    Zn1   S    
O6    Zn2   S    
C14   C15   S    
N2    Zn1   S    
C29   C30   S    
C2    C28   A    
C30   H22   S    
O9    C29   S    
C13   C14   S    
C20   H7    S    
C16   C21   S    
C18   O9    S    
C3    C26   A    
O3    Zn1   S    
C19   C20   S    
C8    C9    A    
C25   C27   A    
C1    O2    A    
