data_mof_unit_60025.cif
_audit_creation_date              2012-12-10T18:04:25-0500
_audit_creation_method            fapswitch 2.2
_symmetry_space_group_name_H-M    P1
_symmetry_Int_Tables_number       1
_space_group_crystal_system       triclinic
_cell_length_a                    31.631623
_cell_length_b                    18.359116
_cell_length_c                    25.753706
_cell_angle_alpha                 89.987856
_cell_angle_beta                  144.617401
_cell_angle_gamma                 90.009115
_cell_volume                      8659.97666171

loop_
_atom_site_label
_atom_site_type_symbol
_atom_type_description
_atom_site_fract_x
_atom_site_fract_y
_atom_site_fract_z
_atom_type_partial_charge
C1    C     C_R   0.859872 0.640093 0.109927 0.507026
C2    C     C_R   0.197516 0.305116 0.447087 0.015015
C3    C     C_R   0.290186 0.765658 0.584999 -0.144711
C4    C     C_1   0.295316 0.395470 0.567031 0.224166
C5    C     C_1   0.704684 0.604530 0.432968 0.224166
C6    C     C_1   0.778244 0.322000 0.432224 0.232964
C7    C     C_1   0.221756 0.678000 0.567776 0.232964
C8    C     C_1   0.795316 0.895471 0.567030 0.223956
C9    C     C_1   0.204683 0.104529 0.432970 0.223957
C10   C     C_1   0.278249 0.821995 0.432227 0.232839
C11   C     C_1   0.721750 0.178005 0.567773 0.232839
C12   C     C_R   0.195775 0.696624 0.447110 0.018152
C13   C     C_R   0.804225 0.303375 0.552890 0.018153
C14   C     C_R   0.302483 0.194883 0.552913 0.014866
C15   C     C_R   0.697517 0.805117 0.447087 0.014866
C16   C     C_R   0.695772 0.196628 0.447109 0.018145
C17   C     C_R   0.304228 0.803372 0.552891 0.018145
C18   C     C_R   0.743713 0.690349 0.027175 -0.133211
C19   C     C_R   0.256287 0.309651 0.972825 -0.133211
C20   C     C_R   0.256333 0.690326 0.972912 -0.133405
C21   C     C_R   0.140128 0.359907 0.890073 0.507026
C22   C     C_R   0.743667 0.309674 0.027088 -0.133405
C23   C     C_R   0.243717 0.190353 0.027182 -0.133298
C24   C     C_R   0.756283 0.809647 0.972818 -0.133298
C25   C     C_R   0.756336 0.190323 0.972919 -0.133309
C26   C     C_R   0.243664 0.809677 0.027081 -0.133309
C27   C     C_R   0.190272 0.243826 0.973701 -0.132942
C28   C     C_R   0.809728 0.756174 0.026298 -0.132942
C29   C     C_R   0.809780 0.243796 0.026404 -0.133545
C30   C     C_R   0.190219 0.756204 0.973596 -0.133545
C31   C     C_R   0.690268 0.743823 0.973695 -0.132717
C32   C     C_R   0.140127 0.640091 0.890068 0.506087
C33   C     C_R   0.309732 0.256177 0.026305 -0.132717
C34   C     C_R   0.309777 0.743800 0.026397 -0.133784
C35   C     C_R   0.690223 0.256200 0.973603 -0.133784
C36   C     C_R   0.196275 0.303757 0.946239 0.039835
C37   C     C_R   0.803725 0.696243 0.053760 0.039836
C38   C     C_R   0.803727 0.303756 0.053769 0.039887
C39   C     C_R   0.196273 0.696244 0.946231 0.039887
C40   C     C_R   0.696272 0.803754 0.946234 0.039975
C41   C     C_R   0.303728 0.196246 0.053765 0.039976
C42   C     C_R   0.303725 0.803759 0.053764 0.039744
C43   C     C_R   0.859873 0.359909 0.109932 0.506087
C44   C     C_R   0.696275 0.196241 0.946236 0.039744
C45   C     C_R   0.066087 0.507912 0.539515 -0.128725
C46   C     C_R   0.933913 0.492088 0.460485 -0.128724
C47   C     C_R   0.566099 0.007817 0.539526 -0.128711
C48   C     C_R   0.433901 0.992183 0.460473 -0.128711
C49   C     C_R   0.066042 0.507901 0.592794 -0.134443
C50   C     C_R   0.933957 0.492099 0.407206 -0.134443
C51   C     C_R   0.566054 0.007804 0.592805 -0.134434
C52   C     C_R   0.433946 0.992196 0.407195 -0.134434
C53   C     C_R   0.999954 0.499998 0.553216 0.043922
C54   C     C_R   0.359872 0.140094 0.109929 0.507388
C55   C     C_R   0.000046 0.500002 0.446783 0.043922
C56   C     C_R   0.499954 0.999998 0.553216 0.043924
C57   C     C_R   0.500046 0.000002 0.446783 0.043924
C58   C     C_R   0.140690 0.360624 0.390326 0.504290
C59   C     C_R   0.859310 0.639376 0.609674 0.504290
C60   C     C_R   0.860344 0.359586 0.609668 0.507492
C61   C     C_R   0.139656 0.640414 0.390331 0.507492
C62   C     C_R   0.640691 0.860625 0.390326 0.503905
C63   C     C_R   0.359309 0.139375 0.609674 0.503905
C64   C     C_R   0.360345 0.859585 0.609668 0.507831
C65   C     C_R   0.640127 0.859906 0.890071 0.507387
C66   C     C_R   0.639655 0.140415 0.390331 0.507831
C67   C     C_R   0.000031 0.500010 0.391329 0.512259
C68   C     C_R   0.999969 0.499990 0.608671 0.512260
C69   C     C_R   0.500031 0.000010 0.391329 0.512270
C70   C     C_R   0.499969 0.999990 0.608671 0.512270
C71   C     C_R   0.999992 0.499948 0.108325 0.506291
C72   C     C_R   0.000008 0.500052 0.891675 0.506291
C73   C     C_R   0.499993 0.000063 0.108326 0.506239
C74   C     C_R   0.500007 0.999937 0.891674 0.506239
C75   C     C_3   0.059927 0.534402 0.077381 -0.122631
C76   C     C_R   0.640128 0.140090 0.890069 0.505725
C77   C     C_3   0.940073 0.465598 0.922619 -0.122630
C78   C     C_3   0.000009 0.569145 0.983010 -0.106304
C79   C     C_3   0.999991 0.430854 0.016990 -0.106304
C80   C     C_3   0.499998 0.069153 0.016965 -0.106657
C81   C     C_3   0.500002 0.930847 0.983035 -0.106657
C82   C     C_3   0.440076 0.034404 0.922607 -0.122505
C83   C     C_3   0.559923 0.965596 0.077392 -0.122506
C84   C     C_3   0.059924 0.465583 0.042644 -0.122506
C85   C     C_3   0.940076 0.534416 0.957356 -0.122506
C86   C     C_3   0.559926 0.034402 0.042629 -0.122706
C87   C     C_R   0.359872 0.859910 0.109931 0.505725
C88   C     C_3   0.440074 0.965598 0.957371 -0.122706
C89   C     C_3   0.000006 0.500266 0.949092 0.062181
C90   C     C_3   0.999994 0.499734 0.050908 0.062181
C91   C     C_3   0.500005 0.999713 0.949090 0.062201
C92   C     C_3   0.499995 0.000287 0.050910 0.062201
C93   C     C_R   0.270816 0.321935 0.532490 -0.029307
C94   C     C_R   0.729184 0.678064 0.467510 -0.029307
C95   C     C_R   0.763856 0.287324 0.467182 -0.023224
C96   C     C_R   0.236144 0.712676 0.532818 -0.023224
C97   C     C_R   0.770817 0.821936 0.532489 -0.029371
C98   C     C_R   0.802483 0.694883 0.552912 0.015016
C99   C     C_R   0.229183 0.178064 0.467510 -0.029371
C100  C     C_R   0.263861 0.787319 0.467184 -0.023252
C101  C     C_R   0.736139 0.212681 0.532816 -0.023252
C102  C     C_R   0.822497 0.766584 0.584715 -0.147950
C103  C     C_R   0.177503 0.233416 0.415285 -0.147950
C104  C     C_R   0.209819 0.734336 0.415003 -0.144815
C105  C     C_R   0.790181 0.265664 0.584997 -0.144815
C106  C     C_R   0.322496 0.266583 0.584715 -0.147877
C107  C     C_R   0.677504 0.733417 0.415285 -0.147877
C108  C     C_R   0.709814 0.234342 0.415001 -0.144711
H1    H     H_    0.109116 0.437317 0.076807 0.117820
H2    H     H_    0.500001 0.873961 0.968429 0.132639
H3    H     H_    0.390883 0.062655 0.858229 0.118763
H4    H     H_    0.609117 0.937345 0.141771 0.118763
H5    H     H_    0.878989 0.779715 0.649874 0.139454
H6    H     H_    0.121010 0.220285 0.350126 0.139454
H7    H     H_    0.179460 0.721398 0.349613 0.138746
H8    H     H_    0.820540 0.278602 0.650387 0.138746
H9    H     H_    0.378988 0.279714 0.649875 0.139722
H10   H     H_    0.621011 0.720285 0.350125 0.139722
H11   H     H_    0.679454 0.221406 0.349610 0.138948
H12   H     H_    0.890884 0.562683 0.923193 0.117820
H13   H     H_    0.320546 0.778594 0.650390 0.138948
H14   H     H_    0.737976 0.644524 0.047609 0.141358
H15   H     H_    0.262024 0.355476 0.952391 0.141357
H16   H     H_    0.262110 0.644480 0.952555 0.141251
H17   H     H_    0.737889 0.355520 0.047445 0.141251
H18   H     H_    0.237979 0.144527 0.047615 0.141392
H19   H     H_    0.762021 0.855472 0.952384 0.141392
H20   H     H_    0.762114 0.144477 0.952562 0.141224
H21   H     H_    0.237886 0.855523 0.047438 0.141224
H22   H     H_    0.144377 0.238170 0.953958 0.143062
H23   H     H_    0.609122 0.062655 0.076784 0.118110
H24   H     H_    0.855623 0.761830 0.046042 0.143062
H25   H     H_    0.855716 0.238116 0.046228 0.141590
H26   H     H_    0.144284 0.761884 0.953772 0.141590
H27   H     H_    0.644374 0.738166 0.953951 0.142677
H28   H     H_    0.355626 0.261834 0.046049 0.142677
H29   H     H_    0.355712 0.738119 0.046221 0.141963
H30   H     H_    0.644288 0.261881 0.953779 0.141963
H31   H     H_    0.117549 0.514371 0.570813 0.160436
H32   H     H_    0.882451 0.485629 0.429187 0.160436
H33   H     H_    0.617571 0.014197 0.570835 0.160424
H34   H     H_    0.390878 0.937345 0.923216 0.118110
H35   H     H_    0.382429 0.985803 0.429165 0.160424
H36   H     H_    0.117502 0.514333 0.664559 0.145275
H37   H     H_    0.882498 0.485666 0.335441 0.145276
H38   H     H_    0.617523 0.014159 0.664579 0.145294
H39   H     H_    0.382477 0.985841 0.335421 0.145294
H40   H     H_    0.109119 0.562657 0.141747 0.117992
H41   H     H_    0.890881 0.437343 0.858253 0.117992
H42   H     H_    0.000019 0.626028 0.968390 0.133159
H43   H     H_    0.999981 0.373972 0.031610 0.133159
H44   H     H_    0.499999 0.126039 0.031571 0.132639
N1    N     N_1   0.314992 0.454320 0.594730 -0.273078
N2    N     N_1   0.685007 0.545680 0.405270 -0.273078
N3    N     N_1   0.789736 0.349701 0.404191 -0.287853
N4    N     N_1   0.210264 0.650299 0.595809 -0.287853
N5    N     N_1   0.814993 0.954321 0.594728 -0.273026
N6    N     N_1   0.185007 0.045679 0.405272 -0.273026
N7    N     N_1   0.289743 0.849696 0.404195 -0.287838
N8    N     N_1   0.710257 0.150304 0.595805 -0.287838
O1    O     O_3   0.999990 0.500000 0.250040 -0.446217
O2    O     O_R   0.585480 0.853830 0.866170 -0.547157
O3    O     O_R   0.585480 0.146170 0.866170 -0.549156
O4    O     O_R   0.414520 0.853830 0.133830 -0.549156
O5    O     O_R   0.085470 0.353820 0.304740 -0.548624
O6    O     O_R   0.914530 0.646180 0.695260 -0.548625
O7    O     O_R   0.914530 0.353820 0.695260 -0.548924
O8    O     O_R   0.085470 0.646180 0.304740 -0.548924
O9    O     O_R   0.585470 0.853820 0.304740 -0.548572
O10   O     O_R   0.414530 0.146180 0.695260 -0.548573
O11   O     O_R   0.414530 0.853820 0.695260 -0.549103
O12   O     O_3   0.000010 0.500000 0.749960 -0.446217
O13   O     O_R   0.585470 0.146180 0.304740 -0.549102
O14   O     O_R   0.853810 0.414550 0.134600 -0.549130
O15   O     O_R   0.146190 0.585450 0.865400 -0.549130
O16   O     O_R   0.146190 0.414550 0.865400 -0.548464
O17   O     O_R   0.853810 0.585450 0.134600 -0.548464
O18   O     O_R   0.353810 0.914550 0.134600 -0.549137
O19   O     O_R   0.646190 0.085450 0.865400 -0.549137
O20   O     O_R   0.646190 0.914550 0.865400 -0.548451
O21   O     O_R   0.353810 0.085450 0.134600 -0.548451
O22   O     O_R   0.146170 0.585430 0.426970 -0.517933
O23   O     O_3   0.499990 0.000000 0.250040 -0.446214
O24   O     O_R   0.853830 0.414570 0.573030 -0.517933
O25   O     O_R   0.853830 0.585430 0.573030 -0.526657
O26   O     O_R   0.146170 0.414570 0.426970 -0.526658
O27   O     O_R   0.646170 0.085430 0.426970 -0.517834
O28   O     O_R   0.353830 0.914570 0.573030 -0.517834
O29   O     O_R   0.353830 0.085430 0.573030 -0.526627
O30   O     O_R   0.646170 0.914570 0.426970 -0.526627
O31   O     O_R   0.939250 0.500000 0.306600 -0.552750
O32   O     O_R   0.060750 0.500000 0.693400 -0.552750
O33   O     O_R   0.439250 0.000000 0.306600 -0.552756
O34   O     O_3   0.500010 0.000000 0.749960 -0.446214
O35   O     O_R   0.560750 0.000000 0.693400 -0.552756
O36   O     O_R   0.999990 0.560720 0.132740 -0.543391
O37   O     O_R   0.000010 0.439280 0.867260 -0.543391
O38   O     O_R   0.000010 0.560720 0.867260 -0.545632
O39   O     O_R   0.999990 0.439280 0.132740 -0.545632
O40   O     O_R   0.499990 0.060720 0.132740 -0.547665
O41   O     O_R   0.500010 0.939280 0.867260 -0.547665
O42   O     O_R   0.500010 0.060720 0.867260 -0.541337
O43   O     O_R   0.499990 0.939280 0.132740 -0.541337
O44   O     O_R   0.060720 0.500000 0.428060 -0.539844
O45   O     O_R   0.914520 0.646170 0.133830 -0.547077
O46   O     O_R   0.939280 0.500000 0.571940 -0.539844
O47   O     O_R   0.560720 0.000000 0.428060 -0.539837
O48   O     O_R   0.439280 0.000000 0.571940 -0.539838
O49   O     O_R   0.085480 0.353830 0.866170 -0.547077
O50   O     O_R   0.085480 0.646170 0.866170 -0.549234
O51   O     O_R   0.914520 0.353830 0.133830 -0.549234
O52   O     O_R   0.414520 0.146170 0.133830 -0.547157
Zn1   Zn    Zn3+2 0.000000 0.413230 0.206100 0.933371
Zn2   Zn    Zn3+2 0.086780 0.500000 0.792790 0.932717
Zn3   Zn    Zn3+2 0.413220 0.000000 0.207210 0.932723
Zn4   Zn    Zn3+2 0.586780 0.000000 0.792790 0.932722
Zn5   Zn    Zn3+2 0.086760 0.500000 0.380740 0.974697
Zn6   Zn    Zn3+2 0.913240 0.500000 0.619260 0.974697
Zn7   Zn    Zn3+2 0.586760 0.000000 0.380740 0.974746
Zn8   Zn    Zn3+2 0.413240 0.000000 0.619260 0.974746
Zn9   Zn    Zn3+2 0.000000 0.586770 0.793900 0.933371
Zn10  Zn    Zn3+2 0.000000 0.413230 0.793900 0.937222
Zn11  Zn    Zn3+2 0.000000 0.586770 0.206100 0.937222
Zn12  Zn    Zn3+2 0.500000 0.913230 0.206100 0.934759
Zn13  Zn    Zn3+2 0.500000 0.086770 0.793900 0.934759
Zn14  Zn    Zn3+2 0.500000 0.913230 0.793900 0.935750
Zn15  Zn    Zn3+2 0.500000 0.086770 0.206100 0.935750
Zn16  Zn    Zn3+2 0.913220 0.500000 0.207210 0.932718

loop_
_geom_bond_atom_site_label_1
_geom_bond_atom_site_label_2
_ccdc_geom_bond_type
O48   Zn8   S    
C29   H25   S    
C73   O40   A    
C60   O24   A    
O31   Zn16  S    
C72   C89   S    
O1    Zn5   S    
C58   O26   A    
C105  H8    S    
C99   C103  A    
C34   C42   A    
C45   H31   S    
C76   O19   A    
O30   Zn7   S    
C5    C94   S    
C14   C99   A    
C62   O30   A    
C21   C36   S    
O27   Zn7   S    
O46   Zn6   S    
C22   C35   A    
C73   O43   A    
C19   H15   S    
C61   O22   A    
O18   Zn3   S    
C13   C95   A    
C9    N6    T    
O34   Zn13  S    
C46   H32   S    
C25   H20   S    
C12   C104  A    
C48   C52   A    
C19   C36   A    
C17   C64   S    
O34   Zn4   S    
C79   C84   S    
C43   O14   A    
C67   O31   A    
C86   H23   S    
O9    Zn12  S    
C68   O32   A    
C70   O48   A    
C5    N2    T    
C22   C38   A    
C49   H36   S    
C100  C104  A    
C31   C40   A    
O6    Zn9   S    
C48   C56   A    
C51   C56   A    
C32   C39   S    
C15   C107  A    
C58   O5    A    
C53   C68   S    
O14   Zn16  S    
C79   C90   S    
C80   C86   S    
C67   O44   A    
C75   C90   S    
O2    Zn14  S    
C72   O37   A    
O52   Zn15  S    
C1    O17   A    
C7    N4    T    
C88   C92   S    
C28   C37   A    
O23   Zn12  S    
C30   H26   S    
O19   Zn4   S    
O43   Zn12  S    
C24   H19   S    
C66   O13   A    
C3    C17   A    
C3    C96   A    
O12   Zn9   S    
C23   C27   A    
C43   O51   A    
C47   H33   S    
C107  H10   S    
C97   C102  A    
C82   C88   S    
O29   Zn8   S    
C1    C37   S    
C27   H22   S    
O1    Zn16  S    
C20   C34   A    
O24   Zn6   S    
C87   O4    A    
C77   C85   S    
C9    C99   S    
O50   Zn9   S    
C35   C44   A    
C66   O27   A    
C101  C105  A    
O49   Zn10  S    
C108  H11   S    
C57   C69   S    
C15   C97   A    
O12   Zn2   S    
C8    N5    T    
C25   C44   A    
C88   H34   S    
C81   C83   S    
C11   N8    T    
O33   Zn3   S    
O42   Zn13  S    
O28   Zn8   S    
C78   C89   S    
C25   C29   A    
O41   Zn14  S    
C32   O15   A    
C4    N1    T    
C94   C107  A    
C69   O47   A    
C60   O7    A    
O25   Zn6   S    
C81   C88   S    
O15   Zn2   S    
O20   Zn4   S    
O38   Zn9   S    
C31   H27   S    
O37   Zn10  S    
O13   Zn15  S    
C77   H41   S    
C13   C60   S    
C20   C39   A    
O23   Zn15  S    
C70   O35   A    
C22   H17   S    
C47   C51   A    
C65   O2    A    
C74   O42   A    
C51   H38   S    
C75   C78   S    
C63   O29   A    
O45   Zn11  S    
C82   C91   S    
C48   H35   S    
C28   H24   S    
O40   Zn15  S    
C74   C91   S    
C29   C38   A    
C85   H12   S    
C8    C97   S    
O7    Zn10  S    
C7    C96   S    
C93   C106  A    
C47   C57   A    
C104  H7    S    
C32   O50   A    
O4    Zn12  S    
C55   C67   S    
O11   Zn14  S    
C45   C49   A    
C21   O16   A    
C77   C89   S    
C103  H6    S    
O23   Zn3   S    
C69   O33   A    
C77   C79   S    
C11   C101  S    
C78   H42   S    
C81   H2    S    
C10   C100  S    
C80   C92   S    
C26   H21   S    
O35   Zn4   S    
C64   O28   A    
C59   O6    A    
C95   C108  A    
C18   H14   S    
C23   H18   S    
C50   H37   S    
C80   C82   S    
O51   Zn1   S    
C26   C30   A    
C52   H39   S    
C56   C70   S    
C40   C65   S    
C106  H9    S    
C68   O46   A    
C75   H40   S    
O16   Zn2   S    
C16   C66   S    
C84   C89   S    
O8    Zn11  S    
O32   Zn2   S    
C6    N3    T    
O12   Zn6   S    
C78   C85   S    
C79   H43   S    
O5    Zn1   S    
C80   H44   S    
C62   O9    A    
O1    Zn1   S    
O23   Zn7   S    
O39   Zn1   S    
C18   C37   A    
C2    C93   A    
C24   C28   A    
C73   C92   S    
C19   C33   A    
C63   O10   A    
C74   O41   A    
O34   Zn8   S    
C85   C90   S    
O21   Zn3   S    
C71   O39   A    
C18   C31   A    
C65   O20   A    
C27   C36   A    
C46   C50   A    
C34   H29   S    
O47   Zn7   S    
C84   H1    S    
C23   C41   A    
O44   Zn5   S    
C86   C91   S    
C61   O8    A    
C33   C41   A    
C82   H3    S    
O34   Zn14  S    
C64   O11   A    
C38   C43   S    
C35   H30   S    
C102  H5    S    
C98   C102  A    
O26   Zn5   S    
O17   Zn16  S    
C12   C61   S    
C33   H28   S    
C71   O36   A    
C71   C90   S    
C2    C103  A    
C49   C53   A    
C50   C55   A    
O1    Zn11  S    
C46   C53   A    
C54   O52   A    
C1    O45   A    
C24   C40   A    
C15   C62   S    
C21   O49   A    
C30   C39   A    
C59   O25   A    
C14   C63   S    
C26   C42   A    
C2    C58   S    
C75   C84   S    
C17   C100  A    
C41   C54   S    
C20   H16   S    
O36   Zn11  S    
O12   Zn10  S    
C52   C57   A    
C16   C108  A    
C72   O38   A    
C4    C93   S    
C81   C91   S    
C16   C101  A    
C14   C106  A    
C83   C86   S    
C54   O21   A    
C45   C55   A    
O22   Zn5   S    
C83   C92   S    
C6    C95   S    
O10   Zn13  S    
C59   C98   S    
C94   C98   A    
C83   H4    S    
C12   C96   A    
C76   O3    A    
C42   C87   S    
C44   C76   S    
O3    Zn13  S    
C10   N7    T    
C3    H13   S    
C13   C105  A    
C87   O18   A    
