data_mof_unit_57556.cif
_audit_creation_date              2012-10-26T20:31:23-0400
_audit_creation_method            fapswitch 2.2
_symmetry_space_group_name_H-M    P1
_symmetry_Int_Tables_number       1
_space_group_crystal_system       triclinic
_cell_length_a                    11.661535
_cell_length_b                    10.784682
_cell_length_c                    9.722755
_cell_angle_alpha                 90.427482
_cell_angle_beta                  90.194825
_cell_angle_gamma                 93.615973
_cell_volume                      1220.31398872

loop_
_atom_site_label
_atom_site_type_symbol
_atom_type_description
_atom_site_fract_x
_atom_site_fract_y
_atom_site_fract_z
_atom_type_partial_charge
C1    C     C_R   0.504656 0.263064 0.499994 0.538364
C2    C     C_R   0.428350 0.417563 0.073204 0.136092
C3    C     C_R   0.421803 0.424913 0.924843 0.124596
C4    C     C_R   0.284518 0.499678 0.499740 0.539518
C5    C     C_R   0.567953 0.584944 0.931302 0.165885
C6    C     C_3   0.699138 0.614870 0.949786 0.249048
C7    C     C_3   0.672294 0.647003 0.099884 -0.186136
C8    C     C_R   0.504577 0.737359 0.500469 0.534474
C9    C     C_R   0.715468 0.500062 0.499719 0.528306
C10   C     C_1   0.162655 0.499675 0.498980 -0.039444
C11   C     C_1   0.059967 0.499650 0.498283 -0.058729
C12   C     C_R   0.521230 0.130831 0.502500 0.007885
C13   C     C_1   0.940026 0.499632 0.497741 -0.069676
C14   C     C_1   0.837348 0.499797 0.498139 -0.062793
C15   C     C_R   0.502858 0.064218 0.623691 0.024921
C16   C     C_3   0.773293 0.721496 0.754462 0.027976
C17   C     C_3   0.831330 0.845730 0.710294 -0.275936
C18   C     C_3   0.861225 0.844829 0.557572 -0.485284
C19   C     C_3   0.355076 0.314340 0.144559 -0.225907
C20   C     C_3   0.404189 0.186641 0.127617 -0.438153
C21   C     C_3   0.319788 0.356436 0.852685 -0.225943
C22   C     C_3   0.211924 0.430818 0.860995 -0.419283
C23   C     C_R   0.562540 0.068010 0.387490 -0.168695
C24   C     C_3   0.784334 0.506362 0.956236 -0.264990
C25   C     C_3   0.770247 0.401678 0.850491 -0.418101
C26   C     C_R   0.560104 0.938061 0.386503 -0.167380
C27   C     C_R   0.520664 0.871497 0.502877 0.000439
C28   C     C_R   0.503369 0.936934 0.624287 0.025204
C29   C     C_3   0.408159 0.924214 0.726428 -0.258695
C30   C     C_3   0.407739 0.065014 0.725580 -0.285113
C31   C     C_R   0.555138 0.594026 0.074904 0.082393
Cu1   Cu    Cu3+1 0.499990 0.499980 0.640670 0.893197
Cu2   Cu    Cu3+1 0.500010 0.500020 0.359330 0.904719
H1    H     H_    0.591417 0.118147 0.296985 0.131162
H2    H     H_    0.833623 0.647827 0.735498 0.145973
H3    H     H_    0.772547 0.921070 0.730408 0.178469
H4    H     H_    0.911211 0.865493 0.771427 0.170080
H5    H     H_    0.924638 0.774628 0.536180 0.156118
H6    H     H_    0.899392 0.937641 0.527824 0.150789
H7    H     H_    0.782849 0.823218 0.494392 0.149482
H8    H     H_    0.498512 0.195693 0.111476 0.154783
H9    H     H_    0.384668 0.130132 0.220509 0.149314
H10   H     H_    0.363722 0.133735 0.040547 0.118943
H11   H     H_    0.342292 0.330646 0.252990 0.213372
H12   H     H_    0.720869 0.601528 0.180592 0.136432
H13   H     H_    0.264776 0.309516 0.109300 0.098190
H14   H     H_    0.231038 0.529253 0.831942 0.182104
H15   H     H_    0.144619 0.388690 0.790947 0.133031
H16   H     H_    0.176445 0.430844 0.966526 0.124895
H17   H     H_    0.337693 0.330234 0.746991 0.204590
H18   H     H_    0.298528 0.263579 0.894831 0.091431
H19   H     H_    0.678791 0.372643 0.831743 0.201165
H20   H     H_    0.816424 0.428021 0.755498 0.163408
H21   H     H_    0.812072 0.319033 0.889581 0.114276
H22   H     H_    0.874242 0.547117 0.952957 0.150115
H23   H     H_    0.670421 0.748420 0.121270 0.132996
H24   H     H_    0.777032 0.456620 0.055958 0.123941
H25   H     H_    0.584391 0.890290 0.293790 0.127863
H26   H     H_    0.328484 0.876948 0.682835 0.137165
H27   H     H_    0.437135 0.886829 0.826080 0.148120
H28   H     H_    0.327685 0.099793 0.681878 0.120139
H29   H     H_    0.437889 0.108858 0.823778 0.134237
H30   H     H_    0.694230 0.706886 0.693423 0.201661
N1    N     N_R   0.500710 0.500930 0.147930 -0.245912
N2    N     N_R   0.500710 0.500890 0.852020 -0.263264
O1    O     O_R   0.500000 0.319640 0.618810 -0.520021
O2    O     O_R   0.500010 0.319680 0.381230 -0.514201
O3    O     O_R   0.337190 0.499990 0.618790 -0.508858
O4    O     O_R   0.337200 0.500030 0.381210 -0.508876
O5    O     O_R   0.499990 0.680320 0.618770 -0.503855
O6    O     O_R   0.500000 0.680360 0.381190 -0.496454
O7    O     O_R   0.662800 0.499970 0.618790 -0.525393
O8    O     O_R   0.662810 0.500010 0.381210 -0.499959
O9    O     O_3   0.744713 0.729140 0.893999 -0.590212

loop_
_geom_bond_atom_site_label_1
_geom_bond_atom_site_label_2
_ccdc_geom_bond_type
C5    C31   A    
C22   H15   S    
C18   H6    S    
C29   H27   S    
C3    C21   S    
C6    C7    S    
C17   H3    S    
C11   C13   S    
Cu1   O1    S    
C8    O5    A    
C19   C20   S    
C12   C15   A    
Cu2   O4    S    
C9    C14   S    
C23   H1    S    
C6    C24   S    
Cu1   Cu2   S    
C17   C18   S    
C18   H5    S    
C25   H19   S    
Cu1   O7    S    
C17   H4    S    
C21   C22   S    
C25   H21   S    
C24   H22   S    
C20   H9    S    
C26   H25   S    
C12   C23   A    
C28   C29   S    
C26   C27   A    
C29   C30   S    
C1    C12   S    
C9    O8    A    
C7    H23   S    
C2    N1    A    
Cu2   N1    S    
C16   O9    S    
C7    H12   S    
Cu2   O8    S    
C4    O4    A    
C16   H30   S    
C25   H20   S    
C6    O9    S    
C2    C3    A    
C30   H29   S    
C16   H2    S    
C5    C6    S    
C3    N2    A    
Cu1   O3    S    
C22   H14   S    
C24   C25   S    
C19   H13   S    
C7    C31   S    
C10   C11   T    
Cu2   O6    S    
C4    C10   S    
C15   C28   A    
C21   H18   S    
C20   H10   S    
C19   H11   S    
Cu2   O2    S    
C15   C30   S    
C5    N2    A    
C24   H24   S    
C23   C26   A    
C22   H16   S    
C27   C28   A    
C4    O3    A    
C8    C27   S    
C18   H7    S    
C30   H28   S    
C21   H17   S    
C9    O7    A    
Cu1   O5    S    
C1    O2    A    
C2    C19   S    
C13   C14   T    
C31   N1    A    
C29   H26   S    
C16   C17   S    
C20   H8    S    
Cu1   N2    S    
C8    O6    A    
C1    O1    A    
