data_mof_unit_36630.cif
_audit_creation_date              2013-03-05T16:23:10-0500
_audit_creation_method            fapswitch 2.2
_symmetry_space_group_name_H-M    P1
_symmetry_Int_Tables_number       1
_space_group_crystal_system       triclinic
_cell_length_a                    15.108538
_cell_length_b                    13.857225
_cell_length_c                    15.875486
_cell_angle_alpha                 89.899068
_cell_angle_beta                  90.021602
_cell_angle_gamma                 90.068895
_cell_volume                      3323.72222306

loop_
_atom_site_label
_atom_site_type_symbol
_atom_site_description
_atom_site_fract_x
_atom_site_fract_y
_atom_site_fract_z
_atom_type_partial_charge
O1    O     O_R   0.371450 0.581430 0.500010 -0.599559
O2    O     O_R   0.371450 0.418570 0.500010 -0.584278
C1    C     C_R   0.329636 0.499960 0.499851 0.837834
O3    O     O_R   0.500000 0.581470 0.379440 -0.573708
O4    O     O_R   0.500000 0.418530 0.379440 -0.580910
C2    C     C_R   0.500427 0.500028 0.340164 0.829601
Cu1   Cu    Cu3+1 0.499990 0.596430 0.500000 0.958240
Cu2   Cu    Cu3+1 0.499990 0.403570 0.500000 0.946456
O5    O     O_R   0.628540 0.581440 0.499990 -0.578769
O6    O     O_R   0.628540 0.418560 0.499990 -0.566552
O7    O     O_R   0.499990 0.581400 0.620560 -0.557611
O8    O     O_R   0.499990 0.418600 0.620560 -0.600376
C3    C     C_R   0.669818 0.500031 0.500172 0.920259
C4    C     C_R   0.500176 0.499883 0.659824 0.831068
C5    C     C_3   0.408818 0.527690 0.051470 0.768362
C6    C     C_3   0.524605 0.387082 0.049005 0.766442
C7    C     C_3   0.510751 0.387076 0.949678 0.204413
C8    C     C_3   0.409873 0.528051 0.951060 0.103573
H1    H     H_    0.363315 0.472865 0.926692 0.043016
H2    H     H_    0.446530 0.349550 0.937586 0.044949
C9    C     C_1   0.501124 0.499222 0.749269 -0.219234
C10   C     C_3   0.503054 0.493275 0.082520 -0.131933
C11   C     C_3   0.503453 0.494796 0.916884 -0.148987
C12   C     C_3   0.587281 0.553507 0.952549 0.899702
C13   C     C_3   0.574683 0.564883 0.049262 -0.539787
C14   C     C_1   0.502221 0.497360 0.824738 0.071493
C15   C     C_1   0.503213 0.497169 0.175174 0.139278
C16   C     C_1   0.501904 0.499587 0.250654 -0.177766
H3    H     H_    0.558893 0.639815 0.067924 0.200274
H4    H     H_    0.638667 0.550991 0.081968 0.213962
C17   C     C_R   0.094076 0.588034 0.498051 0.401838
C18   C     C_R   0.093863 0.411832 0.499393 0.401635
C19   C     C_R   0.186280 0.587445 0.499838 -0.291342
C20   C     C_R   0.186094 0.412401 0.498339 -0.283754
H5    H     H_    0.221153 0.655781 0.500973 0.171922
H6    H     H_    0.220853 0.344074 0.497453 0.180932
C21   C     C_R   0.232728 0.499919 0.499379 -0.161495
C22   C     C_R   0.047419 0.499944 0.498662 -0.069888
C23   C     C_R   0.903836 0.448834 0.437538 -0.205864
C24   C     C_R   0.904778 0.550953 0.561421 -0.217377
H7    H     H_    0.939245 0.411692 0.387934 0.177129
H8    H     H_    0.941791 0.586685 0.610727 0.168801
C25   C     C_R   0.811532 0.445497 0.439483 0.393578
C26   C     C_R   0.811993 0.554455 0.560853 0.392706
C27   C     C_R   0.765978 0.500027 0.500200 -0.223662
C28   C     C_R   0.950399 0.500037 0.499074 0.013886
C29   C     C_R   0.531956 0.108438 0.571762 0.468256
C30   C     C_R   0.577869 0.891707 0.524299 0.462029
C31   C     C_R   0.533080 0.210204 0.567964 -0.053279
C32   C     C_R   0.573882 0.789876 0.525700 -0.045447
H9    H     H_    0.559561 0.250169 0.620694 0.143800
H10   H     H_    0.631064 0.750066 0.546804 0.162115
N1    N     N_R   0.500020 0.258690 0.500000 -0.194116
N2    N     N_R   0.500020 0.741310 0.500000 -0.193307
C33   C     C_R   0.466784 0.208244 0.433322 0.053317
C34   C     C_R   0.427596 0.791961 0.473738 0.058328
H11   H     H_    0.439748 0.246450 0.379775 0.147470
H12   H     H_    0.369313 0.754061 0.452219 0.134914
C35   C     C_R   0.467549 0.106690 0.432736 -0.390080
C36   C     C_R   0.427156 0.893528 0.474374 -0.387015
H13   H     H_    0.442339 0.069025 0.378033 0.164601
H14   H     H_    0.367892 0.931267 0.454757 0.163912
C37   C     C_R   0.501329 0.054624 0.501841 0.050007
C38   C     C_R   0.502233 0.945522 0.500880 0.050686
O9    O     O_3   0.765046 0.397290 0.377204 -0.584814
C39   C     C_3   0.774892 0.296969 0.389162 -0.287083
H15   H     H_    0.730278 0.259089 0.344575 0.174258
H16   H     H_    0.755483 0.274589 0.454033 0.170511
H17   H     H_    0.843651 0.273355 0.375287 0.164028
O10   O     O_3   0.764394 0.601215 0.623645 -0.592800
C40   C     C_3   0.795067 0.696609 0.635020 -0.284516
H18   H     H_    0.808308 0.733894 0.574044 0.158951
H19   H     H_    0.854692 0.697749 0.675901 0.163708
H20   H     H_    0.742900 0.738248 0.667996 0.198890
O11   O     O_3   0.562223 0.062766 0.643582 -0.540243
C41   C     C_3   0.491277 0.054969 0.700820 -0.357422
H21   H     H_    0.436631 0.010332 0.674369 0.165283
H22   H     H_    0.466102 0.127279 0.719592 0.136555
H23   H     H_    0.515368 0.018406 0.758647 0.196356
O12   O     O_3   0.655161 0.937787 0.547789 -0.542604
C42   C     C_3   0.713805 0.937170 0.478760 -0.358684
H24   H     H_    0.684520 0.974347 0.423094 0.159725
H25   H     H_    0.733891 0.862365 0.462043 0.145632
H26   H     H_    0.774604 0.977178 0.496621 0.199495
O13   O     O_3   0.346847 0.463751 0.092594 -0.574838
C43   C     C_3   0.271007 0.434625 0.047101 0.033193
H27   H     H_    0.287927 0.372837 0.005604 0.152481
H28   H     H_    0.241522 0.493967 0.009772 0.120382
C44   C     C_3   0.201321 0.399389 0.109061 -0.769691
H29   H     H_    0.181972 0.458800 0.152127 0.232330
H30   H     H_    0.141777 0.374430 0.074286 0.195024
H31   H     H_    0.227880 0.338384 0.146847 0.260589
O14   O     O_3   0.464023 0.320830 0.087401 -0.602882
C45   C     C_3   0.483037 0.222373 0.071085 0.088181
H32   H     H_    0.504416 0.187631 0.130788 0.152067
H33   H     H_    0.536524 0.210354 0.024343 0.187981
C46   C     C_3   0.399288 0.171680 0.041319 -0.867244
H34   H     H_    0.376400 0.202980 0.980747 0.228567
H35   H     H_    0.412757 0.093661 0.032046 0.208465
H36   H     H_    0.346100 0.179875 0.089053 0.264555
O15   O     O_3   0.615089 0.361184 0.065187 -0.530579
C47   C     C_3   0.636638 0.345394 0.150914 -0.274741
H37   H     H_    0.580305 0.322229 0.190975 0.166383
H38   H     H_    0.667143 0.411457 0.177663 0.180683
H39   H     H_    0.687098 0.287449 0.154232 0.174468
O16   O     O_3   0.398866 0.624410 0.081883 -0.578085
C48   C     C_3   0.310437 0.652561 0.096265 -0.204629
H40   H     H_    0.280276 0.610725 0.148645 0.175979
H41   H     H_    0.270013 0.648560 0.038186 0.165361
H42   H     H_    0.310572 0.729257 0.116099 0.152911
O17   O     O_3   0.581386 0.337158 0.908948 -0.491215
C49   C     C_3   0.550127 0.270270 0.848628 -0.311031
H43   H     H_    0.505332 0.304452 0.801876 0.150187
H44   H     H_    0.515596 0.208949 0.879490 0.144093
H45   H     H_    0.607621 0.240705 0.813791 0.202273
O18   O     O_3   0.384821 0.620205 0.919723 -0.559763
C50   C     C_3   0.315603 0.615257 0.859894 -0.345281
H46   H     H_    0.253142 0.590320 0.889602 0.143165
H47   H     H_    0.332925 0.567768 0.806103 0.166160
H48   H     H_    0.303913 0.688720 0.834421 0.188540
O19   O     O_3   0.608246 0.644345 0.913099 -0.618242
C51   C     C_3   0.541986 0.715296 0.909597 -0.265170
H49   H     H_    0.501537 0.720688 0.967341 0.217445
H50   H     H_    0.501851 0.705724 0.851731 0.222607
H51   H     H_    0.575072 0.786350 0.902694 0.164697
O20   O     O_3   0.664030 0.493295 0.945132 -0.536066
C52   C     C_3   0.714746 0.508149 0.871234 -0.072315
H52   H     H_    0.756960 0.573361 0.878130 0.159345
H53   H     H_    0.673629 0.514032 0.813683 0.163330
H54   H     H_    0.759342 0.445393 0.862777 0.155865
O21   O     O_3   0.049668 0.675158 0.499634 -0.581435
C53   C     C_3   0.036264 0.706394 0.415957 0.079498
H55   H     H_    0.002364 0.650062 0.377536 0.141712
H56   H     H_    0.100623 0.725399 0.385975 0.134756
C54   C     C_3   0.977835 0.795694 0.416558 -0.800819
H57   H     H_    0.009921 0.854002 0.453574 0.249328
H58   H     H_    0.967214 0.821500 0.351076 0.196868
H59   H     H_    0.912641 0.778212 0.445145 0.239816
O22   O     O_3   0.049277 0.324721 0.497427 -0.581640
C55   C     C_3   0.034781 0.293600 0.580971 0.068811
H60   H     H_    0.001171 0.350214 0.619186 0.140377
H61   H     H_    0.098669 0.273903 0.611470 0.138086
C56   C     C_3   0.975352 0.204958 0.579767 -0.782511
H62   H     H_    0.007272 0.146219 0.543265 0.246791
H63   H     H_    0.963555 0.179427 0.645150 0.202048
H64   H     H_    0.910767 0.223122 0.550268 0.242860

loop_
_geom_bond_atom_site_label_1
_geom_bond_atom_site_label_2
_geom_bond_distance
_ccdc_geom_bond_type
C5    C8    1.594141 S    
C39   H16   1.114300 S    
C9    C14   1.198451 T    
C31   N1    1.364887 A    
O14   C45   1.418902 S    
C33   C35   1.407369 A    
C56   H64   1.111151 S    
C20   C21   1.401960 A    
O17   C49   1.414539 S    
C55   C56   1.520781 S    
C42   H26   1.109358 S    
C49   H44   1.109931 S    
C46   H34   1.109532 S    
Cu1   Cu2   2.672506 S    
C29   C31   1.411456 A    
O13   C43   1.413057 S    
Cu1   O7    1.924883 S    
C6    O14   1.431296 S    
O15   C47   1.415942 S    
O20   C52   1.416069 S    
C5    O16   1.433487 S    
C41   H22   1.113362 S    
C50   H47   1.110553 S    
C29   C37   1.415660 A    
O4    C2    1.289078 A    
O7    C4    1.289214 A    
C43   H28   1.106716 S    
C30   C38   1.414560 A    
C39   H17   1.111774 S    
O16   C48   1.411067 S    
C56   H62   1.110736 S    
C7    H2    1.117005 S    
O18   C50   1.414156 S    
C47   H39   1.109059 S    
C36   H14   1.082841 S    
C8    H1    1.108519 S    
C11   C14   1.463339 S    
O5    C3    1.289669 A    
C45   H33   1.110241 S    
C17   O21   1.382178 S    
C42   H25   1.113035 S    
C5    C10   1.580454 S    
C2    C16   1.421219 S    
C6    C7    1.590608 S    
C31   H9    1.080908 S    
C10   C13   1.559042 S    
C32   H10   1.078538 S    
C48   H40   1.110483 S    
C17   C19   1.393376 A    
C26   O10   1.390932 S    
O10   C40   1.412130 S    
C18   C22   1.409022 A    
C44   H30   1.110537 S    
Cu2   O8    1.925612 S    
C5    O13   1.443706 S    
C30   C32   1.412448 A    
C39   H15   1.109508 S    
C54   H58   1.110413 S    
C12   O20   1.434374 S    
C48   H41   1.107211 S    
C47   H37   1.109476 S    
O3    Cu1   1.925506 S    
C7    O17   1.428061 S    
C49   H43   1.110144 S    
C46   H35   1.110420 S    
C42   H24   1.113906 S    
N1    C33   1.364812 A    
C13   H3    1.106610 S    
N2    C34   1.365368 A    
C35   H13   1.082828 S    
C8    C11   1.583910 S    
C54   H57   1.110714 S    
C12   C13   1.555497 S    
C18   O22   1.382047 S    
C23   H7    1.083338 S    
C50   H48   1.109039 S    
C8    O18   1.421358 S    
C40   H19   1.110193 S    
C43   H27   1.111351 S    
C53   H55   1.115432 S    
C23   C25   1.395644 A    
C45   C46   1.521970 S    
O6    C3    1.289115 A    
C19   C21   1.402017 A    
C34   C36   1.407517 A    
O1    C1    1.293029 A    
C18   C20   1.393589 A    
C24   C28   1.398821 A    
O11   C41   1.409404 S    
C52   H53   1.107582 S    
O4    Cu2   1.924780 S    
C25   O9    1.384822 S    
C7    C11   1.583976 S    
C41   H21   1.113548 S    
C44   H31   1.111008 S    
C47   H38   1.109509 S    
C25   C27   1.406460 A    
O19   C51   1.405016 S    
C54   H59   1.110946 S    
C23   C28   1.397661 A    
O3    C2    1.290343 A    
O8    C4    1.288286 A    
C10   C15   1.472018 S    
C33   H11   1.080946 S    
C48   H42   1.108990 S    
C51   H50   1.108614 S    
O21   C53   1.411041 S    
C46   H36   1.110809 S    
C26   C27   1.407179 A    
C4    C9    1.420071 S    
C13   H4    1.113942 S    
C56   H63   1.110428 S    
C6    C10   1.599555 S    
O1    Cu1   1.952895 S    
Cu2   O6    1.953029 S    
O2    Cu2   1.953392 S    
C55   H61   1.113757 S    
O12   C42   1.409543 S    
C43   C44   1.520622 S    
Cu2   N1    2.007634 S    
C40   H20   1.109364 S    
O22   C55   1.411031 S    
C35   C37   1.407924 A    
C17   C22   1.408889 A    
C36   C38   1.407681 A    
C30   O12   1.381742 S    
C51   H51   1.108990 S    
O2    C1    1.293383 A    
C44   H29   1.110577 S    
C52   H54   1.109120 S    
C29   O11   1.381105 S    
C40   H18   1.114516 S    
C32   N2    1.365106 A    
C50   H46   1.109683 S    
C3    C27   1.452837 S    
C53   C54   1.520973 S    
C55   H60   1.115457 S    
C24   H8    1.082116 S    
C12   O19   1.439954 S    
C19   H5    1.083278 S    
C34   H12   1.080385 S    
C20   H6    1.083376 S    
C45   H32   1.110398 S    
C22   C28   1.465845 S    
C11   C12   1.607838 S    
C37   C38   1.512025 S    
Cu1   O5    1.953526 S    
C6    O15   1.436769 S    
C24   C26   1.402758 A    
C41   H23   1.109296 S    
C1    C21   1.464154 S    
C53   H56   1.113870 S    
O9    C39   1.410780 S    
C15   C16   1.198977 T    
Cu1   N2    2.007633 S    
C51   H49   1.104629 S    
C49   H45   1.109170 S    
C52   H52   1.110982 S    
