data_mof_unit_45475.cif
_audit_creation_date              2012-12-10T17:45:33-0500
_audit_creation_method            fapswitch 2.2
_symmetry_space_group_name_H-M    P1
_symmetry_Int_Tables_number       1
_space_group_crystal_system       triclinic
_cell_length_a                    11.531801
_cell_length_b                    10.618844
_cell_length_c                    9.973488
_cell_angle_alpha                 89.180423
_cell_angle_beta                  90.533423
_cell_angle_gamma                 92.325199
_cell_volume                      1220.12047005

loop_
_atom_site_label
_atom_site_type_symbol
_atom_type_description
_atom_site_fract_x
_atom_site_fract_y
_atom_site_fract_z
_atom_type_partial_charge
Br1   Br    Br    0.297429 0.252513 0.740028 -0.528143
C1    C     C_R   0.503934 0.260996 0.500730 0.890704
C2    C     C_R   0.512658 0.872054 0.497745 -0.093930
C3    C     C_R   0.321356 0.374427 0.143915 -0.126674
C4    C     C_R   0.282214 0.500198 0.499460 0.927317
C5    C     C_R   0.214632 0.349747 0.083631 -0.238817
C6    C     C_R   0.203907 0.363731 0.946356 -0.200193
C7    C     C_R   0.303854 0.384026 0.869338 0.310638
C8    C     C_R   0.407473 0.439968 0.929233 0.098505
C9    C     C_R   0.410776 0.438669 0.073515 0.133217
C10   C     C_R   0.586489 0.557852 0.071110 -0.097174
C11   C     C_R   0.586986 0.556973 0.928543 -0.103846
C12   C     C_R   0.787154 0.074725 0.691363 -0.120812
C13   C     C_R   0.503865 0.739304 0.499236 0.855403
C14   C     C_R   0.717811 0.500396 0.500504 0.861468
C15   C     C_1   0.161633 0.499753 0.498687 -0.167419
C16   C     C_1   0.059364 0.499489 0.499408 0.003363
C17   C     C_1   0.940615 0.499571 0.500802 -0.002027
C18   C     C_1   0.838363 0.499924 0.501369 -0.190116
C19   C     C_R   0.696453 0.137561 0.630177 -0.172509
C20   C     C_R   0.787940 0.943777 0.689178 -0.133344
C21   C     C_R   0.698038 0.875200 0.625786 -0.183337
C22   C     C_R   0.604565 0.937419 0.564665 0.100204
C23   C     C_R   0.603778 0.069363 0.566853 0.092023
C24   C     C_R   0.511262 0.128814 0.501680 -0.071206
C25   C     C_R   0.424375 0.062020 0.431891 -0.167840
C26   C     C_R   0.425094 0.933467 0.429883 -0.195147
H1    H     H_    0.354709 0.109705 0.381040 0.148761
H2    H     H_    0.332448 0.340836 0.244485 0.200259
H3    H     H_    0.142747 0.310269 0.141740 0.168456
H4    H     H_    0.123097 0.330375 0.900158 0.178943
H5    H     H_    0.657980 0.604268 0.875420 0.142584
H6    H     H_    0.700814 0.239352 0.631526 0.147813
H7    H     H_    0.857622 0.127884 0.739423 0.145720
H8    H     H_    0.859018 0.895215 0.735525 0.142784
H9    H     H_    0.703679 0.773868 0.623404 0.141124
H10   H     H_    0.355668 0.881406 0.378207 0.156202
H11   H     H_    0.657151 0.605923 0.124111 0.147561
N1    N     N_R   0.498930 0.498800 0.142780 -0.113462
N2    N     N_R   0.498900 0.498720 0.857170 -0.109619
O1    O     O_R   0.500000 0.316780 0.614690 -0.567322
O2    O     O_R   0.499990 0.316750 0.385360 -0.642163
O3    O     O_R   0.334450 0.500030 0.614670 -0.585547
O4    O     O_R   0.334440 0.500000 0.385330 -0.638312
O5    O     O_R   0.500010 0.683250 0.614640 -0.612981
O6    O     O_R   0.500000 0.683220 0.385310 -0.609991
O7    O     O_R   0.665560 0.500000 0.614670 -0.633021
O8    O     O_R   0.665550 0.499970 0.385330 -0.608301
Zn1   Zn    Zn3+2 0.500010 0.500020 0.653130 0.974636
Zn2   Zn    Zn3+2 0.499990 0.499980 0.346870 0.945568

loop_
_geom_bond_atom_site_label_1
_geom_bond_atom_site_label_2
_ccdc_geom_bond_type
C11   N2    A    
C10   H11   S    
C10   N1    A    
C22   C23   A    
C5    C6    A    
C20   H8    S    
O5    Zn1   S    
C1    C24   S    
Br1   C7    S    
C21   H9    S    
C8    C9    A    
O6    Zn2   S    
C2    C22   A    
C3    H2    S    
O2    Zn2   S    
C14   O7    A    
C10   C11   A    
C2    C26   A    
C16   C17   S    
C4    O3    A    
C12   C20   A    
C6    C7    A    
O7    Zn1   S    
C20   C21   A    
C11   H5    S    
C14   C18   S    
C25   C26   A    
C15   C16   T    
C2    C13   S    
C14   O8    A    
C26   H10   S    
C19   H6    S    
O8    Zn2   S    
C5    H3    S    
C4    O4    A    
C1    O2    A    
C13   O5    A    
C3    C5    A    
C6    H4    S    
C1    O1    A    
C3    C9    A    
N2    Zn1   S    
C12   H7    S    
N1    Zn2   S    
C23   C24   A    
C13   O6    A    
C17   C18   T    
O1    Zn1   S    
C21   C22   A    
O3    Zn1   S    
C4    C15   S    
O4    Zn2   S    
C12   C19   A    
C24   C25   A    
C25   H1    S    
C9    N1    A    
C8    N2    A    
C19   C23   A    
C7    C8    A    
