data_mof_unit_65270.cif
_audit_creation_date              2012-12-10T20:43:45-0500
_audit_creation_method            fapswitch 2.2
_symmetry_space_group_name_H-M    P1
_symmetry_Int_Tables_number       1
_space_group_crystal_system       triclinic
_cell_length_a                    10.826605
_cell_length_b                    19.235782
_cell_length_c                    19.251448
_cell_angle_alpha                 94.728472
_cell_angle_beta                  91.754829
_cell_angle_gamma                 96.815034
_cell_volume                      3964.08674351

loop_
_atom_site_label
_atom_site_type_symbol
_atom_type_description
_atom_site_fract_x
_atom_site_fract_y
_atom_site_fract_z
_atom_type_partial_charge
C1    C     C_R   0.513680 0.690188 0.508158 0.506672
C2    C     C_R   0.521552 0.767100 0.510467 0.031712
C3    C     C_R   0.627223 0.805474 0.485738 -0.139577
C4    C     C_R   0.487133 0.310023 0.491624 0.539370
C5    C     C_R   0.634284 0.878039 0.484830 -0.104034
C6    C     C_R   0.479649 0.508757 0.765041 0.056594
C7    C     C_R   0.588715 0.512739 0.808213 0.169881
C8    C     C_R   0.578254 0.507838 0.879368 -0.042676
C9    C     C_R   0.461247 0.500384 0.909856 0.157559
C10   C     C_R   0.351778 0.498580 0.867411 -0.001647
C11   C     C_R   0.361601 0.503969 0.794669 0.158217
C12   C     C_R   0.589252 0.199923 0.495249 0.175462
C13   C     C_R   0.421489 0.474847 0.118380 -0.029029
C14   C     C_R   0.409205 0.477391 0.190300 0.216920
C15   C     C_R   0.538820 0.489672 0.089127 0.193302
C16   C     C_R   0.511961 0.493586 0.311034 0.497499
C17   C     C_R   0.517270 0.491875 0.234791 0.019141
C18   C     C_R   0.634269 0.504666 0.205898 -0.204545
C19   C     C_R   0.646644 0.503459 0.133690 0.001326
C20   C     C_R   0.487228 0.507200 0.688799 0.546087
C21   C     C_R   0.835196 0.515464 0.515175 0.492356
C22   C     C_R   0.163953 0.485081 0.485100 0.520137
C23   C     C_R   0.579070 0.127983 0.501984 -0.029060
C24   C     C_2   0.029047 0.479144 0.479470 -0.102995
C25   C     C_2   0.968557 0.521579 0.520623 -0.090457
C26   C     C_R   0.479690 0.233156 0.489716 0.065550
C27   C     C_2   0.226778 0.486569 0.897734 0.265739
C28   C     C_2   0.774219 0.517839 0.107606 0.276065
C29   C     C_R   0.461691 0.087312 0.500923 0.145482
C30   C     C_R   0.354270 0.120019 0.493548 -0.115534
C31   C     C_R   0.361821 0.192779 0.487865 0.198209
C32   C     C_R   0.430139 0.875449 0.533590 -0.084028
C33   C     C_R   0.423734 0.802670 0.535385 -0.147547
C34   C     C_R   0.535560 0.913512 0.507304 0.229347
H1    H     H_    0.978610 0.439987 0.441648 0.117210
H2    H     H_    0.664126 0.104063 0.507361 0.180074
H3    H     H_    0.716242 0.906762 0.465228 0.129617
H4    H     H_    0.704130 0.279429 0.471398 0.333035
H5    H     H_    0.289040 0.492496 0.261300 0.339386
H6    H     H_    0.147598 0.460646 0.865819 0.134393
H7    H     H_    0.192097 0.524049 0.776623 0.327122
H8    H     H_    0.853045 0.530572 0.144564 0.114593
H9    H     H_    0.705263 0.544567 0.739015 0.333123
H10   H     H_    0.181359 0.190146 0.482659 0.333120
H11   H     H_    0.337412 0.463368 0.085462 0.207461
H12   H     H_    0.717014 0.515208 0.240136 0.130167
H13   H     H_    0.663519 0.510558 0.910896 0.222465
H14   H     H_    0.016679 0.561285 0.558628 0.133002
H15   H     H_    0.341512 0.774141 0.554887 0.140098
H16   H     H_    0.353015 0.901632 0.552528 0.144053
H17   H     H_    0.264240 0.088562 0.492772 0.126946
H18   H     H_    0.704575 0.779381 0.466887 0.143888
N1    N     N_2   0.447734 0.013583 0.506762 -0.233315
N2    N     N_2   0.547245 0.987134 0.502614 -0.242987
N3    N     N_2   0.450300 0.494428 0.982733 -0.183194
N4    N     N_2   0.550574 0.493268 0.016044 -0.180081
O1    O     O_3   0.500000 0.500000 0.500000 -0.463412
O2    O     O_R   0.783160 0.551820 0.473170 -0.541086
O3    O     O_R   0.222430 0.530340 0.530340 -0.532624
O4    O     O_R   0.771990 0.472690 0.551320 -0.519609
O5    O     O_R   0.222420 0.445150 0.445160 -0.517156
O6    O     O_3   0.707845 0.235210 0.493808 -0.671010
O7    O     O_3   0.290033 0.467711 0.214261 -0.666024
O8    O     O_2   0.210076 0.505881 0.958371 -0.452645
O9    O     O_3   0.257743 0.502745 0.750717 -0.670310
O10   O     O_2   0.793868 0.515356 0.045410 -0.451632
O11   O     O_3   0.707515 0.522523 0.783608 -0.661648
O12   O     O_R   0.435070 0.449940 0.339290 -0.528813
O13   O     O_3   0.255593 0.225749 0.482898 -0.656753
O14   O     O_R   0.419380 0.543640 0.654290 -0.490454
O15   O     O_R   0.586230 0.658380 0.469080 -0.545529
O16   O     O_R   0.559310 0.348040 0.537340 -0.531036
O17   O     O_R   0.435110 0.654980 0.544320 -0.546359
O18   O     O_R   0.419350 0.338590 0.449260 -0.486772
O19   O     O_R   0.586210 0.538520 0.349230 -0.544354
O20   O     O_R   0.559330 0.467910 0.657200 -0.530197
Zn1   Zn    Zn3+2 0.396020 0.434560 0.434560 0.997319
Zn2   Zn    Zn3+2 0.611960 0.561120 0.448760 0.930556
Zn3   Zn    Zn3+2 0.595990 0.448060 0.560420 0.984868
Zn4   Zn    Zn3+2 0.396040 0.556260 0.556260 0.973003

loop_
_geom_bond_atom_site_label_1
_geom_bond_atom_site_label_2
_ccdc_geom_bond_type
C10   C27   S    
N3    N4    D    
O4    Zn3   S    
C5    H3    S    
C16   O19   A    
O1    Zn3   S    
O1    Zn4   S    
O20   Zn3   S    
C30   H17   S    
C7    C8    A    
N1    N2    D    
C15   C19   A    
C12   C23   A    
C1    O15   A    
C23   C29   A    
C18   C19   A    
O16   Zn3   S    
C30   C31   A    
C33   H15   S    
C20   O20   A    
C1    C2    S    
O5    Zn1   S    
C8    C9    A    
O18   Zn1   S    
C9    N3    S    
C9    C10   A    
C4    O18   A    
C6    C11   A    
C26   C31   A    
C13   C14   A    
C14   C17   A    
C20   O14   A    
C18   H12   S    
C24   H1    S    
O14   Zn4   S    
O1    Zn1   S    
C24   C25   D    
C21   O4    A    
C27   O8    D    
C22   O3    A    
C16   C17   S    
H7    O9    S    
C12   C26   A    
C32   C34   A    
C28   O10   D    
C29   C30   A    
C12   O6    S    
C27   H6    S    
C5    C34   A    
C17   C18   A    
H10   O13   S    
C19   C28   S    
C25   H14   S    
C32   H16   S    
C16   O12   A    
C2    C33   A    
C34   N2    S    
C13   C15   A    
C22   C24   S    
C4    O16   A    
C6    C20   S    
O12   Zn1   S    
C21   C25   S    
O1    Zn2   S    
C3    C5    A    
O3    Zn4   S    
C4    C26   S    
C3    H18   S    
C6    C7    A    
H5    O7    S    
C1    O17   A    
C32   C33   A    
C2    C3    A    
C8    H13   S    
C21   O2    A    
C15   N4    S    
C22   O5    A    
C13   H11   S    
C29   N1    S    
C14   O7    S    
C28   H8    S    
O17   Zn4   S    
O19   Zn2   S    
C10   C11   A    
O2    Zn2   S    
C7    O11   S    
C31   O13   S    
H9    O11   S    
C23   H2    S    
O15   Zn2   S    
C11   O9    S    
H4    O6    S    
