data_mof_unit_66925.cif
_audit_creation_date              2013-03-05T15:57:28-0500
_audit_creation_method            fapswitch 2.2
_symmetry_space_group_name_H-M    P1
_symmetry_Int_Tables_number       1
_space_group_crystal_system       triclinic
_cell_length_a                    17.797982
_cell_length_b                    19.753328
_cell_length_c                    9.138786
_cell_angle_alpha                 90.860811
_cell_angle_beta                  102.877489
_cell_angle_gamma                 89.928782
_cell_volume                      3131.74788249

loop_
_atom_site_label
_atom_site_type_symbol
_atom_site_description
_atom_site_fract_x
_atom_site_fract_y
_atom_site_fract_z
_atom_type_partial_charge
P1    P     P_3+3 0.834140 0.419320 0.003900 0.501536
P2    P     P_3+3 0.834140 0.580680 0.503900 0.508010
P3    P     P_3+3 0.334140 0.919320 0.003900 0.457511
P4    P     P_3+3 0.334140 0.080680 0.503900 0.476511
O1    O     O_2   0.841960 0.394640 0.833410 -0.344870
O2    O     O_2   0.841960 0.605360 0.333410 -0.352004
O3    O     O_2   0.341960 0.894640 0.833410 -0.335312
O4    O     O_2   0.341960 0.105360 0.333410 -0.398893
O5    O     O_3   0.907950 0.463080 0.102990 -0.406318
O6    O     O_3   0.907950 0.536920 0.602990 -0.394934
O7    O     O_3   0.407950 0.963080 0.102990 -0.449318
O8    O     O_3   0.407950 0.036920 0.602990 -0.382706
O9    O     O_3   0.972780 0.329600 0.629720 -0.388438
O10   O     O_3   0.972780 0.670400 0.129720 -0.417702
O11   O     O_3   0.472780 0.829600 0.629720 -0.394260
O12   O     O_3   0.472780 0.170400 0.129720 -0.411849
O13   O     O_2   0.839713 0.286608 0.649128 -0.348516
O14   O     O_2   0.843038 0.723798 0.157932 -0.362253
O15   O     O_2   0.345310 0.777666 0.652589 -0.353026
O16   O     O_2   0.347667 0.228216 0.162320 -0.370486
O17   O     O_3   0.750220 0.470524 0.967414 -0.562044
O18   O     O_3   0.751681 0.528025 0.465121 -0.563616
O19   O     O_3   0.253868 0.974984 0.979616 -0.572472
O20   O     O_3   0.250167 0.030823 0.456437 -0.557745
O21   O     O_3   0.935120 0.194360 0.598721 -0.536797
O22   O     O_3   0.943714 0.803531 0.085885 -0.595196
O23   O     O_3   0.443175 0.693554 0.580658 -0.540430
O24   O     O_3   0.446966 0.307097 0.080702 -0.603091
C1    C     C_3   0.044236 0.121785 0.571755 -0.493897
C2    C     C_3   0.066710 0.861522 0.124051 -0.493538
C3    C     C_3   0.559327 0.624727 0.588147 -0.463410
C4    C     C_3   0.573043 0.362659 0.111821 -0.502812
H1    H     H_    0.592932 0.614423 0.700767 0.090790
H2    H     H_    0.633262 0.348872 0.160397 0.090255
H3    H     H_    0.056832 0.091554 0.676185 0.173333
H4    H     H_    0.127032 0.851934 0.179568 0.100771
P5    P     P_3+3 0.165830 0.418670 0.685610 0.555074
P6    P     P_3+3 0.165830 0.581330 0.185610 0.450900
P7    P     P_3+3 0.665830 0.918670 0.685610 0.526994
P8    P     P_3+3 0.665830 0.081330 0.185610 0.427470
P9    P     P_3+3 0.105995 0.276954 0.133583 0.425718
P10   P     P_3+3 0.108432 0.722802 0.635336 0.380185
P11   P     P_3+3 0.604991 0.773466 0.132818 0.438705
P12   P     P_3+3 0.605734 0.224857 0.636176 0.377937
O25   O     O_2   0.157990 0.394030 0.856030 -0.340816
O26   O     O_2   0.157990 0.605970 0.356030 -0.384338
O27   O     O_2   0.657990 0.894030 0.856030 -0.346658
O28   O     O_2   0.657990 0.105970 0.356030 -0.400958
O29   O     O_3   0.027110 0.329490 0.059550 -0.399340
O30   O     O_3   0.027110 0.670510 0.559550 -0.395684
O31   O     O_3   0.527110 0.829490 0.059550 -0.385562
O32   O     O_3   0.527110 0.170510 0.559550 -0.394954
O33   O     O_2   0.162713 0.284878 0.029634 -0.364055
O34   O     O_2   0.164854 0.715111 0.530361 -0.440934
O35   O     O_2   0.661449 0.778037 0.026994 -0.367961
O36   O     O_2   0.660319 0.220378 0.527516 -0.441992
O37   O     O_3   0.252242 0.462639 0.729394 -0.550613
O38   O     O_3   0.253397 0.539861 0.220320 -0.620068
O39   O     O_3   0.751620 0.964691 0.726859 -0.560620
O40   O     O_3   0.753737 0.039361 0.217281 -0.630004
O41   O     O_3   0.068844 0.196974 0.081301 -0.598019
O42   O     O_3   0.077481 0.806514 0.604854 -0.543689
O43   O     O_3   0.568118 0.691660 0.093150 -0.604131
O44   O     O_3   0.569740 0.306444 0.602781 -0.546438
C5    C     C_3   0.991475 0.193012 0.093392 0.339982
C6    C     C_3   0.000436 0.811272 0.618316 0.395299
C7    C     C_3   0.488954 0.689884 0.093734 0.309899
C8    C     C_3   0.491987 0.305865 0.610278 0.408894
H5    H     H_    0.954807 0.230589 0.020934 0.185116
H6    H     H_    0.963544 0.778732 0.530086 0.093458
H7    H     H_    0.456363 0.723331 0.004999 0.167596
H8    H     H_    0.458690 0.270947 0.522579 0.112688
C9    C     C_3   0.960733 0.123439 0.034773 -0.455640
C10   C     C_3   0.971319 0.884055 0.585913 -0.507610
C11   C     C_3   0.457569 0.616950 0.059081 -0.379106
C12   C     C_3   0.457910 0.375581 0.571580 -0.530097
H9    H     H_    0.394379 0.619131 0.017686 0.128853
H10   H     H_    0.468761 0.390434 0.462825 0.186948
H11   H     H_    0.957412 0.122326 0.912468 0.236238
H12   H     H_    0.978077 0.896201 0.472115 0.194777
C13   C     C_3   0.243668 0.470592 0.208288 0.372729
C14   C     C_3   0.239760 0.531763 0.723243 0.366623
C15   C     C_3   0.744476 0.969984 0.222208 0.352260
C16   C     C_3   0.736914 0.033681 0.719088 0.301523
H13   H     H_    0.204820 0.454581 0.101148 0.133979
H14   H     H_    0.194259 0.547217 0.624718 0.118238
H15   H     H_    0.701325 0.950198 0.123590 0.117216
H16   H     H_    0.697423 0.047877 0.611799 0.122718
C17   C     C_3   0.325009 0.442792 0.212046 -0.450447
C18   C     C_3   0.314715 0.562980 0.709843 -0.544232
C19   C     C_3   0.824843 0.939566 0.221986 -0.454971
C20   C     C_3   0.813791 0.070154 0.733028 -0.559775
H17   H     H_    0.366822 0.468671 0.304639 0.190478
H18   H     H_    0.362201 0.540254 0.794331 0.182194
H19   H     H_    0.867429 0.965522 0.312919 0.192115
H20   H     H_    0.854262 0.049537 0.831956 0.199654
Ba1   Ba    Ba6+2 0.000000 0.447380 0.844850 1.529540
Ba2   Ba    Ba6+2 1.000000 0.552620 0.344850 1.532415
Ba3   Ba    Ba6+2 0.500000 0.947380 0.844850 1.502758
Ba4   Ba    Ba6+2 0.500000 0.052620 0.344850 1.529163
C21   C     C_3   0.756770 0.537442 0.918180 0.555006
C22   C     C_3   0.759940 0.458967 0.424508 0.502910
C23   C     C_3   0.261696 0.039430 0.918885 0.483767
C24   C     C_3   0.254553 0.962245 0.410491 0.409262
C25   C     C_3   0.690606 0.580963 0.946407 -0.689628
C26   C     C_3   0.694861 0.417067 0.466074 -0.628870
C27   C     C_3   0.196418 0.087356 0.938852 -0.624128
C28   C     C_3   0.197456 0.919813 0.477459 -0.527369
H21   H     H_    0.636138 0.552235 0.909082 0.238344
H22   H     H_    0.644260 0.449749 0.467815 0.266046
H23   H     H_    0.141710 0.058538 0.924141 0.266593
H24   H     H_    0.154118 0.954442 0.507157 0.289516
H25   H     H_    0.688603 0.628063 0.879836 0.143183
H26   H     H_    0.676451 0.375970 0.383298 0.129338
H27   H     H_    0.186770 0.126849 0.851289 0.114879
H28   H     H_    0.164741 0.882882 0.397448 0.145750
O45   O     O_3   0.092100 0.536880 0.086720 -0.404237
O46   O     O_3   0.092100 0.463120 0.586720 -0.407055
O47   O     O_3   0.592100 0.036880 0.086720 -0.397880
O48   O     O_3   0.592100 0.963120 0.586720 -0.423575
P13   P     P_3+3 0.898072 0.724899 0.048794 0.378531
P14   P     P_3+3 0.897642 0.275426 0.548398 0.415334
P15   P     P_3+3 0.400446 0.227644 0.049184 0.373293
P16   P     P_3+3 0.400335 0.773928 0.544105 0.413889
C29   C     C_3   0.015369 0.193759 0.603691 0.399742
C30   C     C_3   0.024810 0.794322 0.120945 0.345342
C31   C     C_3   0.523996 0.696723 0.591139 0.389880
C32   C     C_3   0.527468 0.297201 0.116632 0.358386
H29   H     H_    0.029573 0.227573 0.518238 0.057271
H30   H     H_    0.043009 0.761144 0.036958 0.096912
H31   H     H_    0.536113 0.725284 0.496470 0.068203
H32   H     H_    0.543943 0.262111 0.034658 0.102403
C33   C     C_R   0.135678 0.678878 0.937353 -0.298383
C34   C     C_R   0.136244 0.321057 0.443505 -0.303148
C35   C     C_R   0.634351 0.180898 0.940251 -0.296065
C36   C     C_R   0.637202 0.820463 0.437205 -0.335228
C37   C     C_R   0.856245 0.326937 0.248578 -0.512645
C38   C     C_R   0.853499 0.672552 0.750046 -0.500035
C39   C     C_R   0.355071 0.827625 0.247517 -0.519917
C40   C     C_R   0.351217 0.171556 0.751616 -0.508753
C41   C     C_R   0.786947 0.224777 0.290525 -0.069933
C42   C     C_R   0.790622 0.779100 0.789284 -0.084914
C43   C     C_R   0.285507 0.725849 0.287952 -0.060187
C44   C     C_R   0.289034 0.278041 0.791188 -0.093526
C45   C     C_R   0.842014 0.276661 0.345654 0.155375
C46   C     C_R   0.841427 0.724689 0.846475 0.198534
C47   C     C_R   0.339673 0.778329 0.345071 0.167719
C48   C     C_R   0.339850 0.223975 0.848756 0.203500
C49   C     C_R   0.813724 0.333071 0.100768 0.241320
C50   C     C_R   0.813436 0.667203 0.600631 0.244854
C51   C     C_R   0.313734 0.832876 0.098860 0.250015
C52   C     C_R   0.311587 0.166392 0.601286 0.253910
C53   C     C_R   0.755834 0.278542 0.046260 -0.057189
C54   C     C_R   0.757750 0.722645 0.544184 -0.119575
C55   C     C_R   0.255618 0.778385 0.043942 -0.056735
C56   C     C_R   0.255120 0.221241 0.545300 -0.104876
C57   C     C_R   0.239773 0.724337 0.140990 -0.086250
C58   C     C_R   0.241747 0.277076 0.643715 -0.103365
C59   C     C_R   0.740865 0.223689 0.142852 -0.089492
C60   C     C_R   0.743522 0.778547 0.641296 -0.064628
C61   C     C_R   0.180350 0.669897 0.086450 0.235348
C62   C     C_R   0.182428 0.330100 0.589687 0.348753
C63   C     C_R   0.680377 0.170322 0.088023 0.224573
C64   C     C_R   0.682539 0.830725 0.586408 0.326290
C65   C     C_R   0.159831 0.723157 0.838732 0.203088
C66   C     C_R   0.155241 0.273276 0.341251 0.277191
C67   C     C_R   0.657744 0.225677 0.841102 0.183058
C68   C     C_R   0.657156 0.772223 0.339093 0.363265
C69   C     C_R   0.218284 0.771692 0.892672 -0.264295
C70   C     C_R   0.213042 0.223740 0.394474 -0.154971
C71   C     C_R   0.716409 0.274019 0.895848 -0.245833
C72   C     C_R   0.715419 0.723751 0.394348 -0.180673
H33   H     H_    0.731417 0.309390 0.821429 0.175904
H34   H     H_    0.727093 0.684641 0.322530 0.158518
H35   H     H_    0.236140 0.803811 0.815464 0.178507
H36   H     H_    0.225826 0.186627 0.317999 0.162400
H37   H     H_    0.900764 0.363561 0.289938 0.148879
H38   H     H_    0.896981 0.635399 0.792450 0.153137
H39   H     H_    0.402048 0.862360 0.288216 0.153150
H40   H     H_    0.395799 0.135235 0.792590 0.153620
N1    N     N_3   0.057062 0.218669 0.750402 -0.110352
H41   H     H_    0.057628 0.180223 0.826893 0.157785
H42   H     H_    0.114266 0.228068 0.746356 0.085802
N2    N     N_3   0.049339 0.764096 0.268623 -0.110602
H43   H     H_    0.036572 0.797959 0.347196 0.133695
H44   H     H_    0.108707 0.756139 0.289635 0.132615
N3    N     N_3   0.562701 0.733115 0.728158 -0.135677
H45   H     H_    0.543944 0.714470 0.819416 0.190306
H46   H     H_    0.622326 0.726814 0.746635 0.077106
N4    N     N_3   0.551240 0.268442 0.265669 -0.113744
H47   H     H_    0.546035 0.305721 0.343873 0.133437
H48   H     H_    0.609133 0.255012 0.281035 0.135466
C73   C     C_2   0.332850 0.368863 0.240989 0.578153
H49   H     H_    0.389100 0.346527 0.268610 0.079498
O49   O     O_2   0.277266 0.333512 0.241823 -0.577297
C74   C     C_2   0.313600 0.637638 0.736741 0.465750
H50   H     H_    0.260551 0.664753 0.712862 0.073583
O50   O     O_2   0.372709 0.668293 0.786738 -0.573981
C75   C     C_2   0.831189 0.865742 0.254477 0.659990
H51   H     H_    0.886613 0.842292 0.293526 0.037741
O51   O     O_2   0.773997 0.831054 0.240296 -0.579680
C76   C     C_2   0.801334 0.144350 0.748405 0.553146
H52   H     H_    0.745680 0.163687 0.705901 0.044400
O52   O     O_2   0.852336 0.183290 0.804901 -0.551288
N5    N     N_3   0.345407 0.457549 0.069534 -0.197830
H53   H     H_    0.400666 0.439987 0.070774 0.146102
H54   H     H_    0.348581 0.509780 0.059685 0.153816
N6    N     N_3   0.324614 0.546920 0.559737 -0.151361
H55   H     H_    0.363013 0.580738 0.534033 0.140952
H56   H     H_    0.352508 0.500482 0.563129 0.181833
N7    N     N_3   0.846044 0.949903 0.078492 -0.220021
H57   H     H_    0.892040 0.983406 0.091423 0.143740
H58   H     H_    0.800688 0.969899 0.999794 0.168930
N8    N     N_3   0.846115 0.058305 0.602879 -0.184754
H59   H     H_    0.903682 0.072065 0.638815 0.155525
H60   H     H_    0.847871 0.006771 0.581646 0.201191
C77   C     C_2   0.745896 0.529259 0.760080 0.417998
H61   H     H_    0.691711 0.537260 0.682027 0.042755
O53   O     O_2   0.798337 0.501771 0.721824 -0.553743
C78   C     C_2   0.749140 0.460526 0.265107 0.529062
H62   H     H_    0.710805 0.428892 0.186858 0.012642
O54   O     O_2   0.791187 0.499034 0.222351 -0.548018
C79   C     C_2   0.250659 0.027414 0.759959 0.474294
H63   H     H_    0.196140 0.035523 0.683386 0.036289
O55   O     O_2   0.301846 0.998979 0.718839 -0.543319
C80   C     C_2   0.222586 0.959182 0.248494 0.682443
H64   H     H_    0.227725 0.913549 0.187681 -0.092478
O56   O     O_2   0.181758 0.004238 0.187243 -0.552074
N9    N     N_3   0.830696 0.572617 0.976728 -0.207951
H65   H     H_    0.876919 0.551987 0.938311 0.148616
H66   H     H_    0.845893 0.575953 0.092114 0.248387
N10   N     N_3   0.835688 0.427017 0.480537 -0.208518
H67   H     H_    0.879668 0.447513 0.435797 0.136808
H68   H     H_    0.853911 0.424462 0.595572 0.261386
N11   N     N_3   0.335948 0.072894 0.979861 -0.207111
H69   H     H_    0.381076 0.051937 0.938412 0.155866
H70   H     H_    0.349559 0.069691 0.095844 0.219128
N12   N     N_3   0.331924 0.932804 0.441317 -0.238406
H71   H     H_    0.368638 0.959947 0.388852 0.113275
H72   H     H_    0.355907 0.927309 0.555242 0.245417
N13   N     N_3   0.701809 0.599891 0.103350 -0.111818
H73   H     H_    0.651535 0.590017 0.140371 0.215767
H74   H     H_    0.710741 0.651955 0.107234 0.206231
N14   N     N_3   0.719743 0.385717 0.610508 -0.128119
H75   H     H_    0.684284 0.400995 0.681317 0.220993
H76   H     H_    0.711917 0.333872 0.592954 0.215326
N15   N     N_3   0.215691 0.121358 0.084311 -0.124563
H77   H     H_    0.168065 0.119432 0.132255 0.216815
H78   H     H_    0.225649 0.172228 0.066989 0.210203
N16   N     N_3   0.233572 0.881497 0.606395 -0.131997
H79   H     H_    0.203939 0.892059 0.690422 0.220194
H80   H     H_    0.224577 0.830317 0.578829 0.199554
N17   N     N_3   0.610993 0.621311 0.484723 -0.211714
H81   H     H_    0.618960 0.571407 0.452702 0.210956
H82   H     H_    0.664726 0.633863 0.549057 0.102104
N18   N     N_3   0.570910 0.383893 0.960474 -0.159229
H83   H     H_    0.606843 0.426153 0.966641 0.234608
H84   H     H_    0.598217 0.347169 0.908484 0.144200
N19   N     N_3   0.113525 0.128213 0.513418 -0.222021
H85   H     H_    0.126622 0.081857 0.468960 0.215896
H86   H     H_    0.158479 0.139316 0.604327 0.086337
N20   N     N_3   0.067849 0.884929 0.975429 -0.177109
H87   H     H_    0.102742 0.927878 0.987803 0.247469
H88   H     H_    0.099934 0.850175 0.927827 0.141071
N21   N     N_3   0.470953 0.575113 0.190777 -0.144037
H89   H     H_    0.430474 0.587406 0.253678 0.147409
H90   H     H_    0.526166 0.585763 0.251780 0.232156
N22   N     N_3   0.375093 0.374345 0.560937 -0.205042
H91   H     H_    0.351674 0.327516 0.520634 0.164965
H92   H     H_    0.360923 0.383238 0.664056 0.150958
N23   N     N_3   0.884593 0.108676 0.064023 -0.230241
H93   H     H_    0.850911 0.152190 0.056482 0.153274
H94   H     H_    0.888429 0.089013 0.169939 0.127258
N24   N     N_3   0.889705 0.887974 0.586409 -0.211285
H95   H     H_    0.862203 0.841802 0.552804 0.158810
H96   H     H_    0.880884 0.899585 0.693037 0.142799
N25   N     N_3   0.289968 0.665700 0.368120 -0.138201
H97   H     H_    0.342661 0.644935 0.360744 0.120141
H98   H     H_    0.287478 0.677695 0.477153 0.197884
N26   N     N_3   0.291380 0.337866 0.878799 -0.149740
H99   H     H_    0.346318 0.358522 0.895304 0.131949
H100  H     H_    0.280374 0.324475 0.980550 0.225006
N27   N     N_3   0.781462 0.169628 0.383618 -0.133866
H101  H     H_    0.829560 0.139854 0.390333 0.134833
H102  H     H_    0.779622 0.187627 0.488949 0.203378
N28   N     N_3   0.792417 0.838340 0.878487 -0.154205
H103  H     H_    0.847741 0.858427 0.897002 0.137656
H104  H     H_    0.780441 0.824611 0.979642 0.226454
N29   N     N_3   0.062110 0.646932 0.882612 -0.209653
H105  H     H_    0.038212 0.627732 0.965631 0.187716
H106  H     H_    0.063760 0.610153 0.800745 0.196402
N30   N     N_3   0.071220 0.364728 0.398316 -0.170652
H107  H     H_    0.066648 0.384122 0.291879 0.131302
H108  H     H_    0.021366 0.339346 0.404503 0.098830
N31   N     N_3   0.558528 0.152502 0.890510 -0.215152
H109  H     H_    0.539186 0.127318 0.971822 0.198383
H110  H     H_    0.554036 0.120468 0.798053 0.197581
N32   N     N_3   0.568831 0.858602 0.378632 -0.210551
H111  H     H_    0.535739 0.865244 0.457023 0.162023
H112  H     H_    0.580513 0.904358 0.334216 0.129640
C81   C     C_2   0.986239 0.082927 0.460170 0.573748
H113  H     H_    0.938482 0.107569 0.394329 0.011157
O57   O     O_2   0.992561 0.022369 0.444166 -0.627688
C82   C     C_2   0.029878 0.912357 0.208524 0.739025
H114  H     H_    0.971234 0.907638 0.214748 0.007839
O58   O     O_2   0.065983 0.959046 0.275760 -0.592818
C83   C     C_2   0.502933 0.567872 0.564875 0.673288
H115  H     H_    0.472657 0.559037 0.651537 -0.005269
O59   O     O_2   0.497018 0.526448 0.463061 -0.664496
C84   C     C_2   0.547403 0.419755 0.199097 0.713901
H116  H     H_    0.500318 0.413639 0.253755 -0.004362
O60   O     O_2   0.580683 0.473999 0.210645 -0.617739
N33   N     N_3   0.986320 0.202608 0.248786 -0.225183
H117  H     H_    0.930101 0.194396 0.256683 0.052277
H118  H     H_    0.991641 0.253895 0.271333 0.074063
N34   N     N_3   0.992663 0.789842 0.766633 -0.211949
H119  H     H_    0.978263 0.738846 0.759649 0.098655
H120  H     H_    0.947599 0.814252 0.800354 0.087367
N35   N     N_3   0.476379 0.711229 0.238981 -0.216739
H121  H     H_    0.419926 0.699102 0.238780 0.069729
H122  H     H_    0.479478 0.763598 0.248293 0.109091
N36   N     N_3   0.484894 0.286179 0.760002 -0.210990
H123  H     H_    0.471129 0.235276 0.754956 0.094878
H124  H     H_    0.440983 0.311760 0.794964 0.086986
C85   C     C_2   0.016117 0.069722 0.093634 0.643899
H125  H     H_    0.050247 0.073448 0.207168 0.120847
O61   O     O_2   0.024916 0.023229 0.010648 -0.646366
C86   C     C_2   0.014539 0.937440 0.690206 0.753035
H126  H     H_    0.984263 0.970459 0.753197 0.025566
O62   O     O_2   0.083172 0.946306 0.701506 -0.637062
C87   C     C_2   0.493623 0.583850 0.945118 0.668464
H127  H     H_    0.508186 0.613548 0.858604 0.017714
O63   O     O_2   0.507643 0.523710 0.950315 -0.642893
C88   C     C_2   0.494570 0.427567 0.682658 0.694183
H128  H     H_    0.461874 0.449069 0.757702 0.040444
O64   O     O_2   0.561104 0.444941 0.691151 -0.624669
C89   C     C_2   0.208978 0.450202 0.334491 0.535523
H129  H     H_    0.150274 0.463699 0.333958 0.027735
O65   O     O_2   0.247859 0.424930 0.444430 -0.639045
C90   C     C_2   0.218083 0.552555 0.862677 0.380076
H130  H     H_    0.255198 0.583417 0.947739 -0.026830
O66   O     O_2   0.157455 0.531705 0.881924 -0.540042
C91   C     C_2   0.718163 0.956079 0.361666 0.466079
H131  H     H_    0.666722 0.979386 0.381960 0.058522
O67   O     O_2   0.756191 0.921661 0.457638 -0.645386
C92   C     C_2   0.703819 0.052759 0.848854 0.401591
H132  H     H_    0.739173 0.077564 0.945650 -0.007879
O68   O     O_2   0.638885 0.035329 0.850291 -0.522061

loop_
_geom_bond_atom_site_label_1
_geom_bond_atom_site_label_2
_geom_bond_distance
_ccdc_geom_bond_type
N36   H124  1.036188 S    
C42   C46   1.431711 A    
C79   H63   1.075734 S    
P9    O41   1.732219 S    
C89   H129  1.076950 S    
O24   P15   1.764946 S    
P11   O43   1.747096 S    
C70   H36   1.064298 S    
C81   H113  1.049415 S    
P12   O44   1.739517 S    
C24   N12   1.464202 S    
C71   H33   1.057249 S    
O3    Ba3   2.980101 S    
C11   N21   1.445632 S    
N16   H80   1.042072 S    
P7    O48   1.673932 S    
C43   N25   1.398109 S    
N14   H75   1.041064 S    
N24   H95   1.044715 S    
O22   C30   1.419133 S    
C49   C53   1.492572 A    
O16   P15   1.544045 D    
C8    N36   1.460301 S    
C23   C79   1.437686 S    
N12   H71   1.045269 S    
C56   C58   1.465246 A    
O19   C23   1.415686 S    
C52   C56   1.493462 A    
C3    C83   1.488102 S    
P2    O18   1.766969 S    
C31   N3    1.465934 S    
Ba2   O46   3.032087 S    
C51   C55   1.495153 A    
P4    O8    1.668357 S    
C40   C52   1.399770 A    
C41   C45   1.425359 A    
O26   Ba2   2.983937 S    
C75   H51   1.077913 S    
O10   P13   1.748121 S    
C22   N10   1.475787 S    
C25   N13   1.446818 S    
N1    H42   1.043952 S    
C65   C69   1.415691 A    
O28   Ba4   2.983937 S    
P16   C47   1.900239 S    
N12   H72   1.040739 S    
C76   H52   1.053546 S    
O39   C16   1.387261 S    
C9    N23   1.468905 S    
C67   C71   1.416921 A    
P11   C68   1.907200 S    
C10   N24   1.455533 S    
C28   N16   1.436129 S    
N34   H119  1.037261 S    
C2    N20   1.445733 S    
C33   N29   1.436495 S    
C15   C91   1.481869 S    
N9    H65   1.043895 S    
C55   C69   1.398354 A    
C8    H8    1.114433 S    
C17   C73   1.488845 S    
N10   H68   1.030775 S    
N22   H92   1.040864 S    
N32   H111  1.030721 S    
P5    O25   1.673850 D    
C60   C64   1.504019 A    
P7    O27   1.673850 D    
C36   C64   1.432871 A    
P8    O28   1.660085 D    
C35   C63   1.432965 A    
C16   H16   1.111126 S    
C34   N30   1.431523 S    
C74   H50   1.066001 S    
N19   H86   1.037850 S    
P8    Ba4   3.618542 S    
C15   C19   1.551163 S    
C1    H3    1.113141 S    
P4    Ba4   3.608098 S    
C2    H4    1.097958 S    
N30   H108  1.032579 S    
O17   C21   1.415968 S    
N28   H104  1.033960 S    
C6    H6    1.115305 S    
C4    C84   1.500113 S    
C40   H40   1.076471 S    
C32   N4    1.456921 S    
O9    Ba1   2.992259 S    
C31   H31   1.100656 S    
P3    O7    1.655904 S    
Ba3   O47   2.995517 S    
O41   C5    1.408138 S    
O13   P14   1.541288 D    
P8    O47   1.661353 S    
C73   H49   1.072508 S    
C23   C27   1.538147 S    
O20   C24   1.419413 S    
P7    C64   1.999936 S    
P5    O37   1.731574 S    
N23   H93   1.041640 S    
P5    C62   1.996174 S    
C9    C85   1.471446 S    
P2    C50   1.984084 S    
N35   H122  1.037207 S    
N4    H47   1.036890 S    
P8    O40   1.738115 S    
C1    C29   1.556591 S    
C3    C31   1.556596 S    
P6    Ba2   3.618542 S    
Ba1   Ba2   5.048399 S    
N31   H110  1.036675 S    
C1    N19   1.454863 S    
O44   C8    1.400793 S    
C25   H25   1.115481 S    
C12   H10   1.098021 S    
N17   H81   1.042569 S    
C5    N33   1.452946 S    
N33   H118  1.031033 S    
C6    C10   1.538113 S    
C20   H20   1.105496 S    
O27   Ba3   2.982554 S    
N2    H43   1.035664 S    
N13   H73   1.044265 S    
C56   C70   1.415989 A    
C85   O61   1.214411 D    
C35   N31   1.436378 S    
O8    Ba3   3.032165 S    
P6    O45   1.661353 S    
C92   O68   1.209226 D    
C41   C59   1.414295 A    
N18   H84   1.039171 S    
O22   P13   1.746973 S    
P10   O42   1.748884 S    
P10   C65   1.879814 S    
C22   C78   1.427054 S    
P12   O32   1.773531 S    
C82   O58   1.203946 D    
N25   H97   1.038607 S    
Ba1   O45   2.995517 S    
C78   H62   1.066540 S    
C72   H34   1.056376 S    
O10   Ba2   3.036920 S    
N5    H54   1.039685 S    
P4    C52   1.982947 S    
C7    N35   1.450916 S    
O30   Ba2   2.991503 S    
O11   P16   1.735512 S    
O42   C6    1.406697 S    
C39   H39   1.078569 S    
N26   H99   1.038611 S    
C19   N7    1.460320 S    
C88   H128  1.076047 S    
O12   Ba4   3.036920 S    
C77   H61   1.077139 S    
O29   Ba1   3.036130 S    
O32   Ba4   2.991503 S    
O6    Ba1   3.032165 S    
C29   H29   1.106352 S    
C11   H9    1.104776 S    
P7    Ba3   3.610529 S    
P9    C66   1.907304 S    
N29   H105  1.026277 S    
C9    H11   1.105941 S    
Ba4   O47   3.169979 S    
P1    C49   2.002149 S    
N21   H90   1.036108 S    
P9    O33   1.542145 D    
P10   O30   1.782393 S    
C18   N6    1.451901 S    
P11   O35   1.545684 D    
O1    Ba1   2.980101 S    
C66   C70   1.428691 A    
C12   N22   1.455600 S    
C7    C11   1.548333 S    
C20   C76   1.491260 S    
C25   H21   1.107377 S    
C23   N11   1.468618 S    
C27   H23   1.109487 S    
C26   N14   1.444015 S    
C86   H126  1.083177 S    
O23   P16   1.764374 S    
C79   O55   1.196523 D    
N20   H87   1.041806 S    
C6    N34   1.461674 S    
C8    C12   1.518654 S    
C4    C32   1.533610 S    
C91   O67   1.200722 D    
O4    Ba4   2.978754 S    
N8    H60   1.035166 S    
C30   N2    1.459255 S    
C38   C46   1.392835 A    
C39   C51   1.398645 A    
N14   H76   1.038948 S    
N24   H96   1.043164 S    
C17   N5    1.461305 S    
C17   H17   1.112860 S    
P6    O26   1.660085 D    
C19   H19   1.111465 S    
P3    Ba3   3.615926 S    
C18   C74   1.492280 S    
P15   C48   1.907641 S    
C80   H64   1.066380 S    
C1    C81   1.484525 S    
N27   H101  1.029028 S    
C35   C67   1.403535 A    
O37   C14   1.383063 S    
C16   C20   1.526256 S    
C13   H13   1.107375 S    
C38   H38   1.077558 S    
C15   H15   1.111975 S    
C55   C57   1.465141 A    
N1    H41   1.038410 S    
O5    Ba2   2.995581 S    
C76   O52   1.209586 D    
P1    O1    1.660812 D    
O2    Ba2   2.978754 S    
C37   C45   1.401689 A    
C90   O66   1.205317 D    
P3    O3    1.660812 D    
P4    O20   1.758852 S    
O40   C15   1.383108 S    
C30   H30   1.103963 S    
N34   H120  1.037066 S    
P9    O29   1.760674 S    
O21   C29   1.418886 S    
P6    O38   1.727669 S    
O23   C31   1.421571 S    
P6    C61   2.025301 S    
N6    H55   1.022691 S    
N11   H69   1.044041 S    
C34   C66   1.411346 A    
C20   N8    1.448007 S    
P4    O4    1.674599 D    
C13   C17   1.541113 S    
C81   O57   1.211095 D    
N36   H123  1.033143 S    
C10   H12   1.103146 S    
N32   H112  1.036341 S    
P5    Ba1   3.610529 S    
C89   O65   1.200766 D    
C10   C86   1.502397 S    
C18   H18   1.109327 S    
C84   O60   1.216715 D    
N15   H78   1.041116 S    
C3    N17   1.459040 S    
C29   N1    1.458769 S    
C83   H115  1.068967 S    
P1    O5    1.655904 S    
C74   O50   1.208796 D    
O38   C13   1.379083 S    
C42   C60   1.423428 A    
N31   H109  1.021622 S    
N16   H79   1.042501 S    
C14   H14   1.114610 S    
C28   H24   1.105857 S    
P12   C67   1.894945 S    
C87   H127  1.068682 S    
C33   C65   1.399792 A    
O31   Ba3   3.036130 S    
P12   O36   1.537816 D    
N7    H57   1.038265 S    
P7    O39   1.742542 S    
C4    N18   1.443744 S    
C69   H35   1.056072 S    
C90   H130  1.081760 S    
C12   C88   1.478455 S    
C57   C61   1.508355 A    
C24   C28   1.550648 S    
C84   H116  1.074728 S    
N4    H48   1.042946 S    
C14   C18   1.500680 S    
C28   H28   1.095953 S    
N3    H45   1.037434 S    
N9    H66   1.029698 S    
P10   O34   1.541596 D    
P11   O31   1.788620 S    
N33   H117  1.032281 S    
C16   C92   1.480769 S    
C5    H5    1.111892 S    
N10   H67   1.045085 S    
N2    H44   1.043127 S    
C7    H7    1.111778 S    
C85   H125  1.080662 S    
O14   P13   1.546227 D    
N35   H121  1.032805 S    
C68   C72   1.423276 A    
N22   H91   1.042771 S    
C75   O51   1.209400 D    
C21   N9    1.475646 S    
O24   C32   1.410809 S    
C4    H2    1.100355 S    
C91   H131  1.075477 S    
C2    C30   1.520155 S    
P1    O17   1.774673 S    
N27   H102  1.028503 S    
P3    O19   1.778049 S    
C44   C48   1.427496 A    
C40   C48   1.397528 A    
C78   O54   1.196658 D    
N5    H53   1.040219 S    
C38   C50   1.394979 A    
C43   C47   1.427743 A    
C39   C47   1.397783 A    
C26   H26   1.100165 S    
C27   N15   1.451326 S    
N30   H107  1.037006 S    
O12   P15   1.754069 S    
N26   H100  1.030401 S    
C14   C90   1.464338 S    
N28   H103  1.039382 S    
C88   O64   1.218740 D    
N21   H89   1.043272 S    
C5    C9    1.524499 S    
P14   C45   1.896694 S    
Ba1   O46   3.177321 S    
C41   N27   1.408972 S    
Ba3   O48   3.177321 S    
P5    O46   1.673932 S    
C73   O49   1.213097 D    
C13   C89   1.485125 S    
C3    H1    1.090890 S    
Ba4   O48   3.032087 S    
O21   P14   1.761649 S    
C19   C75   1.491693 S    
N11   H70   1.036192 S    
C37   C49   1.400394 A    
P2    O2    1.674599 D    
C32   H32   1.099764 S    
C36   N32   1.433306 S    
C43   C57   1.406706 A    
C21   C25   1.522668 S    
O43   C7    1.410656 S    
O15   P16   1.542021 D    
P8    C63   2.025766 S    
C86   O62   1.215415 D    
P1    Ba1   3.615926 S    
N17   H82   1.033103 S    
N8    H59   1.039002 S    
N20   H88   1.042788 S    
C36   C68   1.397671 A    
C34   C62   1.412792 A    
O7    Ba4   2.995581 S    
N13   H74   1.039708 S    
C53   C59   1.469188 A    
C54   C60   1.463266 A    
Ba3   Ba4   5.048399 S    
N18   H83   1.045416 S    
C53   C71   1.398700 A    
C54   C72   1.408593 A    
C44   N26   1.412836 S    
C87   O63   1.213034 D    
C27   H27   1.111575 S    
C42   N28   1.412356 S    
C2    C82   1.494882 S    
C82   H114  1.062174 S    
N7    H58   1.036277 S    
C80   O56   1.210586 D    
N25   H98   1.031285 S    
C59   C63   1.505941 A    
C44   C58   1.420813 A    
N19   H85   1.043259 S    
P2    O6    1.668357 S    
Ba2   O45   3.169979 S    
C26   H22   1.110291 S    
N23   H94   1.036439 S    
C11   C87   1.483349 S    
P13   C46   1.898406 S    
O11   Ba3   2.992259 S    
C33   C61   1.429769 A    
N15   H77   1.038303 S    
C24   C80   1.463243 S    
C77   O53   1.194434 D    
P3    C51   1.996831 S    
O18   C22   1.424372 S    
C83   O59   1.216577 D    
O25   Ba1   2.982554 S    
O9    P14   1.738544 S    
C92   H132  1.076180 S    
N29   H106  1.040118 S    
C22   C26   1.542352 S    
N3    H46   1.044307 S    
C58   C62   1.495299 A    
C21   C77   1.421121 S    
C37   H37   1.074140 S    
P2    Ba2   3.608098 S    
N6    H56   1.040068 S    
C50   C54   1.494712 A    
