data_mof_unit_23480.cif
_audit_creation_date              2012-10-26T21:32:59-0400
_audit_creation_method            fapswitch 2.2
_symmetry_space_group_name_H-M    P1
_symmetry_Int_Tables_number       1
_space_group_crystal_system       triclinic
_cell_length_a                    28.143097
_cell_length_b                    18.420604
_cell_length_c                    17.088212
_cell_angle_alpha                 90.214839
_cell_angle_beta                  60.463415
_cell_angle_gamma                 90.170896
_cell_volume                      7707.41457474

loop_
_atom_site_label
_atom_site_type_symbol
_atom_type_description
_atom_site_fract_x
_atom_site_fract_y
_atom_site_fract_z
_atom_type_partial_charge
C1    C     C_R   0.701148 0.268520 0.675940 0.893621
C2    C     C_R   0.971665 0.628543 0.443141 0.117888
C3    C     C_R   0.073767 0.899817 0.933782 0.909607
C4    C     C_R   0.574724 0.598760 0.932696 0.921288
C5    C     C_R   0.427443 0.398439 0.064615 0.912491
C6    C     C_R   0.426145 0.600114 0.066252 0.919140
C7    C     C_R   0.571320 0.397097 0.936379 0.910550
C8    C     C_R   0.557487 0.003383 0.479422 -0.086487
C9    C     C_R   0.469645 0.001722 0.444382 -0.083271
C10   C     C_R   0.040977 0.499145 0.523425 -0.085566
C11   C     C_R   0.960920 0.499314 0.469434 -0.085797
C12   C     C_R   0.525208 0.066151 0.496205 0.059079
C13   C     C_R   0.953756 0.368095 0.479787 0.127598
C14   C     C_R   0.498957 0.936943 0.434891 0.046554
C15   C     C_R   0.487572 0.067975 0.463428 0.062642
C16   C     C_R   0.548569 0.941614 0.438453 0.053941
C17   C     C_R   0.018420 0.565614 0.516220 0.061782
C18   C     C_R   0.979733 0.432330 0.484853 0.051477
C19   C     C_R   0.982968 0.565763 0.478693 0.059519
C20   C     C_R   0.022987 0.432344 0.505130 0.053071
C21   C     C_R   0.633343 0.941637 0.482175 0.051132
C22   C     C_R   0.396594 0.066762 0.435472 0.053915
C23   C     C_R   0.398256 0.934655 0.431003 0.045364
C24   C     C_R   0.029037 0.627928 0.554059 0.113839
C25   C     C_R   0.610236 0.064017 0.540422 0.051340
C26   C     C_R   0.106603 0.433978 0.552571 0.054751
C27   C     C_R   0.895661 0.565813 0.440088 0.046525
C28   C     C_R   0.894678 0.434336 0.441144 0.052127
C29   C     C_R   0.104916 0.565388 0.556929 0.049755
C30   C     C_R   0.670141 0.938494 0.516419 -0.101398
C31   C     C_R   0.343822 0.065270 0.442497 -0.115799
C32   C     C_R   0.344520 0.934961 0.440927 -0.121131
C33   C     C_R   0.657963 0.064488 0.549654 -0.122981
C34   C     C_R   0.156558 0.434991 0.555245 -0.113622
C35   C     C_R   0.591127 0.889733 0.399529 0.119399
C36   C     C_R   0.844087 0.565255 0.442178 -0.119985
C37   C     C_R   0.843768 0.435018 0.442055 -0.113014
C38   C     C_R   0.155962 0.565120 0.556577 -0.120204
C39   C     C_R   0.682364 0.000005 0.549022 -0.306370
C40   C     C_R   0.319971 0.999943 0.441976 -0.307543
C41   C     C_R   0.179090 0.500178 0.560400 -0.310892
C42   C     C_R   0.820666 0.500127 0.438889 -0.310766
C43   C     C_R   0.599778 0.002751 0.501720 0.062721
C44   C     C_R   0.421609 0.000899 0.436514 0.069700
C45   C     C_R   0.083989 0.499567 0.544802 0.067473
C46   C     C_R   0.470258 0.132797 0.441664 0.122949
C47   C     C_R   0.917347 0.499902 0.449504 0.070931
C48   C     C_R   0.080395 0.369667 0.550560 -0.250856
C49   C     C_R   0.927660 0.628566 0.425952 -0.280608
C50   C     C_R   0.921686 0.370124 0.439435 -0.247461
C51   C     C_R   0.072659 0.627782 0.572202 -0.278087
C52   C     C_R   0.631697 0.888658 0.424169 -0.253644
C53   C     C_R   0.426462 0.131219 0.424718 -0.239411
C54   C     C_R   0.429068 0.871035 0.417598 -0.264490
C55   C     C_R   0.572985 0.121797 0.568462 -0.277116
C56   C     C_R   0.796882 0.184391 0.827749 0.089305
C57   C     C_R   0.476395 0.870541 0.425633 0.132105
C58   C     C_R   0.768382 0.125020 0.818660 -0.148086
C59   C     C_R   0.791826 0.083541 0.739771 -0.120611
C60   C     C_R   0.844239 0.099972 0.670196 -0.100229
C61   C     C_R   0.873307 0.157902 0.679375 -0.150752
C62   C     C_R   0.849775 0.200208 0.757633 -0.177419
C63   C     C_R   0.184465 0.739292 0.193842 0.098366
C64   C     C_R   0.182568 0.676573 0.241780 -0.174135
C65   C     C_R   0.154126 0.677415 0.335782 -0.074325
C66   C     C_R   0.127284 0.740535 0.381987 -0.017889
C67   C     C_R   0.127109 0.801988 0.334692 -0.194831
C68   C     C_R   0.529843 0.122349 0.549241 0.117840
C69   C     C_R   0.155408 0.801414 0.240866 -0.201088
C70   C     C_R   0.279999 0.129304 0.074619 0.112572
C71   C     C_R   0.335105 0.117397 0.049185 -0.133204
C72   C     C_R   0.349963 0.057573 0.082508 -0.145524
C73   C     C_R   0.310143 0.008757 0.140578 -0.099615
C74   C     C_R   0.255376 0.019661 0.165391 -0.132044
C75   C     C_R   0.240290 0.079591 0.132540 -0.178722
C76   C     C_R   0.817987 0.748007 0.796971 0.090643
C77   C     C_R   0.823812 0.686349 0.744448 -0.176772
C78   C     C_R   0.852156 0.691076 0.650804 -0.061575
C79   C     C_R   0.718950 0.256984 0.955042 0.052492
C80   C     C_R   0.875204 0.757102 0.609009 -0.029206
C81   C     C_R   0.871297 0.817992 0.660776 -0.187187
C82   C     C_R   0.843006 0.813519 0.754563 -0.197626
C83   C     C_R   0.313623 0.760157 0.807818 0.098938
C84   C     C_R   0.343125 0.698984 0.758795 -0.195764
C85   C     C_R   0.371027 0.700268 0.664990 -0.184547
C86   C     C_R   0.370019 0.762660 0.619820 -0.056857
C87   C     C_R   0.342826 0.824877 0.667967 -0.085945
C88   C     C_R   0.314750 0.823848 0.761956 -0.162414
C89   C     C_R   0.684721 0.248865 0.198782 0.091751
C90   C     C_R   0.276713 0.734021 0.050863 0.049708
C91   C     C_R   0.679900 0.185668 0.247845 -0.169405
C92   C     C_R   0.649445 0.186592 0.341596 -0.068686
C93   C     C_R   0.623208 0.250246 0.386956 -0.030837
C94   C     C_R   0.626526 0.312737 0.338482 -0.184471
C95   C     C_R   0.656993 0.312115 0.244616 -0.196321
C96   C     C_R   0.715745 0.664575 0.160788 0.096612
C97   C     C_R   0.750819 0.613209 0.166580 -0.142846
C98   C     C_R   0.732347 0.569256 0.242683 -0.121160
C99   C     C_R   0.678575 0.575281 0.312921 -0.095306
C100  C     C_R   0.643051 0.624865 0.306870 -0.145789
C101  C     C_R   0.278995 0.264518 0.047272 0.044277
C102  C     C_R   0.661374 0.668938 0.230932 -0.191963
C103  C     C_R   0.219299 0.371051 0.926104 0.112197
C104  C     C_R   0.259072 0.420816 0.868436 -0.176942
C105  C     C_R   0.244118 0.480730 0.835362 -0.131925
C106  C     C_R   0.189423 0.491563 0.859677 -0.100202
C107  C     C_R   0.149539 0.442694 0.917475 -0.146106
C108  C     C_R   0.164262 0.382895 0.951036 -0.133483
C109  C     C_R   0.582044 0.297502 0.793257 0.133560
C110  C     C_R   0.576655 0.347842 0.736300 -0.008996
C111  C     C_R   0.533744 0.341514 0.717598 -0.182739
C112  C     C_R   0.300390 0.735962 0.323450 0.896155
C113  C     C_R   0.729319 0.722182 0.941291 0.049278
C114  C     C_R   0.495577 0.285571 0.756222 -0.142776
C115  C     C_R   0.500714 0.235151 0.812477 -0.143536
C116  C     C_R   0.543708 0.241104 0.831081 -0.188741
C117  C     C_R   0.418703 0.703422 0.203738 0.131233
C118  C     C_R   0.454785 0.762197 0.166056 -0.195911
C119  C     C_R   0.497603 0.772306 0.184366 -0.122767
C120  C     C_R   0.504775 0.723798 0.240306 -0.120300
C121  C     C_R   0.468861 0.665433 0.278721 -0.200541
C122  C     C_R   0.425978 0.655099 0.260582 -0.014587
C123  C     C_R   0.418039 0.298324 0.204124 0.130900
C124  C     C_R   0.221412 0.762962 0.950536 0.049352
C125  C     C_R   0.424199 0.347618 0.261726 -0.017805
C126  C     C_R   0.469860 0.343693 0.273589 -0.177743
C127  C     C_R   0.509940 0.291225 0.227557 -0.143578
C128  C     C_R   0.503748 0.241302 0.171501 -0.140133
C129  C     C_R   0.458044 0.244814 0.159713 -0.185598
C130  C     C_R   0.581019 0.702346 0.797490 0.132604
C131  C     C_R   0.543839 0.759500 0.838385 -0.181616
C132  C     C_R   0.500490 0.769026 0.821317 -0.131646
C133  C     C_R   0.493967 0.721670 0.763209 -0.114862
C134  C     C_R   0.530741 0.664604 0.722179 -0.169508
C135  C     C_R   0.775217 0.230764 0.054729 0.047197
C136  C     C_R   0.574029 0.654720 0.739309 -0.016058
C137  C     C_R   0.081589 0.801163 0.793009 0.134289
C138  C     C_R   0.077605 0.851954 0.735068 -0.010440
C139  C     C_R   0.034022 0.848724 0.717701 -0.180280
C140  C     C_R   0.993852 0.795385 0.758433 -0.150328
C141  C     C_R   0.997699 0.744333 0.815318 -0.144978
C142  C     C_R   0.041361 0.747151 0.832599 -0.185067
C143  C     C_R   0.918523 0.201712 0.206220 0.134150
C144  C     C_R   0.953300 0.262277 0.174351 -0.192921
C145  C     C_R   0.993525 0.272984 0.198700 -0.136880
C146  C     C_R   0.786713 0.748220 0.039343 0.049890
C147  C     C_R   0.999232 0.223457 0.255259 -0.130955
C148  C     C_R   0.964846 0.162984 0.287324 -0.191037
C149  C     C_R   0.924663 0.151971 0.262964 -0.009548
C150  C     C_R   0.917410 0.802629 0.210886 0.141479
C151  C     C_R   0.919829 0.856137 0.268000 -0.003536
C152  C     C_R   0.961826 0.855299 0.289270 -0.182766
C153  C     C_R   0.002060 0.801741 0.253127 -0.153031
C154  C     C_R   0.999817 0.748080 0.197011 -0.142563
C155  C     C_R   0.957739 0.748534 0.175798 -0.181066
C156  C     C_R   0.083390 0.202319 0.792378 0.133329
C157  C     C_R   0.220167 0.235874 0.953747 0.045030
C158  C     C_R   0.050913 0.265078 0.819809 -0.185744
C159  C     C_R   0.012127 0.276794 0.792604 -0.136557
C160  C     C_R   0.005462 0.225989 0.737823 -0.132745
C161  C     C_R   0.037523 0.163313 0.710222 -0.180454
C162  C     C_R   0.076375 0.151393 0.737208 -0.008926
C163  C     C_R   0.772557 0.226244 0.912998 0.021376
C164  C     C_R   0.218971 0.742470 0.095114 0.033097
C165  C     C_R   0.263883 0.192494 0.039270 0.019057
C166  C     C_R   0.784870 0.744434 0.896036 0.029485
C167  C     C_R   0.279143 0.754983 0.906369 0.030382
C168  C     C_R   0.299450 0.266406 0.323493 0.894980
C169  C     C_R   0.718910 0.249124 0.099726 0.029214
C170  C     C_R   0.735511 0.711134 0.079745 0.017279
C171  C     C_R   0.235276 0.307893 0.961730 0.020021
C172  C     C_R   0.801047 0.221485 0.960955 -0.235828
C173  C     C_R   0.192583 0.756388 0.044848 -0.250044
C174  C     C_R   0.234501 0.179396 0.993443 -0.247057
C175  C     C_R   0.811556 0.759742 0.945458 -0.245877
C176  C     C_R   0.305522 0.740561 0.956517 -0.250032
C177  C     C_R   0.692635 0.264272 0.049723 -0.246049
C178  C     C_R   0.705731 0.706798 0.033752 -0.235024
C179  C     C_R   0.699353 0.736643 0.676677 0.915250
C180  C     C_R   0.264596 0.321002 0.007655 -0.248081
C181  C     C_R   0.640499 0.321702 0.947653 -0.220370
C182  C     C_R   0.351897 0.668068 0.061846 -0.232894
C183  C     C_R   0.356277 0.326670 0.055054 -0.237431
C184  C     C_R   0.653935 0.657778 0.928423 -0.231676
C185  C     C_R   0.146759 0.829763 0.939230 -0.233369
C186  C     C_R   0.849088 0.163292 0.067791 -0.231989
C187  C     C_R   0.863220 0.816283 0.049430 -0.221090
C188  C     C_R   0.142708 0.174388 0.945825 -0.235028
C189  C     C_R   0.610962 0.338883 0.902954 -0.111530
C190  C     C_R   0.199410 0.763682 0.676532 0.894376
C191  C     C_R   0.384573 0.655559 0.102271 -0.109696
C192  C     C_R   0.386629 0.341919 0.098863 -0.107159
C193  C     C_R   0.617812 0.651476 0.894024 -0.109162
C194  C     C_R   0.114738 0.843612 0.898021 -0.108410
C195  C     C_R   0.883596 0.153667 0.104936 -0.110007
C196  C     C_R   0.890846 0.836855 0.096081 -0.117522
C197  C     C_R   0.112625 0.158839 0.901556 -0.109221
C198  C     C_R   0.624137 0.306517 0.821530 -0.080588
C199  C     C_R   0.374884 0.692651 0.179706 -0.076412
C200  C     C_R   0.374674 0.307743 0.178770 -0.083804
C201  C     C_R   0.800769 0.236900 0.323565 0.895435
C202  C     C_R   0.625468 0.691822 0.820024 -0.078622
C203  C     C_R   0.124542 0.807258 0.819985 -0.079525
C204  C     C_R   0.875237 0.192694 0.180571 -0.075893
C205  C     C_R   0.876688 0.806594 0.178944 -0.080451
C206  C     C_R   0.125316 0.192321 0.820868 -0.086046
C207  C     C_R   0.676844 0.279995 0.771780 -0.108670
C208  C     C_R   0.325799 0.728944 0.226191 -0.116502
C209  C     C_R   0.323603 0.275855 0.226943 -0.104189
C210  C     C_R   0.674162 0.729095 0.773835 -0.119886
C211  C     C_R   0.173376 0.770116 0.773930 -0.117834
C212  C     C_R   0.798899 0.768534 0.323860 0.871958
C213  C     C_R   0.826769 0.230488 0.226303 -0.116323
C214  C     C_R   0.824110 0.778840 0.227490 -0.102508
C215  C     C_R   0.176582 0.223709 0.773051 -0.105195
C216  C     C_R   0.709377 0.269355 0.812744 -0.217034
C217  C     C_R   0.296357 0.748911 0.181937 -0.203842
C218  C     C_R   0.292333 0.260013 0.184037 -0.185212
C219  C     C_R   0.704426 0.747134 0.817391 -0.201291
C220  C     C_R   0.202179 0.749018 0.818886 -0.201647
C221  C     C_R   0.797643 0.250613 0.181835 -0.201136
C222  C     C_R   0.793043 0.765254 0.184280 -0.222940
C223  C     C_R   0.200759 0.233182 0.676453 0.899770
C224  C     C_R   0.207613 0.239620 0.816276 -0.184376
C225  C     C_R   0.688698 0.280027 0.905299 0.079875
C226  C     C_R   0.308712 0.717936 0.098755 0.079891
C227  C     C_R   0.310086 0.282386 0.095507 0.070289
C228  C     C_R   0.695584 0.709974 0.895275 0.083140
C229  C     C_R   0.189598 0.779463 0.902466 0.079694
C230  C     C_R   0.807744 0.215879 0.101833 0.081647
C231  C     C_R   0.815435 0.773757 0.090799 0.081955
C232  C     C_R   0.189277 0.217989 0.905211 0.070046
C233  C     C_R   0.690824 0.129581 0.535890 0.900269
C234  C     C_R   0.049372 0.368243 0.508350 0.122875
C235  C     C_R   0.309162 0.870561 0.464226 0.892094
C236  C     C_R   0.308833 0.129333 0.464942 0.903176
C237  C     C_R   0.696661 0.872330 0.517919 0.899618
C238  C     C_R   0.190935 0.629441 0.535418 0.892378
C239  C     C_R   0.808853 0.370641 0.464663 0.892350
C240  C     C_R   0.809084 0.629454 0.464223 0.903357
C241  C     C_R   0.191291 0.370808 0.534549 0.907710
C242  C     C_R   0.072004 0.102142 0.935820 0.915735
C243  C     C_R   0.929435 0.896404 0.062914 0.912623
C244  C     C_R   0.925670 0.099355 0.067080 0.914173
H1    H     H_    0.714543 0.999108 0.566547 0.187689
H2    H     H_    0.417600 0.180823 0.400961 0.185551
H3    H     H_    0.538101 0.731546 0.254006 0.138291
H4    H     H_    0.474451 0.627957 0.322139 0.107871
H5    H     H_    0.398947 0.608990 0.289577 0.124008
H6    H     H_    0.394955 0.390983 0.294080 0.124298
H7    H     H_    0.474856 0.382503 0.316707 0.106653
H8    H     H_    0.546075 0.289716 0.234627 0.129127
H9    H     H_    0.534917 0.200792 0.135768 0.133699
H10   H     H_    0.454633 0.207293 0.113745 0.126501
H11   H     H_    0.548189 0.796236 0.884117 0.127687
H12   H     H_    0.471822 0.812981 0.853412 0.131555
H13   H     H_    0.417152 0.820254 0.400854 0.188333
H14   H     H_    0.460319 0.729044 0.750238 0.134402
H15   H     H_    0.525491 0.627712 0.677565 0.104163
H16   H     H_    0.601629 0.609461 0.708423 0.120841
H17   H     H_    0.107335 0.895264 0.705719 0.121783
H18   H     H_    0.030878 0.888377 0.673900 0.104836
H19   H     H_    0.959528 0.794000 0.746431 0.132980
H20   H     H_    0.966453 0.703143 0.846947 0.133217
H21   H     H_    0.043249 0.708211 0.878328 0.126347
H22   H     H_    0.949138 0.301232 0.130785 0.129294
H23   H     H_    0.020178 0.319809 0.173917 0.131831
H24   H     H_    0.575791 0.165533 0.608552 0.180485
H25   H     H_    0.030220 0.232017 0.274371 0.133731
H26   H     H_    0.969261 0.124691 0.331197 0.105220
H27   H     H_    0.898204 0.104946 0.288370 0.120607
H28   H     H_    0.890061 0.899578 0.293761 0.117433
H29   H     H_    0.963732 0.896969 0.332463 0.101745
H30   H     H_    0.035205 0.802230 0.268083 0.132757
H31   H     H_    0.031112 0.706694 0.168984 0.132688
H32   H     H_    0.957174 0.707638 0.130551 0.126243
H33   H     H_    0.055858 0.305040 0.861938 0.128226
H34   H     H_    0.987351 0.325402 0.813755 0.133907
H35   H     H_    0.649691 0.277180 0.087545 0.133549
H36   H     H_    0.975632 0.235323 0.716453 0.128663
H37   H     H_    0.032419 0.124085 0.667617 0.106875
H38   H     H_    0.101283 0.102868 0.714769 0.119926
H39   H     H_    0.349668 0.735935 0.920952 0.143607
H40   H     H_    0.275081 0.376405 0.014695 0.148030
H41   H     H_    0.664330 0.686713 0.070442 0.140522
H42   H     H_    0.148446 0.761184 0.080375 0.143293
H43   H     H_    0.843443 0.205045 0.924484 0.144558
H44   H     H_    0.853668 0.776474 0.907243 0.133346
H45   H     H_    0.279437 0.999701 0.449358 0.195355
H46   H     H_    0.223983 0.124003 0.986422 0.148393
H47   H     H_    0.627471 0.345659 0.012793 0.157103
H48   H     H_    0.359962 0.638602 0.001555 0.158443
H49   H     H_    0.368311 0.349739 0.989636 0.162050
H50   H     H_    0.649179 0.621365 0.981283 0.156839
H51   H     H_    0.138605 0.858789 0.999843 0.159309
H52   H     H_    0.854668 0.129314 0.012112 0.159379
H53   H     H_    0.877565 0.838483 0.983319 0.156848
H54   H     H_    0.130289 0.151885 0.011655 0.162049
H55   H     H_    0.751444 0.256276 0.769952 0.184123
H56   H     H_    0.217806 0.500359 0.559773 0.193497
H57   H     H_    0.262868 0.786670 0.214245 0.173587
H58   H     H_    0.253470 0.232151 0.219917 0.162671
H59   H     H_    0.736219 0.787427 0.787308 0.173849
H60   H     H_    0.235566 0.711077 0.786671 0.172447
H61   H     H_    0.765610 0.290541 0.212574 0.172438
H62   H     H_    0.750856 0.750928 0.225466 0.175919
H63   H     H_    0.246648 0.267075 0.780418 0.164549
H64   H     H_    0.046366 0.259252 0.493859 0.174838
H65   H     H_    0.095100 0.302456 0.402815 0.186820
H66   H     H_    0.987311 0.736734 0.435471 0.174147
H67   H     H_    0.781365 0.500093 0.441557 0.191754
H68   H     H_    0.028940 0.688482 0.342405 0.190214
H69   H     H_    0.956911 0.258985 0.491410 0.174927
H70   H     H_    0.908887 0.301556 0.584189 0.191062
H71   H     H_    0.013348 0.736086 0.563369 0.174171
H72   H     H_    0.971498 0.687333 0.655482 0.189113
H73   H     H_    0.602170 0.791077 0.342460 0.190724
H74   H     H_    0.634247 0.858998 0.269321 0.176015
H75   H     H_    0.474659 0.241043 0.458280 0.182705
H76   H     H_    0.520355 0.208562 0.355842 0.187467
H77   H     H_    0.477835 0.758381 0.423729 0.161226
H78   H     H_    0.086319 0.318112 0.573883 0.195287
H79   H     H_    0.487913 0.798224 0.503197 0.183718
H80   H     H_    0.505500 0.226905 0.579025 0.175323
H81   H     H_    0.468971 0.166942 0.661878 0.179976
H82   H     H_    0.728005 0.111124 0.872565 0.130409
H83   H     H_    0.769513 0.038322 0.732842 0.122423
H84   H     H_    0.862483 0.067501 0.609414 0.099674
H85   H     H_    0.914214 0.169734 0.625970 0.117432
H86   H     H_    0.872682 0.245110 0.763717 0.124936
H87   H     H_    0.204420 0.628099 0.206469 0.136670
H88   H     H_    0.153770 0.629614 0.372644 0.140267
H89   H     H_    0.920477 0.677250 0.398184 0.187636
H90   H     H_    0.106825 0.742360 0.454406 0.125727
H91   H     H_    0.105836 0.850480 0.370753 0.115583
H92   H     H_    0.156314 0.850153 0.204865 0.131618
H93   H     H_    0.366546 0.154207 0.003352 0.124463
H94   H     H_    0.392406 0.048905 0.062998 0.122777
H95   H     H_    0.321732 0.962365 0.166124 0.123228
H96   H     H_    0.224594 0.981669 0.210127 0.122691
H97   H     H_    0.197647 0.087535 0.152716 0.121520
H98   H     H_    0.805392 0.635199 0.776074 0.135776
H99   H     H_    0.855466 0.643666 0.611037 0.146010
H100  H     H_    0.914726 0.318972 0.415997 0.194323
H101  H     H_    0.895795 0.761377 0.536619 0.113324
H102  H     H_    0.889534 0.868900 0.628257 0.117439
H103  H     H_    0.839240 0.861471 0.794093 0.137612
H104  H     H_    0.342729 0.649509 0.793195 0.129149
H105  H     H_    0.392475 0.652426 0.627299 0.114619
H106  H     H_    0.389755 0.762186 0.547534 0.127498
H107  H     H_    0.342536 0.873290 0.632503 0.138509
H108  H     H_    0.292482 0.871578 0.798873 0.135034
H109  H     H_    0.700421 0.136188 0.213543 0.135065
H110  H     H_    0.646750 0.138027 0.378724 0.142959
H111  H     H_    0.079315 0.676050 0.601769 0.184352
H112  H     H_    0.600306 0.251344 0.459591 0.122514
H113  H     H_    0.605883 0.361828 0.373668 0.117657
H114  H     H_    0.659957 0.361208 0.207765 0.138410
H115  H     H_    0.792541 0.607698 0.112506 0.129804
H116  H     H_    0.759714 0.530454 0.247157 0.123844
H117  H     H_    0.664350 0.541221 0.371774 0.104626
H118  H     H_    0.601261 0.629097 0.360951 0.116144
H119  H     H_    0.633329 0.706639 0.226815 0.119719
H120  H     H_    0.301665 0.412932 0.848636 0.121312
H121  H     H_    0.274947 0.518766 0.790837 0.122142
H122  H     H_    0.663681 0.848460 0.392849 0.169625
H123  H     H_    0.177937 0.537944 0.833959 0.122801
H124  H     H_    0.107149 0.451307 0.936601 0.122601
H125  H     H_    0.132760 0.346072 0.996696 0.127074
H126  H     H_    0.604874 0.392928 0.708403 0.121750
H127  H     H_    0.529575 0.380687 0.674324 0.102862
H128  H     H_    0.461773 0.281672 0.743101 0.122512
H129  H     H_    0.471002 0.191957 0.842527 0.127222
H130  H     H_    0.546605 0.202560 0.876266 0.126644
H131  H     H_    0.449981 0.799787 0.121851 0.128884
H132  H     H_    0.525388 0.817568 0.154850 0.136872
N1    N     N_3   0.054458 0.305800 0.454294 -0.453797
N2    N     N_3   0.009161 0.688291 0.412623 -0.447035
N3    N     N_3   0.949296 0.305039 0.531934 -0.459598
N4    N     N_3   0.991466 0.687510 0.585253 -0.447155
N5    N     N_3   0.597736 0.844424 0.326537 -0.446014
N6    N     N_3   0.501448 0.198203 0.424714 -0.453555
N7    N     N_3   0.496938 0.802059 0.436229 -0.460189
N8    N     N_3   0.487538 0.175388 0.592515 -0.449556
O1    O     O_R   0.746490 0.236330 0.638080 -0.625020
O2    O     O_R   0.325830 0.813840 0.483730 -0.649076
O3    O     O_R   0.325830 0.186160 0.483730 -0.636041
O4    O     O_R   0.674170 0.813840 0.516270 -0.629764
O5    O     O_R   0.174170 0.686160 0.516270 -0.645213
O6    O     O_R   0.825830 0.313840 0.483730 -0.641343
O7    O     O_R   0.825830 0.686160 0.483730 -0.645098
O8    O     O_R   0.174170 0.313840 0.516270 -0.643004
O9    O     O_R   0.739960 0.127620 0.525000 -0.623314
O10   O     O_R   0.260040 0.872380 0.475000 -0.628836
O11   O     O_R   0.260040 0.127620 0.475000 -0.630572
O12   O     O_R   0.253510 0.763670 0.361920 -0.624406
O13   O     O_R   0.739960 0.872380 0.525000 -0.641138
O14   O     O_R   0.239960 0.627620 0.525000 -0.628627
O15   O     O_R   0.760040 0.372380 0.475000 -0.635275
O16   O     O_R   0.760040 0.627620 0.475000 -0.625560
O17   O     O_R   0.239960 0.372380 0.525000 -0.629555
O18   O     O_R   0.680700 0.294870 0.629350 -0.635315
O19   O     O_R   0.319300 0.705130 0.370650 -0.631023
O20   O     O_R   0.319300 0.294870 0.370650 -0.635727
O21   O     O_R   0.680700 0.705130 0.629350 -0.623821
O22   O     O_R   0.180700 0.794870 0.629350 -0.632739
O23   O     O_R   0.253510 0.236330 0.361920 -0.634291
O24   O     O_R   0.819300 0.205130 0.370650 -0.629327
O25   O     O_R   0.819300 0.794870 0.370650 -0.640228
O26   O     O_R   0.180700 0.205130 0.629350 -0.628546
O27   O     O_R   0.062020 0.072840 0.007170 -0.622570
O28   O     O_R   0.937980 0.927160 0.992830 -0.619539
O29   O     O_R   0.937980 0.072840 0.992830 -0.619711
O30   O     O_R   0.062020 0.927160 0.007170 -0.622132
O31   O     O_R   0.562020 0.572840 0.007170 -0.619148
O32   O     O_R   0.437980 0.427160 0.992830 -0.624728
O33   O     O_R   0.437980 0.572840 0.992830 -0.622522
O34   O     O_R   0.746490 0.763670 0.638080 -0.620920
O35   O     O_R   0.562020 0.427160 0.007170 -0.622179
O36   O     O_R   0.947860 0.073950 0.109290 -0.624991
O37   O     O_R   0.052140 0.926050 0.890710 -0.620956
O38   O     O_R   0.052140 0.073950 0.890710 -0.624598
O39   O     O_R   0.947860 0.926050 0.109290 -0.620296
O40   O     O_R   0.447860 0.573950 0.109290 -0.620012
O41   O     O_R   0.552140 0.426050 0.890710 -0.621846
O42   O     O_R   0.552140 0.573950 0.890710 -0.622910
O43   O     O_R   0.447860 0.426050 0.109290 -0.619927
O44   O     O_R   0.246490 0.736330 0.638080 -0.621099
O45   O     O_R   0.753510 0.263670 0.361920 -0.622210
O46   O     O_R   0.753510 0.736330 0.361920 -0.636369
O47   O     O_R   0.246490 0.263670 0.638080 -0.632524
O48   O     O_R   0.674170 0.186160 0.516270 -0.637523
Zn1   Zn    Zn3+2 0.792340 0.208750 0.507670 0.934442
Zn2   Zn    Zn3+2 0.494040 0.500000 0.919480 0.931003
Zn3   Zn    Zn3+2 0.005960 0.000000 0.080520 0.933534
Zn4   Zn    Zn3+2 0.994040 0.000000 0.919480 0.938232
Zn5   Zn    Zn3+2 0.207660 0.791250 0.492330 0.920469
Zn6   Zn    Zn3+2 0.207660 0.208750 0.492330 0.925883
Zn7   Zn    Zn3+2 0.792340 0.791250 0.507670 0.920745
Zn8   Zn    Zn3+2 0.292340 0.708750 0.507670 0.919867
Zn9   Zn    Zn3+2 0.707660 0.291250 0.492330 0.925097
Zn10  Zn    Zn3+2 0.707660 0.708750 0.492330 0.940823
Zn11  Zn    Zn3+2 0.292340 0.291250 0.507670 0.931249
Zn12  Zn    Zn3+2 0.505960 0.500000 0.080520 0.938728

loop_
_geom_bond_atom_site_label_1
_geom_bond_atom_site_label_2
_ccdc_geom_bond_type
O19   Zn8   S    
C195  C244  S    
C28   C47   A    
C126  C127  A    
C96   C102  A    
C36   C42   A    
C6    O33   A    
C5    O32   A    
C114  C115  A    
O16   Zn10  S    
C211  C220  A    
H70   N3    S    
C13   C18   A    
C170  C178  A    
C212  O46   A    
C176  H39   S    
C242  O38   A    
C16   C35   A    
C42   H67   S    
C131  H11   S    
C37   C239  S    
C106  C107  A    
C143  C144  A    
C90   C176  A    
C208  C217  A    
C37   C42   A    
C105  H121  S    
C110  C111  A    
C214  C222  A    
O25   Zn7   S    
C74   H96   S    
C140  H19   S    
C136  H16   S    
C114  H128  S    
C119  H132  S    
C142  H21   S    
C76   C166  S    
C120  H3    S    
C217  H57   S    
C156  C206  S    
C212  O25   A    
C218  H58   S    
C117  C199  S    
C112  O19   A    
C217  C226  A    
C187  C231  A    
C24   C51   A    
C83   C88   A    
H66   N2    S    
C137  C138  A    
C59   C60   A    
C8    C16   A    
C183  C192  A    
C197  C206  A    
C104  C105  A    
C64   H87   S    
C49   H89   S    
C55   C68   A    
C178  H41   S    
C197  C242  S    
C240  O7    A    
C17   C24   A    
C140  C141  A    
C22   C31   A    
C183  C227  A    
C113  C166  A    
C144  C145  A    
C158  H33   S    
C181  C225  A    
C29   C45   A    
C126  H7    S    
C71   H93   S    
O29   Zn4   S    
O31   Zn12  S    
C236  O11   A    
O30   Zn3   S    
C88   H108  S    
C190  O44   A    
H64   N1    S    
C123  C200  S    
C179  C210  S    
C138  H17   S    
C223  O26   A    
C240  O16   A    
C92   H110  S    
C164  C173  A    
C135  C172  A    
C76   C77   A    
C163  C172  A    
C149  H27   S    
C154  C155  A    
C65   H88   S    
C133  H14   S    
C205  C214  A    
C158  C159  A    
C13   N3    S    
C56   C62   A    
C4    O31   A    
C184  C228  A    
C76   C82   A    
O41   Zn2   S    
C24   N4    S    
C221  C230  A    
C179  O21   A    
C21   C30   A    
C80   H101  S    
C14   C57   A    
C118  H131  S    
C86   H106  S    
C2    C19   A    
C168  C209  S    
C90   C226  S    
C25   C55   A    
C94   H113  S    
C72   C73   A    
C115  H129  S    
C139  C140  A    
C186  C230  A    
C243  O28   A    
C200  C209  A    
C50   H100  S    
C101  C227  S    
C156  C158  A    
C130  C131  A    
C9    C15   A    
C89   C169  S    
H65   N1    S    
C157  C171  A    
C1    O18   A    
O26   Zn6   S    
C46   C53   A    
C207  C216  A    
C192  C200  A    
C51   H111  S    
C66   H90   S    
C132  H12   S    
O7    Zn7   S    
C143  C149  A    
O9    Zn1   S    
C98   C99   A    
C238  O14   A    
O2    Zn8   S    
C67   C69   A    
C184  C193  A    
C233  O48   A    
O14   Zn8   S    
C137  C142  A    
C11   C18   A    
C147  C148  A    
C160  H36   S    
C128  C129  A    
C25   C43   A    
C97   C98   A    
C85   C86   A    
C91   H109  S    
O20   Zn11  S    
C12   C68   A    
C220  C229  A    
O42   Zn2   S    
C235  O2    A    
H77   N7    S    
C77   H98   S    
C7    O41   A    
C41   H56   S    
C78   C80   A    
H69   N3    S    
C168  O20   A    
C115  C116  A    
C104  H120  S    
H72   N4    S    
O10   Zn5   S    
C26   C45   A    
C121  H4    S    
C63   C69   A    
C135  C230  S    
C6    C191  S    
C107  C108  A    
C79   C177  A    
C219  C228  A    
C89   C91   A    
C157  C174  A    
C188  H54   S    
C66   C67   A    
C216  H55   S    
C34   C241  S    
C103  C171  S    
O15   Zn9   S    
C203  C211  A    
C181  C189  A    
C169  C177  A    
O22   Zn5   S    
C146  C231  S    
C196  C243  S    
C38   C41   A    
C70   C165  S    
O4    Zn10  S    
C91   C92   A    
C62   H86   S    
C69   H92   S    
C111  H127  S    
C190  O22   A    
C165  C174  A    
C83   C167  S    
C210  C219  A    
C59   H83   S    
C117  C122  A    
C57   N7    S    
H79   N7    S    
C38   C238  S    
O44   Zn8   S    
C83   C84   A    
C8    C12   A    
C10   C45   A    
O32   Zn2   S    
C1    O1    A    
C150  C155  A    
C60   H84   S    
C241  O17   A    
C103  C104  A    
C33   C233  S    
C120  C121  A    
O23   Zn6   S    
C29   C51   A    
C27   C47   A    
C238  O5    A    
C198  C207  A    
C144  H22   S    
C55   H24   S    
C130  C202  S    
C3    O30   A    
C68   N8    S    
C20   C234  A    
O12   Zn5   S    
C95   H114  S    
O34   Zn7   S    
C101  C180  A    
C117  C118  A    
O46   Zn10  S    
C28   C37   A    
C199  C208  A    
C56   C58   A    
C30   C39   A    
O6    Zn1   S    
C61   C62   A    
C99   H117  S    
C13   C50   A    
C67   H91   S    
C152  C153  A    
C70   C75   A    
O37   Zn4   S    
C223  O47   A    
C150  C151  A    
C58   H82   S    
H73   N5    S    
C15   C46   A    
C187  H53   S    
C27   C49   A    
C25   C33   A    
C54   C57   A    
C206  C215  A    
C189  C198  A    
C87   C88   A    
C187  C196  A    
C73   C74   A    
O18   Zn9   S    
C11   C47   A    
C8    C43   A    
C52   H122  S    
C185  C194  A    
C155  H32   S    
C215  C224  A    
C161  C162  A    
C5    O43   A    
C77   C78   A    
C93   H112  S    
C11   C19   A    
C166  C175  A    
C90   C164  A    
C152  H29   S    
C161  H37   S    
C151  H28   S    
C123  C125  A    
C31   C40   A    
C127  H8    S    
C53   H2    S    
C109  C116  A    
C213  C221  A    
C46   N6    S    
C173  H42   S    
C168  O23   A    
O27   Zn3   S    
C134  H15   S    
C151  C152  A    
C70   C71   A    
C185  H51   S    
C180  H40   S    
C186  H52   S    
H80   N8    S    
C100  H118  S    
C124  C229  S    
C26   C48   A    
C237  O4    A    
C113  C178  A    
O21   Zn10  S    
C201  O24   A    
C109  C198  S    
C63   C164  S    
C34   C41   A    
C98   H116  S    
C145  C147  A    
C4    C193  S    
C243  O39   A    
C102  H119  S    
C84   C85   A    
C5    C192  S    
C184  H50   S    
C221  H61   S    
C86   C87   A    
C182  C226  A    
C195  C204  A    
C137  C203  S    
C58   C59   A    
C244  O36   A    
C72   H94   S    
C193  C202  A    
C215  C223  S    
C60   C61   A    
H68   N2    S    
C78   H99   S    
C89   C95   A    
C9    C14   A    
C124  C167  A    
C107  H124  S    
C159  C160  A    
C12   C15   A    
C146  C175  A    
C244  O29   A    
C145  H23   S    
C97   H115  S    
C101  C165  A    
C201  C213  S    
C121  C122  A    
O36   Zn3   S    
C212  C214  S    
C201  O45   A    
C125  C126  A    
C182  C191  A    
C183  H49   S    
C233  O9    A    
C131  C132  A    
O39   Zn3   S    
C218  C227  A    
C222  H62   S    
H71   N4    S    
C35   N5    S    
C85   H105  S    
C119  C120  A    
C27   C36   A    
C185  C229  A    
C105  C106  A    
C110  H126  S    
C216  C225  A    
C48   H78   S    
C64   C65   A    
C147  H25   S    
C109  C110  A    
O28   Zn4   S    
C188  C197  A    
C92   C93   A    
C111  C114  A    
C175  H44   S    
C135  C169  A    
C224  H63   S    
C94   C95   A    
C138  C139  A    
C23   C44   A    
O47   Zn11  S    
C71   C72   A    
C179  O34   A    
O8    Zn6   S    
C35   C52   A    
C54   H13   S    
C7    C189  S    
C236  O3    A    
C182  H48   S    
C188  C232  A    
C7    O35   A    
C48   C234  A    
C82   H103  S    
C32   C235  S    
O3    Zn11  S    
C108  H125  S    
C36   C240  S    
C181  H47   S    
C93   C94   A    
O40   Zn12  S    
C239  O15   A    
C190  C211  S    
C81   C82   A    
C219  H59   S    
O48   Zn9   S    
C220  H60   S    
C56   C163  S    
O45   Zn9   S    
C33   C39   A    
O43   Zn12  S    
O17   Zn11  S    
C81   H102  S    
C234  N1    S    
C125  H6    S    
C242  O27   A    
C191  C199  A    
C224  C232  A    
C10   C17   A    
C209  C218  A    
C196  C205  A    
C3    O37   A    
O24   Zn1   S    
C118  C119  A    
C21   C43   A    
C28   C50   A    
C26   C34   A    
C22   C44   A    
H81   N8    S    
C132  C133  A    
C153  H30   S    
C32   C40   A    
C143  C204  S    
C156  C162  A    
C96   C170  S    
C123  C129  A    
C23   C32   A    
C202  C210  A    
C116  H130  S    
C22   C53   A    
C162  H38   S    
C3    C194  S    
C74   C75   A    
C148  H26   S    
C186  C195  A    
C40   H45   S    
C148  C149  A    
C112  C208  S    
C172  H43   S    
C113  C228  S    
C134  C136  A    
C124  C173  A    
C84   H104  S    
O1    Zn1   S    
C204  C213  A    
C73   H95   S    
C39   H1    S    
C63   C64   A    
O35   Zn12  S    
O13   Zn7   S    
C29   C38   A    
C239  O6    A    
C2    C49   A    
C112  O12   A    
C99   C100  A    
C96   C97   A    
C235  O10   A    
C100  C102  A    
C128  H9    S    
O11   Zn6   S    
C103  C108  A    
C4    O42   A    
O5    Zn5   S    
C222  C231  A    
H76   N6    S    
C146  C170  A    
C141  H20   S    
C14   C16   A    
C171  C180  A    
O38   Zn4   S    
C30   C237  S    
C23   C54   A    
C9    C44   A    
C237  O13   A    
C75   H97   S    
C130  C136  A    
C150  C205  S    
C79   C163  A    
C80   C81   A    
C87   H107  S    
H74   N5    S    
C31   C236  S    
C160  C161  A    
O33   Zn2   S    
C141  C142  A    
C122  H5    S    
C133  C134  A    
C10   C20   A    
C194  C203  A    
C17   C19   A    
C18   C20   A    
C106  H123  S    
C2    N2    S    
C154  H31   S    
C1    C207  S    
C6    O40   A    
H75   N6    S    
C177  H35   S    
C129  H10   S    
C65   C66   A    
C174  H46   S    
C139  H18   S    
C159  H34   S    
C61   H85   S    
C153  C154  A    
C79   C225  S    
C21   C52   A    
C127  C128  A    
C157  C232  S    
C167  C176  A    
C241  O8    A    
