data_mof_unit_25333.cif
_audit_creation_date              2013-03-05T15:42:41-0500
_audit_creation_method            fapswitch 2.2
_symmetry_space_group_name_H-M    P1
_symmetry_Int_Tables_number       1
_space_group_crystal_system       triclinic
_cell_length_a                    7.788513
_cell_length_b                    8.659464
_cell_length_c                    27.741813
_cell_angle_alpha                 91.139027
_cell_angle_beta                  87.003568
_cell_angle_gamma                 93.260768
_cell_volume                      1865.17717311

loop_
_atom_site_label
_atom_site_type_symbol
_atom_site_description
_atom_site_fract_x
_atom_site_fract_y
_atom_site_fract_z
_atom_type_partial_charge
O1    O     O_R   0.389250 0.738570 0.503220 -0.589394
O2    O     O_R   0.610750 0.261430 0.496780 -0.589385
O3    O     O_R   0.678390 0.711630 0.494810 -0.576942
O4    O     O_R   0.321610 0.288370 0.505190 -0.576980
C1    C     C_R   0.544657 0.793683 0.498271 0.867219
C2    C     C_R   0.455343 0.206316 0.501729 0.867200
O5    O     O_R   0.355440 0.513440 0.575450 -0.596051
O6    O     O_R   0.644560 0.486560 0.424550 -0.596040
O7    O     O_R   0.644590 0.486500 0.567040 -0.594135
O8    O     O_R   0.355410 0.513500 0.432960 -0.594139
C3    C     C_R   0.503362 0.499424 0.593810 0.865347
C4    C     C_R   0.496638 0.500574 0.406190 0.865328
Zn1   Zn    Zn3+2 0.306940 0.517990 0.505620 1.168701
Zn2   Zn    Zn3+2 0.693060 0.482010 0.494380 1.168727
C5    C     C_R   0.553204 0.628613 0.821889 0.510087
C6    C     C_R   0.446777 0.371364 0.178112 0.510087
O9    O     O_2   0.586508 0.760144 0.796922 -0.521516
O10   O     O_2   0.413478 0.239832 0.203078 -0.521516
N1    N     N_R   0.519296 0.491931 0.797926 -0.359650
N2    N     N_R   0.480686 0.508046 0.202075 -0.359649
C7    C     C_R   0.484171 0.356624 0.821844 0.511532
C8    C     C_R   0.515807 0.643354 0.178157 0.511532
C9    C     C_R   0.359802 0.465095 0.724578 -0.096166
C10   C     C_R   0.640186 0.534894 0.275422 -0.096161
C11   C     C_R   0.355878 0.467500 0.674632 -0.162514
C12   C     C_R   0.644115 0.532496 0.325368 -0.162494
C13   C     C_R   0.665282 0.522622 0.668792 -0.137910
C14   C     C_R   0.334714 0.477352 0.331210 -0.137916
C15   C     C_R   0.669107 0.519806 0.718755 -0.091797
C16   C     C_R   0.330884 0.480163 0.281247 -0.091788
C17   C     C_R   0.516356 0.491253 0.746627 0.300765
C18   C     C_R   0.483632 0.508724 0.253373 0.300754
C19   C     C_R   0.512721 0.495422 0.897984 -0.049197
C20   C     C_R   0.487251 0.504556 0.102017 -0.049197
C21   C     C_R   0.551275 0.632806 0.872320 -0.022982
C22   C     C_R   0.448700 0.367172 0.127680 -0.022982
C23   C     C_R   0.585843 0.771268 0.897311 -0.137775
C24   C     C_R   0.414130 0.228710 0.102690 -0.137775
C25   C     C_R   0.479563 0.355915 0.872295 -0.024058
C26   C     C_R   0.520409 0.644063 0.127705 -0.024058
C27   C     C_R   0.508874 0.496110 0.646352 -0.046771
C28   C     C_R   0.491123 0.503880 0.353648 -0.046764
H1    H     H_    0.783814 0.548219 0.648034 0.228726
H2    H     H_    0.216186 0.451747 0.351969 0.228712
H3    H     H_    0.790231 0.540845 0.735893 0.151288
H4    H     H_    0.209760 0.459114 0.264109 0.151294
H5    H     H_    0.616998 0.878169 0.878307 0.193341
H6    H     H_    0.382976 0.121809 0.121694 0.193341
C29   C     C_R   0.533341 0.642173 0.025601 0.048210
C30   C     C_R   0.466625 0.357806 0.974400 0.048210
C31   C     C_R   0.459343 0.360249 0.025589 0.048202
C32   C     C_R   0.540624 0.639730 0.974411 0.048202
C33   C     C_R   0.493226 0.502335 0.050832 0.072053
C34   C     C_R   0.506742 0.497643 0.949169 0.072053
C35   C     C_R   0.564578 0.780287 0.052748 -0.224104
C36   C     C_R   0.435387 0.219692 0.947253 -0.224103
C37   C     C_R   0.558143 0.780793 0.102722 -0.137052
C38   C     C_R   0.441826 0.219185 0.897279 -0.137053
O11   O     O_2   0.545860 0.776549 0.203224 -0.519843
O12   O     O_2   0.454117 0.223428 0.796777 -0.519844
C39   C     C_R   0.581201 0.774994 0.947275 -0.224362
C40   C     C_R   0.418767 0.224984 0.052725 -0.224362
H7    H     H_    0.766602 0.553452 0.341762 0.209733
H8    H     H_    0.233390 0.446554 0.658237 0.209756
H9    H     H_    0.758640 0.556137 0.253765 0.149357
H10   H     H_    0.241345 0.443858 0.746233 0.149354
H11   H     H_    0.583927 0.889489 0.121733 0.194296
H12   H     H_    0.416041 0.110490 0.878268 0.194296
H13   H     H_    0.594895 0.891281 0.036823 0.139303
H14   H     H_    0.405067 0.108698 0.963178 0.139303
H15   H     H_    0.610726 0.886877 0.963199 0.139724
H16   H     H_    0.389241 0.113101 0.036802 0.139723
C41   C     C_2   0.568934 0.955491 0.500770 -0.016194
C42   C     C_2   0.431066 0.044509 0.499229 -0.016210
N3    N     N_2   0.950320 0.457960 0.486880 0.069859
N4    N     N_2   0.049680 0.542040 0.513120 0.069876
N5    N     N_R   0.010175 0.449078 0.439189 0.291561
O13   O     O_R   0.014063 0.572534 0.413067 -0.388015
O14   O     O_R   0.013414 0.314227 0.417820 -0.344874
N6    N     N_R   0.989802 0.550953 0.560807 0.291573
O15   O     O_R   0.986062 0.427551 0.586953 -0.388099
O16   O     O_R   0.986307 0.685841 0.582150 -0.344827
N7    N     N_R   0.741026 0.015666 0.508759 0.245225
O17   O     O_R   0.855528 0.022417 0.472928 -0.244853
O18   O     O_R   0.784753 0.055311 0.552106 -0.298358
N8    N     N_R   0.258975 0.984334 0.491241 0.245211
O19   O     O_R   0.144471 0.977586 0.527071 -0.244855
O20   O     O_R   0.215247 0.944689 0.447893 -0.298355

loop_
_geom_bond_atom_site_label_1
_geom_bond_atom_site_label_2
_geom_bond_distance
_ccdc_geom_bond_type
C13   C15   1.388665 A    
C41   C42   1.359895 D    
C12   H7    1.082711 S    
N3    N4    1.277736 D    
N1    C17   1.424373 S    
N5    O13   1.301468 A    
C5    N1    1.365318 A    
C19   C25   1.408354 A    
O1    C1    1.277178 A    
C9    H10   1.083088 S    
N1    C7    1.365082 A    
C10   C12   1.388119 A    
C32   C39   1.416558 A    
N8    O20   1.301176 A    
O4    Zn1   1.997908 S    
C4    C28   1.461376 S    
C23   H5    1.083622 S    
C24   H6    1.083622 S    
O6    C4    1.296607 A    
C39   H15   1.074683 S    
O2    C2    1.277178 A    
C31   C40   1.416558 A    
C37   H11   1.083633 S    
C5    C21   1.398119 A    
C32   C34   1.421982 A    
C2    C42   1.403994 S    
N5    O14   1.299986 A    
C7    O12   1.350238 S    
O4    C2    1.292285 A    
C11   C27   1.404705 A    
C8    O11   1.350239 S    
N8    O19   1.300182 A    
C29   C35   1.416683 A    
C25   C38   1.392969 A    
C14   H2    1.076681 S    
C30   C36   1.416683 A    
C15   H3    1.083097 S    
C31   C33   1.421981 A    
C11   H8    1.082709 S    
C9    C17   1.397600 A    
O5    C3    1.296608 A    
O7    Zn2   2.031290 S    
C10   C18   1.397600 A    
N3    N5    1.381732 S    
C13   C27   1.402145 A    
N7    O17   1.300182 A    
C7    C25   1.398326 A    
Zn1   N4    2.025717 S    
C6    N2    1.365319 A    
C29   C32   1.418046 A    
C8    C26   1.398325 A    
C30   C31   1.418047 A    
C40   H16   1.074683 S    
C30   C34   1.421848 A    
C42   N8    1.436716 S    
O7    C3    1.303558 A    
C35   H13   1.074659 S    
O3    Zn2   1.997908 S    
O8    C4    1.303555 A    
C10   H9    1.083085 S    
C38   H12   1.083633 S    
N7    O18   1.301174 A    
N2    C8    1.365083 A    
C36   H14   1.074660 S    
C35   C37   1.384580 A    
C20   C26   1.408354 A    
O1    Zn1   1.981212 S    
C12   C28   1.404700 A    
N2    C18   1.424373 S    
C19   C34   1.418085 A    
C5    O9    1.350290 S    
O6    Zn2   1.994558 S    
C26   C37   1.392970 A    
C21   C23   1.393015 A    
C16   H4    1.083094 S    
N4    N6    1.381697 S    
N6    O15   1.301504 A    
O3    C1    1.292283 A    
O8    Zn1   2.031290 S    
C23   C39   1.384471 A    
Zn2   N3    2.025717 S    
C22   C24   1.393015 A    
C14   C16   1.388666 A    
C15   C17   1.397283 A    
C6    C22   1.398121 A    
C16   C18   1.397282 A    
C29   C33   1.421849 A    
C14   C28   1.402142 A    
C19   C21   1.408205 A    
N6    O16   1.300049 A    
C36   C38   1.384583 A    
C3    C27   1.461385 S    
C20   C22   1.408203 A    
C9    C11   1.388116 A    
C1    C41   1.403994 S    
O2    Zn2   1.981212 S    
C13   H1    1.076678 S    
O5    Zn1   1.994557 S    
C20   C33   1.418083 A    
C6    O10   1.350290 S    
C41   N7    1.436717 S    
C24   C40   1.384472 A    
