data_mof_unit_15568.cif
_audit_creation_date              2012-12-11T14:42:12-0500
_audit_creation_method            fapswitch 2.2
_symmetry_space_group_name_H-M    P1
_symmetry_Int_Tables_number       1
_space_group_crystal_system       triclinic
_cell_length_a                    19.040277
_cell_length_b                    10.966946
_cell_length_c                    18.901233
_cell_angle_alpha                 89.818097
_cell_angle_beta                  90.248584
_cell_angle_gamma                 89.666391
_cell_volume                      3946.71194373

loop_
_atom_site_label
_atom_site_type_symbol
_atom_type_description
_atom_site_fract_x
_atom_site_fract_y
_atom_site_fract_z
_atom_type_partial_charge
C1    C     C_R   0.726878 0.955077 0.853982 0.572086
C2    C     C_R   0.273123 0.955097 0.146013 0.583593
C3    C     C_R   0.226878 0.455077 0.853982 0.572086
C4    C     C_R   0.773123 0.455097 0.146013 0.583593
C5    C     C_R   0.695547 0.455922 0.037852 0.118976
C6    C     C_R   0.304251 0.455574 0.962162 0.118348
C7    C     C_R   0.195547 0.955922 0.037852 0.118976
C8    C     C_R   0.804251 0.955574 0.962162 0.118348
C9    C     C_R   0.757295 0.416473 0.073179 0.014976
C10   C     C_R   0.242811 0.416151 0.926880 0.015163
C11   C     C_R   0.257295 0.916473 0.073179 0.014976
C12   C     C_R   0.742811 0.916151 0.926880 0.015163
C13   C     C_R   0.812803 0.365107 0.032999 0.099464
C14   C     C_R   0.187448 0.365255 0.967138 0.100106
C15   C     C_R   0.312803 0.865107 0.032999 0.099464
C16   C     C_R   0.687448 0.865255 0.967138 0.100106
C17   C     C_R   0.813089 0.380655 0.960140 -0.022176
C18   C     C_R   0.186812 0.381402 0.039865 -0.022171
C19   C     C_R   0.313089 0.880655 0.960140 -0.022176
C20   C     C_R   0.686812 0.881402 0.039865 -0.022171
C21   C     C_R   0.749742 0.410386 0.924787 -0.054651
C22   C     C_R   0.249933 0.410903 0.075229 -0.053825
C23   C     C_R   0.249742 0.910386 0.924787 -0.054651
C24   C     C_R   0.749933 0.910903 0.075229 -0.053825
C25   C     C_R   0.538764 0.271333 0.522893 0.169525
C26   C     C_R   0.539865 0.251807 0.450780 0.168993
C27   C     C_R   0.038763 0.771335 0.522893 0.169525
C28   C     C_R   0.039864 0.751809 0.450781 0.168993
C29   C     C_R   0.500291 0.157671 0.423639 0.002705
C30   C     C_R   0.513944 0.177201 0.568464 0.002705
C31   C     C_R   0.000291 0.657672 0.423639 0.002705
C32   C     C_R   0.013944 0.677202 0.568464 0.002704
C33   C     C_R   0.472878 0.066409 0.467867 -0.154822
C34   C     C_R   0.481742 0.074570 0.540258 -0.148625
C35   C     C_R   0.972879 0.566409 0.467867 -0.154822
C36   C     C_R   0.981742 0.574570 0.540258 -0.148624
C37   C     C_R   0.788203 0.312483 0.531029 -0.094790
C38   C     C_R   0.186496 0.404241 0.454639 -0.094861
C39   C     C_R   0.288197 0.812472 0.531027 -0.094785
C40   C     C_R   0.686496 0.904240 0.454639 -0.094862
C41   C     C_R   0.791529 0.327552 0.458954 0.138614
C42   C     C_R   0.179346 0.400293 0.527028 0.137140
C43   C     C_R   0.291524 0.827543 0.458952 0.138617
C44   C     C_R   0.679346 0.900293 0.527028 0.137139
C45   C     C_R   0.530318 0.177884 0.850938 0.553639
C46   C     C_R   0.469592 0.177782 0.149005 0.561276
C47   C     C_R   0.030318 0.677884 0.850938 0.553639
C48   C     C_R   0.969592 0.677782 0.149005 0.561276
C49   C     C_R   0.757225 0.427897 0.427371 0.036237
C50   C     C_R   0.237915 0.428144 0.571299 0.000235
C51   C     C_R   0.257223 0.927894 0.427370 0.036238
C52   C     C_R   0.737915 0.928145 0.571298 0.000236
C53   C     C_R   0.718582 0.510676 0.470509 -0.045592
C54   C     C_R   0.304459 0.443878 0.540483 -0.076104
C55   C     C_R   0.218581 0.010674 0.470509 -0.045593
C56   C     C_R   0.804459 0.943882 0.540482 -0.076101
C57   C     C_R   0.719623 0.497567 0.543686 -0.127932
C58   C     C_R   0.312032 0.428049 0.467869 -0.111101
C59   C     C_R   0.219623 0.997564 0.543686 -0.127934
C60   C     C_R   0.812031 0.928054 0.467868 -0.111102
C61   C     C_R   0.751937 0.396297 0.573593 -0.011092
C62   C     C_R   0.252709 0.408530 0.424886 0.000419
C63   C     C_R   0.251935 0.896291 0.573591 -0.011089
C64   C     C_R   0.752708 0.908531 0.424886 0.000414
C65   C     C_R   0.738679 0.364990 0.852609 0.539699
C66   C     C_R   0.261196 0.365027 0.147433 0.543920
C67   C     C_R   0.238679 0.864990 0.852609 0.539700
C68   C     C_R   0.761196 0.865027 0.147433 0.543919
C69   C     C_R   0.725583 0.958869 0.645597 0.549029
C70   C     C_R   0.273171 0.958248 0.353894 0.579044
C71   C     C_R   0.225583 0.458869 0.645597 0.549029
C72   C     C_R   0.773172 0.458249 0.353894 0.579045
C73   C     C_R   0.532816 0.178362 0.642666 0.557792
C74   C     C_R   0.470257 0.174187 0.354658 0.568397
C75   C     C_R   0.032816 0.678362 0.642666 0.557791
C76   C     C_R   0.970257 0.674188 0.354658 0.568397
C77   C     C_R   0.739862 0.361585 0.646393 0.546159
C78   C     C_R   0.261187 0.362082 0.353642 0.547966
C79   C     C_R   0.239861 0.861583 0.646392 0.546158
C80   C     C_R   0.761187 0.862083 0.353642 0.547963
C81   C     C_2   0.497657 0.169728 0.920661 -0.110052
C82   C     C_2   0.501963 0.169416 0.079138 -0.107842
C83   C     C_2   0.997657 0.669728 0.920661 -0.110052
C84   C     C_2   0.001963 0.669416 0.079138 -0.107842
C85   C     C_2   0.489767 0.072993 0.037426 -0.163941
C86   C     C_2   0.509445 0.072754 0.962543 -0.162830
C87   C     C_2   0.989767 0.572993 0.037426 -0.163941
C88   C     C_2   0.009445 0.572754 0.962543 -0.162830
C89   C     C_R   0.691478 0.448264 0.964343 -0.105070
C90   C     C_R   0.308102 0.448435 0.035688 -0.104945
C91   C     C_R   0.191478 0.948264 0.964343 -0.105070
C92   C     C_R   0.808102 0.948435 0.035688 -0.104945
Cr1   Cr    Cr6+3 0.769270 0.163730 0.750710 1.109697
Cr2   Cr    Cr6+3 0.230730 0.163730 0.249290 1.126386
Cr3   Cr    Cr6+3 0.269270 0.663730 0.750710 1.109697
Cr4   Cr    Cr6+3 0.730730 0.663730 0.249290 1.126385
Cr5   Cr    Cr6+3 0.612620 0.009790 0.748780 1.119165
Cr6   Cr    Cr6+3 0.387380 0.009790 0.251220 1.114325
Cr7   Cr    Cr6+3 0.112620 0.509790 0.748780 1.119165
Cr8   Cr    Cr6+3 0.887380 0.509790 0.251220 1.114326
Cr9   Cr    Cr6+3 0.614160 0.322500 0.747710 1.120920
Cr10  Cr    Cr6+3 0.385840 0.322500 0.252290 1.124968
Cr11  Cr    Cr6+3 0.114160 0.822500 0.747710 1.120919
Cr12  Cr    Cr6+3 0.885840 0.822500 0.252290 1.124967
H1    H     H_    0.464473 0.992213 0.058123 0.211863
H2    H     H_    0.534453 0.991292 0.942025 0.213166
H3    H     H_    0.964473 0.492213 0.058123 0.211863
H4    H     H_    0.034453 0.491292 0.942025 0.213166
H5    H     H_    0.690376 0.560271 0.576858 0.181827
H6    H     H_    0.364273 0.428865 0.445222 0.191524
H7    H     H_    0.190377 0.060270 0.576857 0.181825
H8    H     H_    0.864272 0.928872 0.445221 0.191526
H9    H     H_    0.528055 0.249475 0.058026 0.157044
H10   H     H_    0.471766 0.250391 0.941627 0.157191
H11   H     H_    0.028055 0.749475 0.058026 0.157044
H12   H     H_    0.971766 0.750391 0.941627 0.157191
H13   H     H_    0.641845 0.468079 0.938415 0.208506
H14   H     H_    0.357556 0.468191 0.061651 0.209103
H15   H     H_    0.141845 0.968079 0.938415 0.208506
H16   H     H_    0.857556 0.968191 0.061651 0.209103
H17   H     H_    0.441705 0.992317 0.446961 0.182270
H18   H     H_    0.461558 0.003313 0.574276 0.177829
H19   H     H_    0.941707 0.492316 0.446961 0.182273
H20   H     H_    0.961559 0.503313 0.574275 0.177830
H21   H     H_    0.812243 0.231208 0.553385 0.180022
H22   H     H_    0.140710 0.390074 0.421525 0.186191
H23   H     H_    0.312234 0.731192 0.553381 0.180016
H24   H     H_    0.640710 0.890071 0.421525 0.186192
O1    O     O_R   0.784320 0.290430 0.830510 -0.485798
O2    O     O_R   0.215680 0.290430 0.169490 -0.486622
O3    O     O_R   0.284320 0.790430 0.830510 -0.485798
O4    O     O_R   0.715680 0.790430 0.169490 -0.486622
O5    O     O_R   0.554640 0.080370 0.673500 -0.482717
O6    O     O_R   0.445360 0.080370 0.326500 -0.514745
O7    O     O_R   0.054640 0.580370 0.673500 -0.482717
O8    O     O_R   0.945360 0.580370 0.326500 -0.514745
O9    O     O_R   0.543920 0.282180 0.666790 -0.458767
O10   O     O_R   0.456080 0.282180 0.333210 -0.460264
O11   O     O_R   0.043920 0.782180 0.666790 -0.458768
O12   O     O_R   0.956080 0.782180 0.333210 -0.460263
O13   O     O_R   0.679040 0.374160 0.674430 -0.467252
O14   O     O_R   0.320960 0.374160 0.325570 -0.485570
O15   O     O_R   0.179040 0.874160 0.674430 -0.467254
O16   O     O_R   0.820960 0.874160 0.325570 -0.485573
O17   O     O_3   0.665350 0.165340 0.749070 -0.297208
O18   O     O_3   0.334650 0.165340 0.250930 -0.307909
O19   O     O_3   0.165350 0.665340 0.749070 -0.297208
O20   O     O_3   0.834650 0.665340 0.250930 -0.307908
O21   O     O_R   0.762640 0.040960 0.825200 -0.459960
O22   O     O_R   0.237360 0.040960 0.174800 -0.456826
O23   O     O_R   0.262640 0.540960 0.825200 -0.459960
O24   O     O_R   0.737360 0.540960 0.174800 -0.456826
O25   O     O_R   0.667400 0.923970 0.829950 -0.469807
O26   O     O_R   0.332600 0.923970 0.170050 -0.464903
O27   O     O_R   0.167400 0.423970 0.829950 -0.469807
O28   O     O_R   0.832600 0.423970 0.170050 -0.464904
O29   O     O_R   0.553960 0.081340 0.821780 -0.489567
O30   O     O_R   0.446040 0.081340 0.178220 -0.489388
O31   O     O_R   0.053960 0.581340 0.821780 -0.489567
O32   O     O_R   0.946040 0.581340 0.178220 -0.489388
O33   O     O_R   0.543180 0.283240 0.826740 -0.481493
O34   O     O_R   0.456820 0.283240 0.173260 -0.472929
O35   O     O_R   0.043180 0.783240 0.826740 -0.481493
O36   O     O_R   0.956820 0.783240 0.173260 -0.472929
O37   O     O_R   0.678360 0.375140 0.822710 -0.497530
O38   O     O_R   0.321640 0.375140 0.177290 -0.492026
O39   O     O_R   0.178360 0.875140 0.822710 -0.497529
O40   O     O_R   0.821640 0.875140 0.177290 -0.492026
O41   O     O_R   0.785050 0.289380 0.670560 -0.519636
O42   O     O_R   0.214950 0.289380 0.329440 -0.510676
O43   O     O_R   0.285050 0.789380 0.670560 -0.519633
O44   O     O_R   0.714950 0.789380 0.329440 -0.510676
O45   O     O_R   0.763320 0.039990 0.676930 -0.502659
O46   O     O_R   0.236680 0.039990 0.323070 -0.490073
O47   O     O_R   0.263320 0.539990 0.676930 -0.502661
O48   O     O_R   0.736680 0.539990 0.323070 -0.490072
O49   O     O_R   0.668130 0.922920 0.670000 -0.456016
O50   O     O_R   0.331870 0.922920 0.330000 -0.466017
O51   O     O_R   0.168130 0.422920 0.670000 -0.456016
O52   O     O_R   0.831870 0.422920 0.330000 -0.466015
Br1   Br    Br    0.841364 0.203099 0.407468 -0.449584
Br2   Br    Br    0.089076 0.341004 0.557667 -0.443383
Br3   Br    Br    0.341356 0.703088 0.407463 -0.449587
Br4   Br    Br    0.589076 0.841002 0.557667 -0.443384
C93   C     C_1   0.667937 0.595754 0.441719 0.329082
N1    N     N_1   0.624993 0.659453 0.418541 -0.172431
C94   C     C_1   0.365452 0.471774 0.582834 0.243402
N2    N     N_1   0.413224 0.495296 0.618100 -0.180309
C95   C     C_1   0.167937 0.095755 0.441719 0.329082
N3    N     N_1   0.124995 0.159456 0.418541 -0.172430
C96   C     C_1   0.865450 0.971780 0.582832 0.243407
N4    N     N_1   0.913221 0.995305 0.618097 -0.180311
Br5   Br    Br    0.612212 0.508116 0.086537 -0.391832
Br6   Br    Br    0.387548 0.507069 0.913547 -0.407319
Br7   Br    Br    0.112212 0.008115 0.086537 -0.391832
Br8   Br    Br    0.887548 0.007069 0.913547 -0.407319
Br9   Br    Br    0.885465 0.259574 0.073135 -0.403647
Br10  Br    Br    0.115568 0.259596 0.927379 -0.415508
Br11  Br    Br    0.385465 0.759574 0.073135 -0.403646
Br12  Br    Br    0.615568 0.759596 0.927379 -0.415509
C97   C     C_1   0.878232 0.359631 0.922314 0.312613
N5    N     N_1   0.929946 0.342299 0.891901 -0.193324
C98   C     C_1   0.121680 0.360726 0.077613 0.314623
N6    N     N_1   0.070009 0.343581 0.107999 -0.190368
C99   C     C_1   0.378232 0.859631 0.922314 0.312613
N7    N     N_1   0.429946 0.842299 0.891901 -0.193324
C100  C     C_1   0.621680 0.860726 0.077613 0.314623
N8    N     N_1   0.570009 0.843581 0.107999 -0.190368
Br13  Br    Br    0.558304 0.435657 0.552396 -0.390051
Br14  Br    Br    0.591342 0.355212 0.387038 -0.421389
Br15  Br    Br    0.058302 0.935659 0.552397 -0.390047
Br16  Br    Br    0.091339 0.855218 0.387039 -0.421387

loop_
_geom_bond_atom_site_label_1
_geom_bond_atom_site_label_2
_ccdc_geom_bond_type
C58   C62   A    
Cr3   O3    S    
C98   N6    T    
Cr6   O26   S    
Cr2   O18   S    
Cr1   O45   S    
C55   C59   A    
C97   N5    T    
C14   C18   A    
C5    C89   A    
Cr1   O21   S    
C35   C36   A    
C84   C87   D    
Cr5   O5    S    
C87   C88   S    
Cr3   O47   S    
C32   C75   S    
C93   N1    T    
Cr11  O19   S    
C21   C89   A    
C99   N7    T    
C42   Br2   S    
Cr11  O39   S    
C48   O32   A    
Cr9   O17   S    
Cr2   O2    S    
C13   Br9   S    
C2    O22   A    
C32   C36   A    
C36   H20   S    
C38   C42   A    
Cr7   O31   S    
C78   O14   A    
Cr3   O19   S    
C88   H4    S    
Cr1   O1    S    
C56   C60   A    
C71   O51   A    
C40   H24   S    
C65   O37   A    
C17   C97   S    
Cr10  O10   S    
C79   O43   A    
C57   C61   A    
C68   O4    A    
C9    C13   A    
C22   C66   S    
C45   O33   A    
C52   C69   S    
C69   O49   A    
C46   C82   S    
C11   C15   A    
C79   O15   A    
Cr6   O30   S    
C29   C33   A    
C61   C77   S    
C80   O16   A    
C49   C72   S    
Cr7   O27   S    
C81   H10   S    
C59   H7    S    
Cr12  O16   S    
Cr1   O17   S    
C18   C98   S    
C8    C92   A    
C51   C70   S    
Cr5   O25   S    
Cr6   O50   S    
C44   Br4   S    
C51   C55   A    
C81   C86   D    
C16   Br12  S    
C8    C12   A    
Cr4   O4    S    
C47   O35   A    
Cr8   O28   S    
C83   C88   D    
C56   C96   S    
C7    C91   A    
Cr9   O33   S    
C34   H18   S    
C18   C22   A    
C33   H17   S    
C64   C80   S    
C41   Br1   S    
C86   H2    S    
C1    C12   S    
C69   O45   A    
C85   H1    S    
C2    C11   S    
C24   C92   A    
C41   C49   A    
C38   H22   S    
C7    C11   A    
C37   H21   S    
C76   O12   A    
C76   O8    A    
C12   C16   A    
C4    O24   A    
C57   H5    S    
C39   H23   S    
C30   C34   A    
C52   C56   A    
C100  N8    T    
C20   C24   A    
C45   O29   A    
C82   H9    S    
C10   C14   A    
C30   C73   S    
C53   C57   A    
C19   C23   A    
C70   O50   A    
C47   O31   A    
C29   C74   S    
Cr6   O18   S    
C25   C26   A    
C85   C86   S    
C17   C21   A    
C48   C84   S    
Cr4   O20   S    
Cr5   O29   S    
Cr7   O51   S    
C53   C93   S    
C15   C19   A    
C50   C71   S    
Cr12  O36   S    
C78   O42   A    
C5    C9    A    
C60   H8    S    
Cr11  O11   S    
C65   O1    A    
Cr12  O40   S    
C46   O30   A    
C15   Br11  S    
Cr8   O32   S    
Cr5   O49   S    
C90   H14   S    
C16   C20   A    
Cr1   O41   S    
C27   Br15  S    
C33   C34   A    
C22   C90   A    
Cr7   O7    S    
C26   Br14  S    
C50   C54   A    
C25   Br13  S    
C70   O46   A    
C42   C50   A    
C48   O36   A    
C68   O40   A    
C77   O41   A    
C14   Br10  S    
Cr2   O46   S    
C89   H13   S    
C84   H11   S    
C47   C83   S    
C54   C94   S    
Cr4   O44   S    
C23   C91   A    
C59   C63   A    
Cr3   O23   S    
C3    O27   A    
C80   O44   A    
C7    Br7   S    
Cr8   O52   S    
C55   C95   S    
C6    Br6   S    
Cr10  O34   S    
C5    Br5   S    
C54   C58   A    
C67   O39   A    
C25   C30   A    
Cr7   O19   S    
Cr9   O9    S    
C37   C61   A    
Cr4   O48   S    
C21   C65   S    
C27   C32   A    
C58   H6    S    
Cr5   O17   S    
C83   H12   S    
C62   C78   S    
C28   C31   A    
C67   O3    A    
C66   O38   A    
C73   O5    A    
C3    O23   A    
Cr11  O15   S    
C44   C52   A    
C6    C10   A    
C39   C43   A    
C45   C81   S    
C63   C79   S    
Cr2   O22   S    
C82   C85   D    
C39   C63   A    
Cr6   O6    S    
Cr11  O35   S    
C40   C64   A    
C13   C17   A    
C60   C64   A    
C35   H19   S    
C92   H16   S    
Cr12  O20   S    
C3    C10   S    
C6    C90   A    
Cr9   O37   S    
C74   O10   A    
C43   C51   A    
C31   C76   S    
C2    O26   A    
C75   O7    A    
C73   O9    A    
Cr8   O20   S    
C49   C53   A    
C74   O6    A    
C31   C35   A    
C43   Br3   S    
C71   O47   A    
C8    Br8   S    
C91   H15   S    
Cr10  O18   S    
C72   O48   A    
C37   C41   A    
C95   N3    T    
C96   N4    T    
C28   Br16  S    
C77   O13   A    
C1    O25   A    
C23   C67   S    
C24   C68   S    
Cr12  O12   S    
C40   C44   A    
C4    O28   A    
C87   H3    S    
C94   N2    T    
C26   C29   A    
Cr10  O38   S    
Cr9   O13   S    
C46   O34   A    
C27   C28   A    
C19   C99   S    
C72   O52   A    
C1    O21   A    
C75   O11   A    
Cr10  O14   S    
C20   C100  S    
C38   C62   A    
C4    C9    S    
Cr3   O43   S    
Cr2   O42   S    
Cr8   O8    S    
C66   O2    A    
Cr4   O24   S    
