data_mof_unit_41049.cif
_audit_creation_date              2012-12-11T16:08:32-0500
_audit_creation_method            fapswitch 2.2
_symmetry_space_group_name_H-M    P1
_symmetry_Int_Tables_number       1
_space_group_crystal_system       triclinic
_cell_length_a                    12.974425
_cell_length_b                    13.282038
_cell_length_c                    27.747501
_cell_angle_alpha                 94.749826
_cell_angle_beta                  90.218527
_cell_angle_gamma                 119.423326
_cell_volume                      4145.11401232

loop_
_atom_site_label
_atom_site_type_symbol
_atom_type_description
_atom_site_fract_x
_atom_site_fract_y
_atom_site_fract_z
_atom_type_partial_charge
C1    C     C_R   0.626838 0.896810 0.426622 0.579067
C2    C     C_R   0.568020 0.300360 0.224347 0.180764
C3    C     C_R   0.559896 0.286992 0.273929 -0.063914
C4    C     C_R   0.659755 0.309220 0.302271 0.011518
C5    C     C_R   0.677036 0.335633 0.202737 0.051749
C6    C     C_1   0.690352 0.361704 0.152938 -0.001751
C7    C     C_1   0.648146 0.290399 0.352821 -0.042358
C8    C     C_1   0.701790 0.391846 0.112546 0.016685
C9    C     C_R   0.234417 0.773314 0.343712 -0.122759
C10   C     C_R   0.227031 0.772134 0.293968 0.006603
C11   C     C_R   0.205951 0.765686 0.193693 0.013131
C12   C     C_R   0.600782 0.221458 0.440360 0.555357
C13   C     C_R   0.234598 0.689150 0.214127 -0.127349
C14   C     C_R   0.243840 0.691538 0.264130 -0.128301
C15   C     C_R   0.180293 0.752815 0.144259 -0.125974
C16   C     C_R   0.134939 0.817896 0.124822 -0.003352
C17   C     C_R   0.206522 0.941926 0.354403 -0.131035
C18   C     C_R   0.192504 0.938002 0.304096 0.010114
C19   C     C_R   0.205033 0.853997 0.273879 0.062268
C20   C     C_R   0.168295 0.017391 0.283334 -0.122386
C21   C     C_R   0.152180 0.010669 0.233102 -0.097620
C22   C     C_R   0.162610 0.926056 0.203087 0.025756
C23   C     C_R   0.272725 0.877491 0.424582 0.540721
C24   C     C_R   0.193097 0.849922 0.223514 0.062700
C25   C     C_R   0.134324 0.910026 0.153461 -0.107836
C26   C     C_R   0.229144 0.860494 0.374248 -0.003105
C27   C     C_R   0.716733 0.963932 0.350573 -0.157989
C28   C     C_R   0.715895 0.952281 0.300691 -0.000117
C29   C     C_R   0.719235 0.929259 0.200083 0.017636
C30   C     C_R   0.786087 0.038512 0.225794 -0.124606
C31   C     C_R   0.784553 0.049951 0.275929 -0.120905
C32   C     C_R   0.731874 0.914762 0.150715 -0.128742
C33   C     C_R   0.674754 0.803401 0.126122 -0.005554
C34   C     C_R   0.627497 0.898245 0.564708 0.554426
C35   C     C_R   0.575060 0.757257 0.351419 0.131978
C36   C     C_R   0.573884 0.744130 0.300385 0.025930
C37   C     C_R   0.644128 0.842630 0.275282 0.037786
C38   C     C_R   0.503780 0.635772 0.273554 -0.110447
C39   C     C_R   0.505993 0.624683 0.223254 -0.140135
C40   C     C_R   0.578307 0.721333 0.198750 0.007379
C41   C     C_R   0.645647 0.831336 0.224651 0.067865
C42   C     C_R   0.591572 0.708349 0.149253 -0.130706
C43   C     C_R   0.644175 0.868956 0.376208 0.016219
C44   C     C_R   0.720503 0.263572 0.653075 -0.164000
C45   C     C_R   0.604579 0.228665 0.577849 0.576759
C46   C     C_R   0.738217 0.292980 0.702619 -0.038851
C47   C     C_R   0.753611 0.331351 0.803959 0.022707
C48   C     C_R   0.809305 0.273981 0.780572 0.158176
C49   C     C_R   0.800868 0.254999 0.730196 -0.092749
C50   C     C_R   0.757321 0.349760 0.854617 -0.110881
C51   C     C_R   0.697627 0.403397 0.876472 -0.009380
C52   C     C_R   0.608527 0.365630 0.646591 0.141665
C53   C     C_R   0.623556 0.393821 0.697049 0.027519
C54   C     C_R   0.685696 0.353933 0.725096 0.018107
C55   C     C_R   0.572612 0.455224 0.720576 -0.102843
C56   C     C_R   0.271833 0.879296 0.563430 0.544149
C57   C     C_R   0.577073 0.470875 0.770746 -0.138595
C58   C     C_R   0.634780 0.428035 0.798268 0.002112
C59   C     C_R   0.692172 0.371777 0.775774 0.027295
C60   C     C_R   0.636201 0.441509 0.848163 -0.128431
C61   C     C_R   0.649112 0.292182 0.625609 0.015088
C62   C     C_1   0.222141 0.862285 0.610127 0.000515
C63   C     C_R   0.071897 0.749986 0.718037 -0.104901
C64   C     C_R   0.056606 0.739982 0.767630 -0.106970
C65   C     C_R   0.238419 0.922992 0.785874 -0.096702
C66   C     C_R   0.253864 0.932873 0.736279 -0.099586
C67   C     C_1   0.631331 0.265967 0.394038 0.004836
C68   C     C_R   0.170909 0.846260 0.702244 0.037371
C69   C     C_R   0.140144 0.826106 0.801656 0.039468
C70   C     C_1   0.123041 0.814025 0.852537 -0.046208
C71   C     C_1   0.193421 0.853117 0.651510 -0.047204
C72   C     C_1   0.099793 0.797198 0.894158 -0.001000
C73   C     C_1   0.646665 0.860372 0.609113 0.008384
C74   C     C_R   0.748520 0.776496 0.711569 -0.087858
C75   C     C_R   0.761105 0.761324 0.760165 -0.096407
C76   C     C_R   0.609846 0.812211 0.780695 -0.085252
C77   C     C_R   0.597365 0.827502 0.732251 -0.095915
C78   C     C_R   0.767812 0.342679 0.280664 -0.117544
C79   C     C_R   0.667111 0.810491 0.697622 0.041730
C80   C     C_R   0.692313 0.779957 0.794847 0.038967
C81   C     C_1   0.708719 0.769526 0.845129 -0.049698
C82   C     C_1   0.658045 0.834558 0.648641 -0.032942
C83   C     C_1   0.724719 0.762410 0.887234 -0.007799
C84   C     C_R   0.066503 0.773831 0.078626 0.549085
C85   C     C_R   0.716796 0.441059 0.067221 0.552150
C86   C     C_R   0.719151 0.782555 0.080433 0.558235
C87   C     C_R   0.056338 0.766259 0.941181 0.539525
C88   C     C_R   0.711715 0.438499 0.928134 0.536765
C89   C     C_R   0.776508 0.356286 0.231097 -0.141460
C90   C     C_R   0.748481 0.754703 0.936903 0.555742
Cr1   Cr    Cr6+3 0.416430 0.829200 0.492370 1.092572
Cr2   Cr    Cr6+3 0.674630 0.087020 0.504170 1.034407
Cr3   Cr    Cr6+3 0.408920 0.083740 0.503490 1.077168
Cr4   Cr    Cr6+3 0.914010 0.832750 0.013970 1.041071
Cr5   Cr    Cr6+3 0.922310 0.578600 0.003000 1.038447
Cr6   Cr    Cr6+3 0.656280 0.574630 0.003870 1.040535
H1    H     H_    0.845202 0.358460 0.302093 0.117846
H2    H     H_    0.129260 0.070000 0.217805 0.136020
H3    H     H_    0.159303 0.082887 0.305948 0.121589
H4    H     H_    0.203613 0.009893 0.377829 0.131577
H5    H     H_    0.794135 0.988465 0.132422 0.131261
H6    H     H_    0.769574 0.050127 0.369240 0.144175
H7    H     H_    0.842226 0.114282 0.207298 0.110651
H8    H     H_    0.838414 0.134904 0.295412 0.110012
H9    H     H_    0.545881 0.622208 0.129983 0.147421
H10   H     H_    0.453472 0.539721 0.203612 0.154604
H11   H     H_    0.447460 0.558421 0.290884 0.174179
H12   H     H_    0.861234 0.384579 0.215024 0.114234
H13   H     H_    0.806265 0.323681 0.877356 0.176693
H14   H     H_    0.754531 0.209520 0.636645 0.146648
H15   H     H_    0.841116 0.207874 0.712598 0.151789
H16   H     H_    0.593366 0.487008 0.865000 0.140414
H17   H     H_    0.534206 0.515697 0.788084 0.126143
H18   H     H_    0.525404 0.488248 0.700865 0.177290
H19   H     H_    0.007725 0.682027 0.692138 0.120761
H20   H     H_    0.980088 0.664669 0.779460 0.115343
H21   H     H_    0.303379 0.990146 0.811795 0.122402
H22   H     H_    0.331419 0.007180 0.724456 0.120695
H23   H     H_    0.803198 0.763450 0.685166 0.127434
H24   H     H_    0.824966 0.736124 0.770780 0.115245
H25   H     H_    0.556454 0.827123 0.807187 0.125794
H26   H     H_    0.534617 0.854450 0.721909 0.116033
H27   H     H_    0.475599 0.259278 0.290339 0.147288
H28   H     H_    0.183902 0.683794 0.121864 0.134907
H29   H     H_    0.252837 0.710262 0.358380 0.161373
H30   H     H_    0.245258 0.624616 0.191534 0.115877
H31   H     H_    0.263067 0.629769 0.279479 0.125444
H32   H     H_    0.101738 0.962270 0.138178 0.140829
O1    O     O_R   0.296680 0.802170 0.437540 -0.507309
O2    O     O_R   0.662610 0.183990 0.557860 -0.517105
O3    O     O_R   0.500730 0.201280 0.562180 -0.453089
O4    O     O_R   0.312500 0.978850 0.548170 -0.491286
O5    O     O_3   0.499990 0.999990 0.500010 -0.272176
O6    O     O_R   0.820790 0.857990 0.068830 -0.513332
O7    O     O_R   0.016700 0.827330 0.062850 -0.500465
O8    O     O_R   0.041970 0.673520 0.060040 -0.514564
O9    O     O_R   0.817980 0.483660 0.048840 -0.495832
O10   O     O_R   0.637200 0.461990 0.052510 -0.490877
O11   O     O_R   0.664790 0.681920 0.057970 -0.497521
O12   O     O_R   0.525380 0.838530 0.443500 -0.450447
O13   O     O_R   0.815840 0.852920 0.961840 -0.486100
O14   O     O_R   0.012100 0.822630 0.963670 -0.508434
O15   O     O_R   0.037010 0.668460 0.953040 -0.498277
O16   O     O_R   0.813390 0.478970 0.949660 -0.496371
O17   O     O_R   0.632250 0.456930 0.945520 -0.520657
O18   O     O_R   0.660200 0.677230 0.958780 -0.496881
O19   O     O_3   0.830870 0.661990 0.006950 -0.276591
O20   O     O_R   0.702130 0.995190 0.446810 -0.527919
O21   O     O_R   0.661770 0.181390 0.458760 -0.503239
O22   O     O_R   0.499820 0.198480 0.455280 -0.486660
O23   O     O_R   0.311660 0.976250 0.449080 -0.503007
O24   O     O_R   0.297580 0.804960 0.544440 -0.499450
O25   O     O_R   0.526220 0.841130 0.542590 -0.478012
O26   O     O_R   0.703030 0.997990 0.553710 -0.512560
Br1   Br    Br    0.486757 0.623849 0.387237 -0.511181
Br2   Br    Br    0.893874 0.215070 0.815104 -0.523956
Br3   Br    Br    0.533867 0.426499 0.606337 -0.491523
Br4   Br    Br    0.428878 0.271579 0.187712 -0.573240

loop_
_geom_bond_atom_site_label_1
_geom_bond_atom_site_label_2
_ccdc_geom_bond_type
C39   H10   S    
C66   C68   A    
C84   O7    A    
Cr5   O15   S    
C64   H20   S    
Cr2   O20   S    
C35   C36   A    
C42   H9    S    
Cr6   O11   S    
C53   C54   A    
Cr6   O17   S    
C46   C49   A    
C33   C42   A    
C36   C37   A    
C25   H32   S    
C35   Br1   S    
Cr1   O25   S    
C29   C32   A    
Cr3   O5    S    
C52   C61   A    
Cr6   O10   S    
C38   C39   A    
C58   C60   A    
C15   C16   A    
C11   C24   A    
C16   C84   S    
C23   O1    A    
C74   H23   S    
C8    C85   S    
C23   C26   S    
C38   H11   S    
Cr6   O19   S    
C77   H26   S    
C11   C15   A    
C1    C43   S    
C84   O8    A    
Cr2   O5    S    
C3    H27   S    
C22   C25   A    
C86   O6    A    
C30   H7    S    
C88   O17   A    
C56   O24   A    
Cr3   O4    S    
C35   C43   A    
C75   C80   A    
C18   C20   A    
C49   H15   S    
C63   H19   S    
C40   C42   A    
C48   Br2   S    
Cr5   O16   S    
C21   C22   A    
Cr3   O22   S    
C4    C7    S    
C81   C83   T    
C44   C46   A    
C9    C26   A    
C50   C51   A    
C47   C50   A    
C54   C59   A    
C53   C55   A    
C78   C89   A    
C12   C67   S    
Cr5   O9    S    
C15   H28   S    
Cr4   O14   S    
C12   O22   A    
Cr5   O19   S    
C76   C77   A    
C10   C14   A    
C39   C40   A    
C18   C19   A    
C57   H17   S    
C58   C59   A    
C47   C59   A    
C50   H13   S    
C9    H29   S    
C14   H31   S    
Cr1   O12   S    
Cr2   O2    S    
C33   C86   S    
C4    C78   A    
C29   C30   A    
C60   H16   S    
C47   C48   A    
Cr1   O5    S    
C10   C19   A    
C2    Br4   S    
C46   C54   A    
C78   H1    S    
C17   C18   A    
C77   C79   A    
C64   C69   A    
C20   C21   A    
C56   O4    A    
C1    O12   A    
C86   O11   A    
C13   H30   S    
C40   C41   A    
C45   O3    A    
C34   O26   A    
C74   C79   A    
C55   C57   A    
C22   C24   A    
Cr3   O23   S    
C2    C5    A    
C76   C80   A    
C76   H25   S    
C3    C4    A    
C85   O9    A    
C73   C82   T    
Cr2   O21   S    
C72   C87   S    
C52   C53   A    
C9    C10   A    
C34   O25   A    
C16   C25   A    
C83   C90   S    
C23   O23   A    
C63   C68   A    
C48   C49   A    
C29   C41   A    
Cr4   O13   S    
C12   O21   A    
C28   C31   A    
C75   H24   S    
Cr4   O19   S    
C80   C81   S    
Cr2   O26   S    
C51   C88   S    
C79   C82   S    
C6    C8    T    
Cr1   O1    S    
C55   H18   S    
C44   C61   A    
Cr6   O18   S    
C27   H6    S    
Cr4   O7    S    
C32   C33   A    
C36   C38   A    
C19   C24   A    
C90   O18   A    
Cr3   O3    S    
C31   H8    S    
C21   H2    S    
C11   C13   A    
C30   C31   A    
C57   C58   A    
C5    C6    S    
C20   H3    S    
C28   C37   A    
C68   C71   S    
C65   C69   A    
C89   H12   S    
C45   C61   S    
Cr5   O8    S    
Cr4   O6    S    
C17   C26   A    
C62   C71   T    
C2    C3    A    
C56   C62   S    
C87   O14   A    
C37   C41   A    
C69   C70   S    
C17   H4    S    
C90   O13   A    
C34   C73   S    
C7    C67   T    
C63   C64   A    
C27   C43   A    
C45   O2    A    
C52   Br3   S    
C74   C75   A    
C65   C66   A    
C66   H22   S    
C27   C28   A    
C65   H21   S    
C32   H5    S    
C1    O20   A    
C70   C72   T    
C51   C60   A    
C87   O15   A    
Cr1   O24   S    
C13   C14   A    
C85   O10   A    
C88   O16   A    
C5    C89   A    
C44   H14   S    
