data_mof_unit_16825.cif
_audit_creation_date              2012-12-10T17:29:18-0500
_audit_creation_method            fapswitch 2.2
_symmetry_space_group_name_H-M    P1
_symmetry_Int_Tables_number       1
_space_group_crystal_system       triclinic
_cell_length_a                    12.080158
_cell_length_b                    12.833555
_cell_length_c                    13.182096
_cell_angle_alpha                 86.226866
_cell_angle_beta                  113.816243
_cell_angle_gamma                 93.813794
_cell_volume                      1863.77377955

loop_
_atom_site_label
_atom_site_type_symbol
_atom_type_description
_atom_site_fract_x
_atom_site_fract_y
_atom_site_fract_z
_atom_type_partial_charge
C1    C     C_R   0.476727 0.299570 0.497804 0.887442
C2    C     C_R   0.517603 0.447017 0.963606 0.079936
C3    C     C_R   0.539017 0.507656 0.880073 0.017335
C4    C     C_R   0.451230 0.490486 0.016704 0.019145
C5    C     C_R   0.379626 0.578188 0.963902 0.007197
C6    C     C_R   0.396433 0.635593 0.875808 0.225776
C7    C     C_R   0.485725 0.604862 0.843586 -0.219474
C8    C     C_R   0.460136 0.455448 0.123925 0.110259
C9    C     C_R   0.296489 0.568043 0.103792 0.186271
C10   C     C_R   0.602653 0.465660 0.824835 -0.146661
C11   C     C_R   0.539251 0.811509 0.504799 -0.045651
C12   C     C_R   0.566608 0.493997 0.708060 0.864917
C13   C     C_R   0.460036 0.188045 0.492011 -0.093292
C14   C     C_R   0.340749 0.033027 0.412589 -0.287296
C15   C     C_R   0.347288 0.139845 0.426861 0.199025
C16   C     C_R   0.563139 0.129968 0.544951 -0.341968
C17   C     C_R   0.556644 0.024138 0.530663 0.196143
C18   C     C_R   0.444577 0.975666 0.463881 0.151654
C19   C     C_R   0.437417 0.869861 0.450503 -0.273928
C20   C     C_R   0.651804 0.859055 0.568061 -0.213879
C21   C     C_R   0.660516 0.966019 0.581201 -0.212565
C22   C     C_R   0.029633 0.625802 0.439091 -0.329354
C23   C     C_R   0.523084 0.700292 0.501582 0.877141
C24   C     C_R   0.139487 0.608117 0.430326 0.378729
C25   C     C_R   0.150038 0.444618 0.528640 -0.082482
C26   C     C_R   0.032384 0.455442 0.526699 0.063294
C27   C     C_R   0.971700 0.548113 0.482025 -0.016632
C28   C     C_R   0.853421 0.559839 0.479448 0.299750
C29   C     C_R   0.857758 0.390646 0.564836 -0.054143
C30   C     C_R   0.974654 0.376916 0.569596 -0.318808
C31   C     C_R   0.432470 0.500452 0.291321 0.886859
C32   C     C_R   0.295929 0.609356 0.003506 -0.266944
C33   C     C_R   0.389891 0.502409 0.170258 -0.172033
C34   C     C_R   0.658517 0.370295 0.861756 -0.207017
C35   C     C_R   0.631246 0.306268 0.938940 0.253164
C36   C     C_R   0.555843 0.342863 0.984888 -0.233304
H1    H     H_    0.708950 0.339458 0.819447 0.152946
N1    N     N_R   0.798200 0.480260 0.519790 -0.113682
N2    N     N_R   0.201820 0.519740 0.480210 -0.132834
O1    O     O_R   0.579910 0.341070 0.505280 -0.639620
O2    O     O_R   0.388440 0.353740 0.492580 -0.591261
O3    O     O_R   0.643280 0.490550 0.663120 -0.618876
O4    O     O_R   0.451810 0.503220 0.650420 -0.600521
O5    O     O_R   0.611560 0.646260 0.507420 -0.588165
O6    O     O_R   0.420090 0.658930 0.494720 -0.631523
O7    O     O_R   0.548190 0.496780 0.349580 -0.600102
O8    O     O_R   0.356720 0.509450 0.336880 -0.611845
Zn1   Zn    Zn3+2 0.627850 0.491540 0.508480 0.938399
Zn2   Zn    Zn3+2 0.372150 0.508460 0.491520 0.945713
N3    N     N_2   0.209178 0.599880 0.141036 -0.306607
H2    H     H_    0.176242 0.672686 0.110358 0.219426
C37   C     C_3   0.112920 0.521978 0.129161 -0.753232
H3    H     H_    0.058338 0.508253 0.039894 0.231436
H4    H     H_    0.052719 0.549685 0.165938 0.235098
H5    H     H_    0.150486 0.447157 0.172959 0.255432
H6    H     H_    0.731067 0.813227 0.610256 0.151993
H7    H     H_    0.254966 0.995248 0.361279 0.148403
H8    H     H_    0.747099 0.002778 0.631939 0.134869
N4    N     N_2   0.242540 0.198976 0.370856 -0.289969
H9    H     H_    0.201291 0.186084 0.287066 0.214337
C38   C     C_3   0.156862 0.189128 0.422521 -0.762242
H10   H     H_    0.085444 0.246583 0.382281 0.236343
H11   H     H_    0.203012 0.204787 0.512240 0.241076
H12   H     H_    0.113504 0.109168 0.413024 0.222712
H13   H     H_    0.649274 0.167731 0.595742 0.152726
N5    N     N_2   0.794521 0.656057 0.441842 -0.265486
H14   H     H_    0.846200 0.719844 0.482133 0.198174
C39   C     C_3   0.735336 0.675100 0.322729 -0.766851
H15   H     H_    0.668163 0.611924 0.283667 0.273510
H16   H     H_    0.801153 0.681571 0.283362 0.210770
H17   H     H_    0.687031 0.749156 0.304969 0.233838
H18   H     H_    0.814481 0.328654 0.597215 0.144348
H19   H     H_    0.988108 0.699546 0.409666 0.172167
H20   H     H_    0.018899 0.304667 0.605500 0.149241
N6    N     N_2   0.185621 0.681156 0.368791 -0.287008
H21   H     H_    0.235396 0.647864 0.333562 0.293081
C40   C     C_3   0.109294 0.761292 0.296327 -0.920214
H22   H     H_    0.156299 0.803694 0.247830 0.238486
H23   H     H_    0.091674 0.819564 0.346051 0.254679
H24   H     H_    0.022943 0.725664 0.236881 0.252463
N7    N     N_2   0.324729 0.723911 0.822726 -0.308836
H25   H     H_    0.232616 0.707264 0.791688 0.219487
C41   C     C_3   0.360857 0.797168 0.752084 -0.783717
H26   H     H_    0.302687 0.865624 0.729307 0.237375
H27   H     H_    0.349322 0.759949 0.674428 0.254874
H28   H     H_    0.456255 0.825866 0.796735 0.244621
H29   H     H_    0.200143 0.376240 0.568925 0.140370
H30   H     H_    0.232538 0.669074 0.959741 0.146253
N8    N     N_2   0.543367 0.377942 0.188664 -0.316610
H31   H     H_    0.519063 0.330333 0.243176 0.224370
C42   C     C_3   0.672390 0.402518 0.224773 -0.722271
H32   H     H_    0.716008 0.336721 0.206986 0.224670
H33   H     H_    0.714353 0.411919 0.315464 0.258424
H34   H     H_    0.691211 0.474777 0.182156 0.235614
H35   H     H_    0.524004 0.287314 0.033271 0.165103
N9    N     N_2   0.673919 0.202997 0.966015 -0.309235
H36   H     H_    0.669990 0.169970 0.038069 0.219838
C43   C     C_3   0.626851 0.132355 0.875392 -0.795528
H37   H     H_    0.665798 0.054530 0.904733 0.239066
H38   H     H_    0.652132 0.161436 0.806109 0.239602
H39   H     H_    0.526612 0.123191 0.844782 0.241586
H40   H     H_    0.507211 0.652189 0.782490 0.153746
H41   H     H_    0.351881 0.832389 0.399627 0.180962

loop_
_geom_bond_atom_site_label_1
_geom_bond_atom_site_label_2
_ccdc_geom_bond_type
N5    C39   S    
C23   O6    A    
C34   H1    S    
C14   C18   A    
C2    C4    A    
C35   C36   A    
C4    C8    A    
N7    H25   S    
O8    Zn2   S    
C35   N9    S    
C11   C19   A    
C26   C27   A    
C18   C19   A    
C12   O4    A    
C3    C7    A    
C5    C6    A    
C30   H20   S    
C32   H30   S    
C25   H29   S    
C24   N2    A    
C34   C35   A    
C38   H11   S    
C12   O3    A    
C9    C32   A    
C19   H41   S    
C16   C17   A    
C7    H40   S    
N9    C43   S    
C29   N1    A    
N3    C37   S    
C31   C33   S    
O6    Zn2   S    
N8    C42   S    
N1    Zn1   S    
C1    O1    A    
C37   H5    S    
C20   H6    S    
C5    C32   A    
N5    H14   S    
N4    H9    S    
C6    N7    S    
C31   O8    A    
C9    C33   A    
O2    Zn2   S    
N7    C41   S    
C37   H4    S    
N3    H2    S    
C40   H23   S    
O7    Zn1   S    
C11   C20   A    
N4    C38   S    
C42   H32   S    
C39   H15   S    
C25   C26   A    
C40   H22   S    
C31   O7    A    
C17   C21   A    
C23   O5    A    
C38   H12   S    
C28   N5    S    
N6    H21   S    
C29   C30   A    
C42   H33   S    
C41   H26   S    
C28   N1    A    
N9    H36   S    
C17   C18   A    
C10   C34   A    
O3    Zn1   S    
N6    C40   S    
C10   C12   S    
C1    O2    A    
C41   H27   S    
C26   C30   A    
C43   H38   S    
C22   C27   A    
C13   C15   A    
C22   C24   A    
C1    C13   S    
C37   H3    S    
C40   H24   S    
C2    C36   A    
O1    Zn1   S    
C14   H7    S    
N2    Zn2   S    
C15   N4    S    
O4    Zn2   S    
C9    N3    S    
C4    C5    A    
C24   N6    S    
C6    C7    A    
C16   H13   S    
C43   H39   S    
C29   H18   S    
C2    C3    A    
C21   H8    S    
C3    C10   A    
C25   N2    A    
C42   H34   S    
C36   H35   S    
C39   H17   S    
C11   C23   S    
C8    C33   A    
C38   H10   S    
C41   H28   S    
C20   C21   A    
C39   H16   S    
C43   H37   S    
C13   C16   A    
C27   C28   A    
C14   C15   A    
C8    N8    S    
C22   H19   S    
N8    H31   S    
O5    Zn1   S    
