data_mof_unit_45549.cif
_audit_creation_date              2013-03-05T15:53:43-0500
_audit_creation_method            fapswitch 2.2
_symmetry_space_group_name_H-M    P1
_symmetry_Int_Tables_number       1
_space_group_crystal_system       triclinic
_cell_length_a                    14.890081
_cell_length_b                    14.785871
_cell_length_c                    17.086478
_cell_angle_alpha                 109.488336
_cell_angle_beta                  106.38903
_cell_angle_gamma                 107.802023
_cell_volume                      3051.6119165

loop_
_atom_site_label
_atom_site_type_symbol
_atom_site_description
_atom_site_fract_x
_atom_site_fract_y
_atom_site_fract_z
_atom_type_partial_charge
C1    C     C_R   0.088802 0.272875 0.044872 -0.117373
H1    H     H_    0.167591 0.287581 0.080086 0.172514
N1    N     N_R   0.055640 0.348550 0.045600 -0.047821
C2    C     C_R   0.932457 0.530222 0.754195 0.216532
N2    N     N_R   0.960830 0.507850 0.823710 -0.079473
C3    C     C_R   0.765188 0.199810 0.809939 -0.127080
H2    H     H_    0.741524 0.133594 0.824566 0.118067
N3    N     N_R   0.811290 0.303400 0.871650 -0.049792
C4    C     C_R   0.262812 0.537252 0.952698 -0.131551
H3    H     H_    0.274286 0.568674 0.906098 0.148435
N4    N     N_R   0.205180 0.552990 0.997660 -0.062594
C5    C     C_R   0.779121 0.296791 0.734574 -0.069840
H4    H     H_    0.777724 0.323150 0.682774 0.140337
N5    N     N_R   0.814810 0.361830 0.823710 -0.037286
C6    C     C_R   0.270629 0.454338 0.040695 0.259810
N6    N     N_R   0.201660 0.494570 0.045600 -0.064778
C7    C     C_R   0.105278 0.613351 0.828218 0.253299
N7    N     N_R   0.068420 0.560530 0.871650 -0.068908
C8    C     C_R   0.916511 0.190966 0.970785 -0.095216
H5    H     H_    0.836677 0.133832 0.939740 0.154719
N8    N     N_R   0.948050 0.295860 0.997660 -0.053751
C9    C     C_R   0.003179 0.171709 0.994322 0.103792
C10   C     C_R   0.021305 0.593181 0.751791 -0.014147
C11   C     C_R   0.749587 0.193306 0.723724 0.069110
C12   C     C_R   0.303048 0.472931 0.976195 0.029001
C13   C     C_R   0.276550 0.685033 0.249260 -0.090581
H6    H     H_    0.301759 0.644224 0.285807 0.134466
N9    N     N_R   0.185190 0.638170 0.176290 -0.046490
C14   C     C_R   0.703993 0.498122 0.915506 -0.085174
H7    H     H_    0.682354 0.523069 0.863378 0.172194
N10   N     N_R   0.798340 0.505430 0.954400 -0.047482
C15   C     C_R   0.887395 0.458964 0.185341 -0.162349
H8    H     H_    0.804474 0.430984 0.164167 0.121685
N11   N     N_R   0.931580 0.439470 0.128350 -0.055170
C16   C     C_R   0.077553 0.809927 0.036564 0.252698
N12   N     N_R   0.051950 0.704140 0.002340 -0.062807
C17   C     C_R   0.905632 0.723012 0.961963 -0.131152
H9    H     H_    0.823906 0.703529 0.930109 0.173950
N13   N     N_R   0.944360 0.651450 0.954400 -0.057640
C18   C     C_R   0.061110 0.536963 0.266304 0.268287
N14   N     N_R   0.039170 0.492150 0.176290 -0.055251
C19   C     C_R   0.284566 0.779283 0.173481 -0.121725
H10   H     H_    0.318488 0.825333 0.143181 0.118409
N15   N     N_R   0.188710 0.696600 0.128350 -0.044292
C20   C     C_R   0.696556 0.403380 0.992170 -0.129540
H11   H     H_    0.668917 0.344138 0.014077 0.123767
N16   N     N_R   0.794820 0.447010 0.002340 -0.049545
Ni1   Ni    Ni4+2 0.119330 0.493420 0.109950 0.251771
Ni2   Ni    Ni4+2 0.880670 0.506580 0.890050 0.269264
Ni3   Ni    Ni4+2 0.872590 0.372590 0.000000 0.231883
Ni4   Ni    Ni4+2 0.127410 0.627410 0.000000 0.213194
C21   C     C_R   0.341229 0.774684 0.250141 0.081324
C22   C     C_R   0.636960 0.431289 0.934824 0.078276
C23   C     C_R   0.966240 0.521101 0.273189 0.046113
C24   C     C_R   0.987576 0.824941 0.014004 0.094722
C25   C     C_R   0.414644 0.486445 0.894495 -0.014842
C26   C     C_R   0.370774 0.437788 0.940762 0.096372
C27   C     C_R   0.387963 0.351817 0.946498 -0.130287
H12   H     H_    0.344692 0.304220 0.971056 0.164578
C28   C     C_R   0.461008 0.326584 0.919590 0.212356
C29   C     C_R   0.524414 0.396103 0.896590 0.002552
C30   C     C_R   0.492687 0.467195 0.873599 -0.018791
C31   C     C_3   0.442041 0.452122 0.777901 0.123318
C32   C     C_3   0.358192 0.474390 0.801030 0.074110
H13   H     H_    0.414928 0.369472 0.724316 0.160321
H14   H     H_    0.358183 0.550555 0.803742 0.156096
C33   C     C_R   0.947949 0.551312 0.355778 0.056166
C34   C     C_R   0.019489 0.625216 0.678375 0.099994
C35   C     C_R   0.103135 0.720564 0.607679 0.334734
C36   C     C_R   0.102308 0.710263 0.685868 -0.234164
C37   C     C_R   0.932874 0.558804 0.593723 -0.171907
C38   C     C_R   0.929199 0.570490 0.516131 0.080321
C39   C     C_R   0.019145 0.645926 0.521215 0.017696
C40   C     C_R   0.026045 0.637307 0.439420 -0.189687
C41   C     C_R   0.852679 0.489229 0.351606 -0.139676
C42   C     C_R   0.841232 0.500200 0.431431 0.218565
H15   H     H_    0.095122 0.690944 0.440615 0.186723
H16   H     H_    0.788893 0.426745 0.286877 0.136255
H17   H     H_    0.168360 0.767133 0.750284 0.196599
H18   H     H_    0.872106 0.489281 0.585437 0.177035
C43   C     C_R   0.707494 0.095556 0.637250 0.052961
C44   C     C_R   0.451275 0.844615 0.315556 0.051746
C45   C     C_R   0.597406 0.019472 0.388477 0.350533
C46   C     C_R   0.507688 0.937051 0.311963 -0.207745
C47   C     C_R   0.494914 0.827786 0.390488 -0.161156
C48   C     C_R   0.580254 0.911744 0.470042 0.005359
C49   C     C_R   0.627428 0.011232 0.470828 0.025909
C50   C     C_R   0.693645 0.102043 0.555018 -0.171308
C51   C     C_R   0.673566 0.994847 0.635041 -0.207366
C52   C     C_R   0.611268 0.902574 0.551847 0.344203
H19   H     H_    0.725438 0.178936 0.556528 0.168306
H20   H     H_    0.689994 0.987050 0.697595 0.170314
H21   H     H_    0.478991 0.949194 0.252558 0.166464
H22   H     H_    0.455240 0.754278 0.391605 0.173129
C53   C     C_R   0.097430 0.060557 0.956859 0.076718
C54   C     C_R   0.005371 0.065613 0.958722 -0.044144
C55   C     C_R   0.914478 0.965238 0.912276 0.281409
C56   C     C_R   0.914090 0.873164 0.850313 -0.219533
H23   H     H_    0.842963 0.799133 0.809743 0.221251
C57   C     C_R   0.004491 0.876395 0.839134 0.033334
C58   C     C_R   0.097010 0.968124 0.899952 0.065055
C59   C     C_3   0.185373 0.027201 0.884742 0.205190
C60   C     C_3   0.185598 0.129373 0.946327 -0.582513
H24   H     H_    0.163417 0.012004 0.812138 0.132839
H25   H     H_    0.256458 0.179667 0.012692 0.253167
H26   H     H_    0.161844 0.173017 0.908922 0.193055
C61   C     C_3   0.184653 0.899534 0.082547 -0.918988
H27   H     H_    0.180965 0.971608 0.078090 0.265843
H28   H     H_    0.220008 0.921342 0.156485 0.251278
H29   H     H_    0.233029 0.877532 0.048113 0.263376
C62   C     C_3   0.160888 0.562832 0.341131 -0.929894
H30   H     H_    0.210797 0.650442 0.378926 0.252620
H31   H     H_    0.144330 0.534164 0.390164 0.268566
H32   H     H_    0.202312 0.520319 0.311633 0.260466
C63   C     C_3   0.467054 0.225096 0.913422 -0.835383
H33   H     H_    0.520340 0.209097 0.882502 0.240737
H34   H     H_    0.493032 0.229106 0.982635 0.265114
H35   H     H_    0.388531 0.156977 0.867794 0.284859
Br1   Br    Br    0.526353 0.563091 0.757020 -0.412857
Br2   Br    Br    0.800061 0.534628 0.712681 -0.567318
Br3   Br    Br    0.221143 0.351705 0.727411 -0.511603
Br4   Br    Br    0.223835 0.833428 0.622930 -0.492215
C64   C     C_3   0.736813 0.433623 0.424418 -0.800208
H36   H     H_    0.675015 0.391383 0.352923 0.255898
H37   H     H_    0.741918 0.372550 0.446827 0.272381
H38   H     H_    0.712519 0.486086 0.468387 0.269503
Br5   Br    Br    0.667815 0.144694 0.378526 -0.547214
Br6   Br    Br    0.562050 0.768747 0.556264 -0.433026
Br7   Br    Br    0.790841 0.943447 0.932445 -0.499204
Br8   Br    Br    0.307771 0.009574 0.940105 -0.555394
Br9   Br    Br    0.354278 0.441344 0.140952 -0.591589
C65   C     C_3   0.209946 0.707978 0.876405 -0.951148
H39   H     H_    0.255998 0.697897 0.835941 0.270194
H40   H     H_    0.199277 0.781374 0.887499 0.272877
H41   H     H_    0.253809 0.719331 0.945911 0.241901

loop_
_geom_bond_atom_site_label_1
_geom_bond_atom_site_label_2
_geom_bond_distance
_ccdc_geom_bond_type
C45   C49   1.409724 A    
C49   C50   1.394881 A    
C31   H13   1.112589 S    
C58   C59   1.484365 S    
C39   C40   1.396506 A    
C53   C54   1.404035 A    
C11   C43   1.470888 S    
N6    Ni1   1.863442 S    
C55   C56   1.415758 A    
C60   H26   1.112298 S    
C4    C12   1.375514 A    
C64   H36   1.110993 S    
C47   C48   1.392223 A    
C13   H6    1.073569 S    
C7    C10   1.395843 A    
C12   C26   1.452089 S    
C8    N8    1.339630 A    
C17   H9    1.080438 S    
C34   C37   1.394602 A    
C6    C12   1.394407 A    
N5    Ni2   1.816008 S    
C27   C28   1.396223 A    
C6    N6    1.343271 A    
N1    Ni1   1.815102 S    
C25   C26   1.397420 A    
C1    H1    1.069599 S    
N4    N6    1.374226 A    
C37   H18   1.075797 S    
C22   C29   1.458803 S    
C16   N12   1.353938 A    
C65   H39   1.109824 S    
C63   H34   1.110288 S    
C40   H15   1.079766 S    
C61   H27   1.109974 S    
C25   C32   1.499871 S    
C35   C39   1.410736 A    
C13   N9    1.332400 A    
C18   C62   1.497508 S    
C4    H3    1.074288 S    
C38   C42   1.408745 A    
C43   C51   1.402045 A    
C20   C22   1.385951 A    
C1    C9    1.399783 A    
N10   N16   1.374225 A    
C7    C65   1.496107 S    
C61   H28   1.107361 S    
N2    Ni2   1.863828 S    
C29   C30   1.398888 A    
N11   N14   1.383804 A    
C19   N15   1.345124 A    
N10   Ni2   1.863445 S    
C32   Br3   1.950055 S    
C15   C23   1.378881 A    
N8    Ni3   1.823668 S    
C53   C60   1.493295 S    
N7    Ni4   1.869153 S    
N16   Ni3   1.824629 S    
C20   N16   1.338564 A    
C17   N13   1.338938 A    
N11   Ni3   1.869150 S    
C16   C24   1.392969 A    
C59   C60   1.524382 S    
C43   C50   1.401580 A    
C16   C61   1.490744 S    
C8    C9    1.384326 A    
N4    Ni4   1.824630 S    
C62   H31   1.109962 S    
C48   C52   1.409195 A    
C2    C10   1.386224 A    
C48   C49   1.416749 A    
C2    N2    1.327825 A    
C64   H38   1.110444 S    
C3    N3    1.341667 A    
N2    N7    1.383804 A    
C27   H12   1.076493 S    
C20   H11   1.077976 S    
N9    N15   1.374344 A    
C28   C29   1.409922 A    
C1    N1    1.352022 A    
C15   N11   1.324545 A    
C10   C34   1.477772 S    
C21   C44   1.470631 S    
C41   C42   1.384246 A    
C14   H7    1.078490 S    
C13   C21   1.372145 A    
C31   Br1   1.944062 S    
C47   H22   1.076231 S    
C45   C46   1.391001 A    
C50   H19   1.077871 S    
C63   H35   1.109471 S    
C3    C11   1.389938 A    
C54   C55   1.429673 A    
C30   C31   1.500095 S    
C7    N7    1.347720 A    
C60   H25   1.111091 S    
C33   C40   1.398945 A    
C51   H20   1.080491 S    
C59   H24   1.112008 S    
C4    N4    1.324997 A    
N12   Ni4   1.823668 S    
N15   Ni4   1.868593 S    
C65   H40   1.106361 S    
C18   N14   1.347373 A    
N13   Ni2   1.815101 S    
C5    N5    1.334291 A    
C18   C23   1.404970 A    
C61   H29   1.107054 S    
C25   C30   1.388332 A    
N1    N8    1.383806 A    
C33   C41   1.401114 A    
C19   H10   1.076690 S    
N3    Ni3   1.868596 S    
N9    Ni1   1.816006 S    
N3    N5    1.374345 A    
C62   H30   1.108927 S    
C36   H17   1.073185 S    
C42   C64   1.510337 S    
C9    C54   1.495930 S    
N12   N13   1.383807 A    
C59   Br8   1.940728 S    
C45   Br5   1.918295 S    
C38   C39   1.414787 A    
C3    H2    1.071077 S    
C23   C33   1.461431 S    
C44   C47   1.401888 A    
C5    C11   1.386473 A    
C44   C46   1.400175 A    
C15   H8    1.078069 S    
C8    H5    1.067354 S    
C55   Br7   1.918631 S    
C37   C38   1.381387 A    
C14   N10   1.326389 A    
C26   C27   1.399589 A    
C14   C22   1.371924 A    
C35   Br4   1.922101 S    
C65   H41   1.107886 S    
C57   C58   1.387979 A    
N14   Ni1   1.863830 S    
C62   H32   1.109373 S    
C46   H21   1.081132 S    
C35   C36   1.397162 A    
C41   H16   1.080628 S    
C56   C57   1.400921 A    
C64   H37   1.106369 S    
C31   C32   1.505447 S    
C17   C24   1.385634 A    
C53   C58   1.384924 A    
C6    Br9   1.919544 S    
C5    H4    1.077228 S    
C34   C36   1.404880 A    
C56   H23   1.082090 S    
C19   C21   1.379508 A    
C52   Br6   1.924164 S    
C2    Br2   1.927187 S    
C28   C63   1.501147 S    
C51   C52   1.389443 A    
C63   H33   1.110198 S    
C32   H14   1.111616 S    
