data_mof_unit_67622.cif
_audit_creation_date              2012-12-10T18:19:55-0500
_audit_creation_method            fapswitch 2.2
_symmetry_space_group_name_H-M    P1
_symmetry_Int_Tables_number       1
_space_group_crystal_system       triclinic
_cell_length_a                    10.644279
_cell_length_b                    10.642479
_cell_length_c                    9.428673
_cell_angle_alpha                 90.902706
_cell_angle_beta                  90.661037
_cell_angle_gamma                 90.743192
_cell_volume                      1067.79832424

loop_
_atom_site_label
_atom_site_type_symbol
_atom_type_description
_atom_site_fract_x
_atom_site_fract_y
_atom_site_fract_z
_atom_type_partial_charge
C1    C     C_R   0.501284 0.259627 0.499142 0.796427
C2    C     C_R   0.498716 0.740373 0.500858 0.796427
C3    C     C_3   0.430819 0.961932 0.607381 0.043765
C4    C     C_3   0.569181 0.038068 0.392619 0.043764
C5    C     C_3   0.576641 0.582863 0.052048 0.101822
C6    C     C_3   0.423359 0.417137 0.947952 0.101822
C7    C     C_3   0.466888 0.608626 0.950833 -0.092435
C8    C     C_3   0.533112 0.391373 0.049167 -0.092435
C9    C     C_3   0.611151 0.475551 0.950452 -0.086424
C10   C     C_3   0.388849 0.524449 0.049548 -0.086424
C11   C     C_R   0.259830 0.496302 0.499047 0.793944
C12   C     C_R   0.740170 0.503698 0.500953 0.793944
C13   C     C_3   0.043643 0.460955 0.627050 -0.242134
C14   C     C_3   0.956357 0.539045 0.372950 -0.242134
C15   C     C_3   0.953117 0.386756 0.526435 -0.015012
C16   C     C_3   0.046883 0.613244 0.473565 -0.015012
C17   C     C_3   0.876589 0.505686 0.503173 -0.084333
C18   C     C_3   0.123411 0.494314 0.496827 -0.084333
C19   C     C_3   0.966311 0.581162 0.602529 0.008084
C20   C     C_3   0.033689 0.418838 0.397471 0.008084
C21   C     C_3   0.549687 0.045097 0.623184 -0.182282
C22   C     C_3   0.450313 0.954903 0.376816 -0.182283
C23   C     C_3   0.618489 0.958715 0.515759 -0.210281
C24   C     C_3   0.381511 0.041285 0.484241 -0.210281
C25   C     C_3   0.498629 0.877029 0.501872 -0.043104
C26   C     C_3   0.501371 0.122971 0.498129 -0.043104
Cu1   Cu    Cu3+1 0.500030 0.499990 0.643150 0.950151
Cu2   Cu    Cu3+1 0.499970 0.500010 0.356850 0.950151
H1    H     H_    0.079737 0.426721 0.730236 0.163166
H2    H     H_    0.920263 0.573280 0.269764 0.163166
H3    H     H_    0.716419 0.925494 0.524860 0.159766
H4    H     H_    0.283581 0.074506 0.475140 0.159766
H5    H     H_    0.589634 0.083797 0.724313 0.153140
H6    H     H_    0.410366 0.916203 0.275687 0.153140
H7    H     H_    0.440867 0.700099 0.905115 0.147356
H8    H     H_    0.559133 0.299901 0.094885 0.147356
H9    H     H_    0.704622 0.455868 0.904619 0.132340
H10   H     H_    0.295378 0.544132 0.095381 0.132340
N1    N     N_3   0.500090 0.499970 0.858290 -0.174909
N2    N     N_3   0.499910 0.500030 0.141710 -0.174909
O1    O     O_R   0.500060 0.316850 0.620870 -0.572278
O2    O     O_R   0.499940 0.683150 0.379130 -0.572278
O3    O     O_R   0.500000 0.316860 0.379090 -0.595237
O4    O     O_R   0.500000 0.683140 0.620910 -0.595237
O5    O     O_R   0.316880 0.499960 0.620870 -0.578097
O6    O     O_R   0.683120 0.500040 0.379130 -0.578097
O7    O     O_R   0.316830 0.499970 0.379090 -0.589674
O8    O     O_R   0.683170 0.500030 0.620910 -0.589674
C27   C     C_1   0.900782 0.262024 0.557784 0.238079
N3    N     N_1   0.859747 0.163739 0.582653 -0.301654
C28   C     C_1   0.099218 0.737976 0.442216 0.238079
N4    N     N_1   0.140253 0.836261 0.417347 -0.301654
C29   C     C_R   0.938835 0.675649 0.718465 0.101490
C30   C     C_R   0.027602 0.698410 0.827744 -0.133757
C31   C     C_R   0.006097 0.790389 0.931868 -0.119600
C32   C     C_R   0.896669 0.861257 0.926846 -0.087355
C33   C     C_R   0.807931 0.839205 0.818720 -0.130404
C34   C     C_R   0.829249 0.747336 0.714411 -0.120548
H11   H     H_    0.114122 0.646077 0.831700 0.137250
H12   H     H_    0.074759 0.807403 0.015807 0.144430
H13   H     H_    0.880391 0.932882 0.007050 0.159123
H14   H     H_    0.722940 0.893789 0.815345 0.135504
H15   H     H_    0.761211 0.733673 0.629737 0.120522
C35   C     C_R   0.061165 0.324351 0.281535 0.101491
C36   C     C_R   0.972398 0.301590 0.172255 -0.133757
C37   C     C_R   0.993903 0.209611 0.068132 -0.119600
C38   C     C_R   0.103331 0.138743 0.073154 -0.087354
C39   C     C_R   0.192069 0.160794 0.181280 -0.130404
C40   C     C_R   0.170750 0.252664 0.285589 -0.120548
H16   H     H_    0.885878 0.353923 0.168299 0.137250
H17   H     H_    0.925241 0.192598 0.984193 0.144430
H18   H     H_    0.119609 0.067118 0.992950 0.159122
H19   H     H_    0.277060 0.106211 0.184656 0.135504
H20   H     H_    0.238789 0.266327 0.370263 0.120522
C41   C     C_1   0.352733 0.921347 0.725745 0.259850
N5    N     N_1   0.290765 0.890018 0.819094 -0.332638
C42   C     C_1   0.647267 0.078653 0.274255 0.259850
N6    N     N_1   0.709235 0.109982 0.180906 -0.332637
C43   C     C_1   0.662323 0.676891 0.116648 0.257462
N7    N     N_1   0.729335 0.750939 0.168989 -0.311516
C44   C     C_1   0.337677 0.323109 0.883352 0.257462
N8    N     N_1   0.270665 0.249061 0.831010 -0.311515

loop_
_geom_bond_atom_site_label_1
_geom_bond_atom_site_label_2
_ccdc_geom_bond_type
Cu1   O8    S    
C7    C10   S    
C21   C26   S    
Cu2   O7    S    
C11   O7    A    
C16   C28   S    
C12   O8    A    
C44   N8    T    
C33   H14   S    
C11   C18   S    
C29   C30   A    
Cu2   O6    S    
C13   C18   S    
C22   C24   S    
C13   H1    S    
C24   C26   S    
C21   H5    S    
Cu2   N2    S    
C36   H16   S    
C9    N1    S    
C32   C33   A    
C10   N2    S    
C38   H18   S    
C8    H8    S    
Cu1   O4    S    
C1    O3    A    
C2    O4    A    
C8    C9    S    
C22   C25   S    
C12   C17   S    
C5    C43   S    
C3    C41   S    
C19   C29   S    
C23   C25   S    
C37   C38   A    
C6    C44   S    
C31   H12   S    
C14   C17   S    
C3    C24   S    
C14   H2    S    
C30   H11   S    
C15   C20   S    
C22   H6    S    
C13   C19   S    
C28   N4    T    
C14   C20   S    
C3    C25   S    
C12   O6    A    
Cu1   N1    S    
C5    C7    S    
C4    C23   S    
C39   C40   A    
C6    C8    S    
C39   H19   S    
C42   N6    T    
C38   C39   A    
C23   H3    S    
C20   C35   S    
C41   N5    T    
C24   H4    S    
C5    C9    S    
C4    C22   S    
Cu1   O1    S    
C37   H17   S    
C31   C32   A    
C9    H9    S    
C40   H20   S    
C35   C40   A    
C1    O1    A    
C36   C37   A    
C13   C15   S    
C1    C26   S    
C14   C16   S    
C3    C21   S    
C34   H15   S    
C15   C17   S    
C30   C31   A    
C32   H13   S    
C7    H7    S    
C6    C10   S    
C4    C26   S    
C29   C34   A    
Cu2   O3    S    
C10   H10   S    
C35   C36   A    
C21   C23   S    
C4    C42   S    
Cu1   O5    S    
C33   C34   A    
C2    O2    A    
C16   C19   S    
Cu2   O2    S    
C17   C19   S    
C2    C25   S    
C18   C20   S    
C15   C27   S    
C11   O5    A    
C43   N7    T    
C16   C18   S    
C27   N3    T    
C5    N2    S    
Cu1   Cu2   S    
C7    N1    S    
C6    N1    S    
C8    N2    S    
