data_mof_unit_56621.cif
_audit_creation_date              2012-12-11T14:39:18-0500
_audit_creation_method            fapswitch 2.2
_symmetry_space_group_name_H-M    P1
_symmetry_Int_Tables_number       1
_space_group_crystal_system       triclinic
_cell_length_a                    7.211554
_cell_length_b                    14.129699
_cell_length_c                    16.383352
_cell_angle_alpha                 90.000541
_cell_angle_beta                  97.610017
_cell_angle_gamma                 89.999969
_cell_volume                      1654.71230721

loop_
_atom_site_label
_atom_site_type_symbol
_atom_type_description
_atom_site_fract_x
_atom_site_fract_y
_atom_site_fract_z
_atom_type_partial_charge
O1    O     O_R   0.525340 0.338340 0.164530 -0.532964
O2    O     O_R   0.474660 0.661660 0.835470 -0.532933
O3    O     O_R   0.974660 0.838340 0.835470 -0.532955
O4    O     O_R   0.025340 0.161660 0.164530 -0.532942
O5    O     O_R   0.253520 0.352000 0.336710 -0.545942
O6    O     O_R   0.746480 0.648000 0.663290 -0.545942
O7    O     O_R   0.246480 0.852000 0.663290 -0.545955
O8    O     O_R   0.753520 0.148000 0.336710 -0.545944
O9    O     O_R   0.083330 0.168380 0.337300 -0.543435
O10   O     O_R   0.916670 0.831620 0.662700 -0.543436
O11   O     O_R   0.416670 0.668380 0.662700 -0.543434
O12   O     O_R   0.583330 0.331620 0.337300 -0.543433
C1    C     C_R   0.432614 0.368685 0.363766 0.662673
C2    C     C_R   0.567386 0.631314 0.636234 0.662659
C3    C     C_R   0.067386 0.868684 0.636233 0.662645
C4    C     C_R   0.932614 0.131316 0.363767 0.662662
O13   O     O_R   0.195840 0.349670 0.165140 -0.518516
O14   O     O_R   0.804160 0.650330 0.834860 -0.518532
O15   O     O_R   0.304160 0.849670 0.834860 -0.518563
O16   O     O_R   0.695840 0.150330 0.165140 -0.518535
C5    C     C_R   0.356876 0.370464 0.137091 0.768131
C6    C     C_R   0.643126 0.629532 0.862906 0.768327
C7    C     C_R   0.143121 0.870477 0.862897 0.768140
C8    C     C_R   0.856874 0.129532 0.137092 0.768277
O17   O     O_3   0.387830 0.193120 0.250910 -0.373673
O18   O     O_3   0.612170 0.806880 0.749090 -0.373697
O19   O     O_3   0.112170 0.693120 0.749090 -0.373629
O20   O     O_3   0.887830 0.306880 0.250910 -0.373657
V1    V     V_3+5 0.113010 0.264540 0.250910 1.496250
V2    V     V_3+5 0.886990 0.735460 0.749090 1.496266
V3    V     V_3+5 0.386990 0.764540 0.749090 1.496242
V4    V     V_3+5 0.613010 0.235460 0.250910 1.496233
H1    H     H_    0.147112 0.826925 0.266709 0.133745
H2    H     H_    0.852885 0.173075 0.733291 0.133708
H3    H     H_    0.352984 0.326914 0.733293 0.133742
H4    H     H_    0.647009 0.673087 0.266706 0.133746
C9    C     C_R   0.874027 0.185771 0.528010 -0.146909
C10   C     C_R   0.125972 0.814229 0.471990 -0.146907
C11   C     C_R   0.625920 0.685777 0.471990 -0.146922
C12   C     C_R   0.374079 0.314223 0.528010 -0.146918
C13   C     C_R   0.844182 0.213886 0.606732 -0.117266
C14   C     C_R   0.155816 0.786113 0.393267 -0.117284
C15   C     C_R   0.655738 0.713895 0.393267 -0.117284
C16   C     C_R   0.344259 0.286105 0.606733 -0.117294
C17   C     C_R   0.875573 0.150793 0.672177 -0.123737
C18   C     C_R   0.124425 0.849206 0.327822 -0.123720
C19   C     C_R   0.624347 0.650802 0.327821 -0.123730
C20   C     C_R   0.375648 0.349198 0.672179 -0.123732
C21   C     C_R   0.937127 0.059143 0.659374 -0.138685
C22   C     C_R   0.062872 0.940857 0.340625 -0.138657
C23   C     C_R   0.562822 0.559149 0.340624 -0.138675
C24   C     C_R   0.437175 0.440851 0.659376 -0.138659
C25   C     C_R   0.967766 0.028483 0.579995 0.060084
C26   C     C_R   0.032234 0.971516 0.420005 0.060073
C27   C     C_R   0.532210 0.528486 0.420004 0.060079
C28   C     C_R   0.467789 0.471514 0.579995 0.060075
C29   C     C_R   0.935663 0.092942 0.513050 0.056457
C30   C     C_R   0.064336 0.907058 0.486949 0.056457
C31   C     C_R   0.564309 0.592945 0.486949 0.056456
C32   C     C_R   0.435690 0.407055 0.513050 0.056454
C33   C     C_R   0.032053 0.935732 0.566789 -0.167075
C34   C     C_R   0.967947 0.064268 0.433210 -0.167078
C35   C     C_R   0.467947 0.435733 0.433210 -0.167075
C36   C     C_R   0.532053 0.564267 0.566790 -0.167069
H5    H     H_    0.849465 0.237842 0.479362 0.116253
H6    H     H_    0.150535 0.762158 0.520637 0.116255
H7    H     H_    0.650480 0.737848 0.520639 0.116254
H8    H     H_    0.349519 0.262152 0.479361 0.116253
H9    H     H_    0.797325 0.285161 0.617044 0.136810
H10   H     H_    0.202673 0.714838 0.382956 0.136812
H11   H     H_    0.702572 0.785173 0.382956 0.136806
H12   H     H_    0.297423 0.214827 0.617044 0.136800
H13   H     H_    0.961163 0.012943 0.712394 0.104836
H14   H     H_    0.038836 0.987056 0.287606 0.104858
H15   H     H_    0.538787 0.512950 0.287603 0.104859
H16   H     H_    0.461209 0.487051 0.712396 0.104858
C37   C     C_2   0.146010 0.944706 0.926517 -0.364838
C38   C     C_2   0.853963 0.055339 0.073433 -0.365201
C39   C     C_2   0.353974 0.444653 0.073434 -0.365047
C40   C     C_2   0.646042 0.555330 0.926552 -0.365181
C41   C     C_2   0.007898 0.955400 0.975468 -0.054901
C42   C     C_2   0.992185 0.044582 0.024552 -0.055019
C43   C     C_2   0.492205 0.455398 0.024550 -0.055048
C44   C     C_2   0.507842 0.544565 0.975442 -0.054940
H17   H     H_    0.743419 0.003554 0.073380 0.174695
H18   H     H_    0.256393 0.996579 0.926463 0.174381
H19   H     H_    0.756573 0.503538 0.926583 0.174540
H20   H     H_    0.243417 0.496445 0.073379 0.174504
C45   C     C_2   0.125498 0.123615 0.016860 0.811487
O21   O     O_2   0.293288 0.112077 0.037181 -0.547997
O22   O     O_R   0.056736 0.212020 0.989148 -0.659670
H21   H     H_    0.159701 0.260427 0.987181 0.314561
C46   C     C_2   0.874867 0.876261 0.983291 0.811312
O23   O     O_2   0.707002 0.887632 0.963012 -0.547927
O24   O     O_R   0.944003 0.787932 0.011052 -0.659824
H22   H     H_    0.841229 0.739428 0.013106 0.314487
C47   C     C_2   0.374479 0.623580 0.983129 0.811603
O25   O     O_2   0.206727 0.612053 0.962678 -0.548003
O26   O     O_R   0.443150 0.711954 0.010974 -0.659536
H23   H     H_    0.340156 0.760354 0.012923 0.314702
C48   C     C_2   0.625521 0.376335 0.016830 0.811521
O27   O     O_2   0.793335 0.387826 0.037199 -0.547948
O28   O     O_R   0.556725 0.287960 0.989028 -0.659676
H24   H     H_    0.659679 0.239522 0.987031 0.314524

loop_
_geom_bond_atom_site_label_1
_geom_bond_atom_site_label_2
_ccdc_geom_bond_type
O1    C5    A    
C48   O27   D    
C12   C32   A    
C27   C31   A    
O13   V1    S    
O3    C7    A    
O24   H22   S    
C40   C44   D    
O15   V3    S    
C41   C42   S    
C29   C34   A    
C31   C36   A    
C22   C26   A    
C42   C45   S    
C32   C35   A    
C44   C47   S    
O20   V1    S    
O9    C4    A    
C23   H15   S    
C10   C14   A    
C40   H19   S    
O10   C3    A    
C22   H14   S    
O16   V4    S    
O4    C8    A    
O11   C2    A    
C14   H10   S    
H4    C19   S    
C14   C18   A    
O10   V2    S    
C10   C30   A    
C25   C33   A    
O16   C8    A    
C9    H5    S    
O2    C6    A    
C28   C36   A    
O14   V2    S    
C37   C41   D    
C45   O22   S    
O5    C1    A    
O4    V1    S    
O9    V1    S    
C30   C33   A    
O7    C3    A    
O11   V3    S    
O18   V3    S    
C48   O28   S    
O12   V4    S    
O19   V2    S    
H1    C18   S    
C4    C34   S    
H3    C20   S    
C39   H20   S    
C47   O26   S    
C47   O25   D    
O5    V1    S    
O7    V3    S    
O8    V4    S    
C10   H6    S    
O22   H21   S    
C25   C29   A    
C19   C23   A    
C26   C34   A    
O1    V4    S    
O13   C5    A    
C28   C32   A    
C27   C35   A    
O2    V3    S    
O3    V2    S    
O15   C7    A    
O6    C2    A    
C41   C46   S    
C38   C42   D    
C43   C44   S    
C1    C35   S    
C17   C21   A    
C11   C31   A    
C5    C39   S    
C3    C33   S    
H2    C17   S    
C7    C37   S    
C2    C36   S    
C38   H17   S    
C8    C38   S    
O6    V2    S    
C37   H18   S    
C21   H13   S    
C13   H9    S    
C26   C30   A    
C15   H11   S    
O8    C4    A    
C43   C48   S    
O14   C6    A    
C11   H7    S    
C24   H16   S    
C11   C15   A    
C46   O23   D    
C18   C22   A    
O26   H23   S    
C6    C40   S    
C39   C43   D    
O17   V4    S    
C21   C25   A    
C16   H12   S    
C23   C27   A    
C9    C13   A    
C16   C20   A    
C12   C16   A    
O12   C1    A    
C46   O24   S    
C12   H8    S    
O28   H24   S    
C13   C17   A    
C45   O21   D    
C20   C24   A    
C15   C19   A    
C9    C29   A    
C24   C28   A    
