data_mof_unit_16670.cif
_audit_creation_date              2012-10-26T19:41:52-0400
_audit_creation_method            fapswitch 2.2
_symmetry_space_group_name_H-M    P1
_symmetry_Int_Tables_number       1
_space_group_crystal_system       triclinic
_cell_length_a                    10.652101
_cell_length_b                    10.865446
_cell_length_c                    9.630145
_cell_angle_alpha                 90.175784
_cell_angle_beta                  91.316781
_cell_angle_gamma                 94.375997
_cell_volume                      1111.03559884

loop_
_atom_site_label
_atom_site_type_symbol
_atom_type_description
_atom_site_fract_x
_atom_site_fract_y
_atom_site_fract_z
_atom_type_partial_charge
C1    C     C_R   0.486559 0.261865 0.498248 0.557440
C2    C     C_R   0.408234 0.059757 0.606979 0.017578
C3    C     C_R   0.460734 0.125875 0.492188 0.010387
C4    C     C_R   0.259739 0.497918 0.498445 0.546395
C5    C     C_R   0.485690 0.058562 0.370227 -0.001056
C6    C     C_R   0.495690 0.932895 0.380602 -0.132082
C7    C     C_R   0.469526 0.868580 0.502373 -0.010538
C8    C     C_R   0.638296 0.687480 0.150992 -0.065639
C9    C     C_R   0.652850 0.803948 0.093622 -0.194216
C10   C     C_R   0.618567 0.819633 0.956154 -0.147942
C11   C     C_R   0.614843 0.714710 0.870118 0.063324
C12   C     C_3   0.964938 0.597414 0.444195 0.042931
C13   C     C_R   0.564449 0.598406 0.928419 0.158496
C14   C     C_R   0.569249 0.592196 0.077734 0.142166
C15   C     C_R   0.428791 0.415579 0.071383 -0.007703
C16   C     C_R   0.489755 0.736405 0.500824 0.542135
C17   C     C_R   0.432071 0.413050 0.924310 -0.001598
C18   C     C_R   0.740218 0.495968 0.501160 0.575803
C19   C     C_3   0.038255 0.388539 0.553916 -0.127465
C20   C     C_3   0.950381 0.397830 0.425775 0.053093
C21   C     C_3   0.877386 0.492369 0.502471 0.001743
C22   C     C_3   0.964381 0.483661 0.631350 -0.146233
C23   C     C_3   0.038059 0.502987 0.365122 -0.114175
C24   C     C_3   0.052410 0.590706 0.573089 -0.137048
C25   C     C_2   0.894785 0.284809 0.351671 0.567868
C26   C     C_3   0.729764 0.728259 0.778534 -0.219001
C27   C     C_3   0.843602 0.678862 0.852539 -0.423125
C28   C     C_2   0.925233 0.715810 0.384321 0.559154
C29   C     C_3   0.476500 0.108277 0.223208 -0.263974
C30   C     C_3   0.602729 0.158094 0.165557 -0.379437
C31   C     C_3   0.123282 0.495240 0.495384 -0.008265
C32   C     C_R   0.339195 0.118737 0.707970 -0.100727
C33   C     C_R   0.288029 0.054204 0.820430 -0.126296
C34   C     C_R   0.297021 0.927885 0.829999 -0.126252
C35   C     C_R   0.355317 0.865292 0.726026 -0.103236
C36   C     C_R   0.413863 0.929612 0.613708 0.023302
Cu1   Cu    Cu3+1 0.499990 0.499990 0.640660 0.929902
Cu2   Cu    Cu3+1 0.500010 0.500010 0.359340 0.938477
H1    H     H_    0.253255 0.877108 0.914976 0.124748
H2    H     H_    0.935780 0.467995 0.739849 0.138688
H3    H     H_    0.098345 0.670714 0.631713 0.122888
H4    H     H_    0.070011 0.510734 0.256332 0.165458
H5    H     H_    0.316016 0.212962 0.695796 0.120505
H6    H     H_    0.236600 0.101558 0.897305 0.113084
H7    H     H_    0.802717 0.116434 0.369256 0.337757
H8    H     H_    0.866451 0.730793 0.950468 0.178388
H9    H     H_    0.823781 0.580035 0.878356 0.163318
H10   H     H_    0.926782 0.691955 0.786155 0.147060
H11   H     H_    0.715685 0.694097 0.673229 0.220491
H12   H     H_    0.346571 0.766274 0.733412 0.157052
H13   H     H_    0.756482 0.827219 0.755801 0.143349
H14   H     H_    0.924723 0.829668 0.219534 0.331652
H15   H     H_    0.645577 0.237203 0.226953 0.230717
H16   H     H_    0.669439 0.084974 0.164476 0.140088
H17   H     H_    0.588246 0.189444 0.057125 0.140653
H18   H     H_    0.405583 0.176792 0.217287 0.153576
H19   H     H_    0.437038 0.033875 0.151395 0.133562
H20   H     H_    0.518279 0.883518 0.288794 0.146976
H21   H     H_    0.365649 0.349952 0.123540 0.105529
H22   H     H_    0.674594 0.677576 0.254273 0.205634
H23   H     H_    0.695462 0.880473 0.154236 0.121497
H24   H     H_    0.637338 0.911274 0.913432 0.133022
H25   H     H_    0.374582 0.342716 0.868805 0.105270
H26   H     H_    0.071547 0.302232 0.598252 0.129594
N1    N     N_R   0.501210 0.501210 0.147910 -0.247804
N2    N     N_R   0.501250 0.501290 0.852040 -0.244496
O1    O     O_R   0.499990 0.319640 0.618810 -0.500135
O2    O     O_R   0.829022 0.192304 0.427358 -0.694319
O3    O     O_2   0.867521 0.784732 0.455364 -0.557154
O4    O     O_R   0.955222 0.747049 0.247808 -0.717597
O5    O     O_R   0.500000 0.319660 0.381240 -0.511046
O6    O     O_R   0.316850 0.499960 0.618770 -0.517282
O7    O     O_R   0.316860 0.499980 0.381190 -0.500723
O8    O     O_R   0.500000 0.680340 0.618760 -0.531551
O9    O     O_R   0.500010 0.680360 0.381190 -0.519721
O10   O     O_R   0.683140 0.500020 0.618810 -0.505888
O11   O     O_R   0.683150 0.500040 0.381230 -0.513180
O12   O     O_2   0.909802 0.272454 0.227142 -0.543846

loop_
_geom_bond_atom_site_label_1
_geom_bond_atom_site_label_2
_ccdc_geom_bond_type
C27   H10   S    
Cu1   O8    S    
C16   O9    A    
C7    C36   A    
C6    H20   S    
C19   C20   S    
C19   C31   S    
C30   H16   S    
C12   C23   S    
C17   N2    A    
C29   C30   S    
C23   H4    S    
C12   C28   S    
C16   O8    A    
C5    C6    A    
C20   C25   S    
C27   H9    S    
C18   C21   S    
C2    C32   A    
C34   C35   A    
C14   N1    A    
C28   O3    D    
C8    C9    A    
C8    C14   A    
C20   C23   S    
C9    C10   A    
C13   N2    A    
C21   C22   S    
C24   H3    S    
C10   H24   S    
C25   O2    S    
C35   H12   S    
C5    C29   S    
Cu2   O9    S    
C30   H15   S    
C25   O12   D    
C19   C22   S    
C26   H11   S    
C11   C26   S    
C12   C21   S    
C34   H1    S    
C1    C3    S    
C35   C36   A    
C23   C31   S    
Cu1   Cu2   S    
Cu2   N1    S    
C19   H26   S    
C22   H2    S    
Cu1   N2    S    
H7    O2    S    
C33   C34   A    
C26   C27   S    
C1    O5    A    
C4    O7    A    
C27   H8    S    
C7    C16   S    
Cu2   O11   S    
Cu1   O10   S    
C29   H19   S    
C9    H23   S    
C4    O6    A    
C2    C36   A    
C15   C17   A    
Cu2   O5    S    
C18   O10   A    
C33   H6    S    
C15   H21   S    
C28   O4    S    
C3    C5    A    
C6    C7    A    
C29   H18   S    
C30   H17   S    
C12   C24   S    
C32   C33   A    
C2    C3    A    
C24   C31   S    
C26   H13   S    
C8    H22   S    
C11   C13   A    
C18   O11   A    
Cu1   O1    S    
C1    O1    A    
C32   H5    S    
C22   C24   S    
C4    C31   S    
H14   O4    S    
C10   C11   A    
C20   C21   S    
Cu1   O6    S    
C13   C14   A    
C17   H25   S    
Cu2   O7    S    
C15   N1    A    
