data_mof_unit_23497.cif
_audit_creation_date              2012-12-10T17:48:49-0500
_audit_creation_method            fapswitch 2.2
_symmetry_space_group_name_H-M    P1
_symmetry_Int_Tables_number       1
_space_group_crystal_system       triclinic
_cell_length_a                    10.716623
_cell_length_b                    14.696187
_cell_length_c                    14.746803
_cell_angle_alpha                 65.008968
_cell_angle_beta                  103.702341
_cell_angle_gamma                 103.059732
_cell_volume                      2024.15662574

loop_
_atom_site_label
_atom_site_type_symbol
_atom_type_description
_atom_site_fract_x
_atom_site_fract_y
_atom_site_fract_z
_atom_type_partial_charge
C1    C     C_R   0.479016 0.119746 0.312252 0.791484
C2    C     C_3   0.877881 0.997992 0.501449 0.115009
C3    C     C_3   0.958914 0.984646 0.608002 -0.008897
C4    C     C_3   0.933319 0.099980 0.422258 -0.427866
C5    C     C_R   0.474370 0.187351 0.204827 -0.057357
C6    C     C_R   0.538176 0.812184 0.795299 -0.143924
C7    C     C_R   0.452412 0.215638 0.028112 -0.195396
C8    C     C_R   0.450658 0.149207 0.128933 -0.201785
C9    C     C_R   0.499645 0.292124 0.178922 -0.255831
C10   C     C_R   0.507606 0.360298 0.078704 0.088342
C11   C     C_R   0.480078 0.320749 0.002364 0.165844
C12   C     C_R   0.259935 0.999831 0.500304 0.750216
C13   C     C_R   0.539898 0.466661 0.052255 0.050381
C14   C     C_R   0.524820 0.532638 0.948341 0.066465
C15   C     C_R   0.504138 0.490661 0.874686 -0.162901
C16   C     C_R   0.482266 0.386451 0.901452 -0.270989
C17   C     C_R   0.591854 0.509039 0.125839 -0.217974
C18   C     C_R   0.623949 0.613174 0.097908 -0.195135
C19   C     C_R   0.597799 0.678683 0.996843 0.106038
C20   C     C_R   0.539731 0.639016 0.921734 0.005908
C21   C     C_R   0.629084 0.783657 0.970058 -0.190877
C22   C     C_R   0.603922 0.849793 0.869283 -0.230654
C23   C     C_R   0.520367 0.880199 0.687698 0.847547
C24   C     C_R   0.495030 0.707317 0.823639 0.384189
C25   C     C_R   0.719755 0.286363 0.666314 -0.321159
C26   C     C_R   0.684824 0.204177 0.637413 0.072066
C27   C     C_R   0.517342 0.284579 0.510044 0.001580
C28   C     C_R   0.548105 0.371048 0.535628 -0.023287
C29   C     C_R   0.651713 0.369818 0.616025 0.164096
C30   C     C_R   0.480228 0.457584 0.485294 0.076362
C31   C     C_R   0.517853 0.541364 0.516721 0.076059
C32   C     C_R   0.621133 0.535312 0.597985 -0.241112
C33   C     C_R   0.686492 0.451406 0.646189 -0.203196
C34   C     C_R   0.739994 0.999431 0.500334 0.800177
C35   C     C_R   0.376086 0.463182 0.404731 -0.237462
C36   C     C_R   0.310416 0.546880 0.356760 -0.193907
C37   C     C_R   0.346052 0.628933 0.386135 0.164289
C38   C     C_R   0.450469 0.628170 0.465877 -0.028082
C39   C     C_R   0.277951 0.712339 0.335708 -0.317757
C40   C     C_R   0.313843 0.795110 0.363623 0.064290
C41   C     C_R   0.482553 0.715414 0.490169 0.032852
C42   C     C_3   0.035272 0.910760 0.473710 -0.365665
C43   C     C_3   0.892286 0.911006 0.472677 -0.358281
C44   C     C_3   0.102896 0.983984 0.607518 -0.390005
C45   C     C_3   0.077339 0.100566 0.422119 -0.390180
C46   C     C_3   0.121865 0.998964 0.500882 0.131568
Cu1   Cu    Cu3+1 0.465900 0.918260 0.475680 0.942081
Cu2   Cu    Cu3+1 0.534100 0.081740 0.524320 0.929224
H1    H     H_    0.064157 0.836536 0.530022 0.171791
H2    H     H_    0.924510 0.164600 0.439895 0.177722
H3    H     H_    0.164274 0.045711 0.629536 0.162629
H4    H     H_    0.953044 0.049793 0.625932 0.141514
H5    H     H_    0.466341 0.357229 0.842698 0.155413
H6    H     H_    0.635634 0.930283 0.849358 0.174130
H7    H     H_    0.667731 0.642636 0.156101 0.141799
H8    H     H_    0.432866 0.184848 0.970278 0.135321
H9    H     H_    0.431071 0.068293 0.147412 0.154668
H10   H     H_    0.510046 0.319251 0.238073 0.150114
H11   H     H_    0.047806 0.918494 0.397815 0.165740
H12   H     H_    0.511205 0.537148 0.796092 0.204530
H13   H     H_    0.615984 0.463422 0.205372 0.143968
H14   H     H_    0.676365 0.814434 0.026717 0.142178
H15   H     H_    0.765296 0.450376 0.708113 0.147242
H16   H     H_    0.561523 0.722349 0.548494 0.138577
H17   H     H_    0.261745 0.859727 0.324571 0.121999
H18   H     H_    0.230826 0.547480 0.295479 0.142424
H19   H     H_    0.799195 0.284509 0.727951 0.138925
H20   H     H_    0.736672 0.139418 0.676593 0.131178
H21   H     H_    0.439358 0.278197 0.450913 0.120877
H22   H     H_    0.837186 0.921197 0.395628 0.166111
H23   H     H_    0.654034 0.594332 0.626794 0.144724
H24   H     H_    0.342271 0.403753 0.376571 0.129173
H25   H     H_    0.197676 0.713672 0.274762 0.139586
H26   H     H_    0.851602 0.836041 0.526173 0.194405
H27   H     H_    0.135346 0.911327 0.664352 0.170486
H28   H     H_    0.137187 0.165158 0.440079 0.171763
H29   H     H_    0.090782 0.112406 0.345134 0.157425
H30   H     H_    0.877022 0.111558 0.345306 0.165635
N1    N     N_R   0.585360 0.204570 0.560800 -0.176856
N2    N     N_R   0.414550 0.795430 0.439160 -0.180181
O1    O     O_R   0.455060 0.022100 0.338110 -0.589703
O2    O     O_R   0.512640 0.160150 0.379180 -0.589472
O3    O     O_R   0.288900 0.930980 0.479450 -0.599024
O4    O     O_R   0.346480 0.069030 0.520520 -0.589202
O5    O     O_R   0.487360 0.839850 0.620820 -0.536502
O6    O     O_R   0.544940 0.977900 0.661890 -0.590694
O7    O     O_R   0.653520 0.930970 0.479480 -0.586720
O8    O     O_R   0.711100 0.069020 0.520550 -0.588847
O9    O     O_3   0.406065 0.672185 0.756320 -0.622737
C47   C     C_3   0.279771 0.689387 0.752783 0.074863
H31   H     H_    0.231866 0.715144 0.672284 0.172641
H32   H     H_    0.277920 0.750120 0.778987 0.110302
C48   C     C_3   0.201293 0.590389 0.814391 -0.362186
H33   H     H_    0.201834 0.530830 0.786790 0.231999
H34   H     H_    0.246637 0.564777 0.895496 0.220434
C49   C     C_3   0.061238 0.604052 0.805223 -0.886022
H35   H     H_    0.058545 0.660876 0.835667 0.282560
H36   H     H_    0.006419 0.530700 0.849430 0.253651
H37   H     H_    0.013510 0.629536 0.724687 0.257410
I1    I     I_    0.885572 0.851154 0.729425 -0.504149

loop_
_geom_bond_atom_site_label_1
_geom_bond_atom_site_label_2
_ccdc_geom_bond_type
C48   H33   S    
C15   H12   S    
C19   C20   A    
C25   H19   S    
C24   O9    S    
C41   N2    A    
C7    C8    A    
C22   H6    S    
C45   C46   S    
C4    H30   S    
C30   C35   A    
C45   H28   S    
C1    C5    S    
Cu1   O5    S    
Cu2   N1    S    
C36   C37   A    
C19   C21   A    
C18   C19   A    
C27   N1    A    
C30   C31   A    
C36   H18   S    
C1    O1    A    
C15   C16   A    
C6    C22   A    
C49   H37   S    
C29   C33   A    
C12   O4    A    
C9    H10   S    
C42   C46   S    
C20   C24   A    
C16   H5    S    
C17   H13   S    
C3    I1    S    
C31   C32   A    
C23   O6    A    
C49   H36   S    
Cu2   O8    S    
Cu1   O3    S    
C9    C10   A    
C27   H21   S    
C2    C34   S    
C43   H26   S    
C39   H25   S    
C48   H34   S    
C21   C22   A    
Cu1   N2    S    
C44   C46   S    
C7    C11   A    
C32   H23   S    
C4    C45   S    
C25   C29   A    
C3    C44   S    
C14   C20   A    
C38   C41   A    
C12   C46   S    
C39   C40   A    
C1    O2    A    
Cu2   O4    S    
C12   O3    A    
C4    H2    S    
C35   C36   A    
Cu1   O7    S    
C44   H27   S    
C2    C4    S    
C5    C9    A    
C37   C38   A    
C8    H9    S    
C11   C16   A    
C47   H32   S    
Cu1   Cu2   S    
C2    C43   S    
C33   H15   S    
C6    C24   A    
C49   H35   S    
C40   N2    A    
C17   C18   A    
C34   O8    A    
C21   H14   S    
C18   H7    S    
C44   H3    S    
C35   H24   S    
C48   C49   S    
C40   H17   S    
Cu2   O6    S    
C42   C43   S    
C47   C48   S    
C28   C29   A    
C10   C13   A    
C42   H11   S    
C5    C8    A    
C3    H4    S    
C43   H22   S    
C26   N1    A    
C31   C38   A    
C13   C17   A    
C26   H20   S    
C32   C33   A    
C28   C30   A    
C2    C3    S    
C25   C26   A    
C37   C39   A    
C47   H31   S    
C6    C23   S    
Cu2   O2    S    
C7    H8    S    
C34   O7    A    
Cu1   O1    S    
C10   C11   A    
C42   H1    S    
C23   O5    A    
C27   C28   A    
C14   C15   A    
C45   H29   S    
C41   H16   S    
O9    C47   S    
C13   C14   A    
