data_mof_unit_63535.cif
_audit_creation_date              2012-12-10T19:45:12-0500
_audit_creation_method            fapswitch 2.2
_symmetry_space_group_name_H-M    P1
_symmetry_Int_Tables_number       1
_space_group_crystal_system       triclinic
_cell_length_a                    18.753506
_cell_length_b                    18.693297
_cell_length_c                    18.684046
_cell_angle_alpha                 109.269563
_cell_angle_beta                  109.48783
_cell_angle_gamma                 109.361556
_cell_volume                      5060.41135151

loop_
_atom_site_label
_atom_site_type_symbol
_atom_type_description
_atom_site_fract_x
_atom_site_fract_y
_atom_site_fract_z
_atom_type_partial_charge
Br1   Br    Br    0.151767 0.845747 0.807010 -0.487265
Br2   Br    Br    0.092365 0.752544 0.529338 -0.454178
Br3   Br    Br    0.376313 0.844989 0.669702 -0.482973
C1    C     C_R   0.120913 0.000631 0.619979 0.875164
C2    C     C_R   0.516409 0.449545 0.810522 -0.132218
C3    C     C_R   0.527349 0.533394 0.836425 -0.067417
C4    C     C_R   0.119123 0.120000 0.498877 0.869269
C5    C     C_R   0.471642 0.548182 0.779217 -0.091022
C6    C     C_R   0.405402 0.479359 0.695612 -0.143993
C7    C     C_R   0.394065 0.394913 0.669156 0.126598
C8    C     C_R   0.192281 0.926229 0.671545 0.113318
C9    C     C_R   0.190546 0.003206 0.684542 -0.112153
C10   C     C_R   0.258882 0.082772 0.758821 -0.187524
C11   C     C_R   0.322806 0.082640 0.823726 -0.190616
C12   C     C_R   0.959893 0.981025 0.166707 -0.183016
C13   C     C_R   0.315269 0.002778 0.815625 -0.041436
C14   C     C_R   0.251433 0.925571 0.738022 0.063643
C15   C     C_3   0.186070 0.839114 0.718504 0.042587
C16   C     C_R   0.880275 0.000675 0.379858 0.883286
C17   C     C_3   0.121483 0.838794 0.642618 0.010889
C18   C     C_R   0.808278 0.735384 0.483124 0.035062
C19   C     C_R   0.812523 0.814823 0.498925 -0.071607
C20   C     C_R   0.749081 0.829963 0.514896 -0.178223
C21   C     C_R   0.683892 0.765030 0.514273 -0.195330
C22   C     C_R   0.684032 0.686425 0.500225 -0.080504
C23   C     C_R   0.242001 0.247689 0.422632 -0.220459
C24   C     C_R   0.747533 0.674493 0.485303 0.059694
C25   C     C_3   0.780479 0.612203 0.466658 0.215391
C26   C     C_3   0.850949 0.682423 0.464835 -0.431504
C27   C     C_R   0.745423 0.921700 0.239519 0.065336
C28   C     C_R   0.879719 0.880011 0.499885 0.881093
C29   C     C_R   0.812105 0.999940 0.315106 -0.092098
C30   C     C_R   0.808195 0.077104 0.331384 -0.167456
C31   C     C_R   0.744253 0.077238 0.266811 -0.078432
C32   C     C_R   0.683734 0.999852 0.187333 -0.093893
C33   C     C_R   0.681206 0.921625 0.176449 0.136935
C34   C     C_R   0.313864 0.316381 0.503102 -0.080566
C35   C     C_3   0.679578 0.854919 0.103736 0.175531
C36   C     C_3   0.749849 0.854196 0.173428 -0.471230
C37   C     C_R   0.500963 0.621109 0.620309 0.867069
C38   C     C_R   0.379994 0.381377 0.501783 0.863302
C39   C     C_R   0.499875 0.379643 0.380069 0.940886
C40   C     C_R   0.030830 0.970176 0.204283 -0.191961
C41   C     C_R   0.619598 0.620093 0.500008 0.907477
C42   C     C_R   0.500078 0.119793 0.119889 0.923416
C43   C     C_R   0.380094 0.001663 0.881412 0.887088
C44   C     C_R   0.499696 0.879921 0.879780 0.890721
C45   C     C_R   0.321535 0.320931 0.582333 0.005766
C46   C     C_R   0.619686 0.999352 0.119643 0.897065
C47   C     C_R   0.422569 0.679506 0.680112 -0.000435
C48   C     C_R   0.501008 0.685867 0.687499 -0.064040
C49   C     C_R   0.579528 0.750567 0.765245 -0.204098
C50   C     C_R   0.579500 0.815136 0.829331 -0.182127
C51   C     C_R   0.500742 0.813323 0.815922 -0.021019
C52   C     C_R   0.101622 0.035435 0.287081 -0.091341
C53   C     C_R   0.422408 0.742531 0.743719 0.055103
C54   C     C_3   0.346797 0.738975 0.678012 0.077019
C55   C     C_3   0.346912 0.668590 0.607887 -0.419359
C56   C     C_R   0.256276 0.254836 0.578882 -0.233581
C57   C     C_R   0.475251 0.303055 0.232676 0.084325
C58   C     C_R   0.499866 0.312885 0.315285 -0.126984
C59   C     C_R   0.526805 0.256260 0.334564 -0.229784
C60   C     C_R   0.527238 0.191354 0.270334 0.376034
C61   C     C_R   0.502044 0.184742 0.187322 -0.163593
C62   C     C_R   0.477810 0.242624 0.171894 0.020692
C63   C     C_3   0.445539 0.267357 0.104719 0.212947
C64   C     C_R   0.101103 0.111429 0.333241 0.043437
C65   C     C_3   0.443625 0.337722 0.175047 -0.427468
C66   C     C_R   0.029543 0.121889 0.295584 -0.215952
C67   C     C_R   0.184910 0.185922 0.498367 -0.068313
C68   C     C_R   0.959248 0.056907 0.212194 0.440318
C69   C     C_R   0.177127 0.181695 0.419410 0.017916
C70   C     C_R   0.449680 0.380339 0.727397 -0.138124
Cl1   Cl    Cl    0.704398 0.516339 0.362390 -0.550419
Cl2   Cl    Cl    0.578024 0.755365 0.040428 -0.605364
Cl3   Cl    Cl    0.561725 0.121949 0.296480 -0.604597
Cl4   Cl    Cl    0.526114 0.311673 0.077605 -0.532258
Cl5   Cl    Cl    0.871389 0.071447 0.163666 -0.661244
H1    H     H_    0.905661 0.930641 0.102188 0.160691
H2    H     H_    0.031273 0.911495 0.168917 0.163526
H3    H     H_    0.634828 0.776494 0.525952 0.161643
H4    H     H_    0.805942 0.600074 0.521703 0.134635
H5    H     H_    0.917330 0.712295 0.520297 0.197473
H6    H     H_    0.846083 0.663800 0.399701 0.260158
H7    H     H_    0.856920 0.137776 0.391721 0.168291
H8    H     H_    0.743429 0.137529 0.277679 0.179001
H9    H     H_    0.701588 0.880385 0.064472 0.133631
H10   H     H_    0.728292 0.792255 0.175523 0.242289
H11   H     H_    0.156760 0.026905 0.315241 0.150911
H12   H     H_    0.578663 0.586806 0.900991 0.173596
H13   H     H_    0.813306 0.879641 0.175122 0.192742
H14   H     H_    0.640793 0.753407 0.774482 0.166607
H15   H     H_    0.640442 0.867044 0.887883 0.162884
H16   H     H_    0.287878 0.714407 0.684398 0.141209
H17   H     H_    0.288548 0.603266 0.574829 0.182902
H18   H     H_    0.364252 0.687858 0.563153 0.247202
H19   H     H_    0.546616 0.261779 0.398530 0.197711
H20   H     H_    0.029010 0.180740 0.330476 0.169046
H21   H     H_    0.380272 0.215113 0.047846 0.094866
H22   H     H_    0.492409 0.405971 0.199460 0.263446
H23   H     H_    0.479553 0.612918 0.800036 0.165126
H24   H     H_    0.376753 0.325971 0.159189 0.171449
H25   H     H_    0.236927 0.245038 0.362117 0.164949
H26   H     H_    0.260769 0.257249 0.639159 0.156385
H27   H     H_    0.441395 0.315499 0.708309 0.142642
H28   H     H_    0.559318 0.438063 0.855049 0.159580
H29   H     H_    0.362285 0.491514 0.652026 0.116968
H30   H     H_    0.261609 0.144002 0.767304 0.165070
H31   H     H_    0.375114 0.143871 0.881711 0.184000
H32   H     H_    0.203836 0.787745 0.698469 0.178787
H33   H     H_    0.064744 0.840919 0.647753 0.144393
H34   H     H_    0.749373 0.890865 0.526796 0.171743
O1    O     O_R   0.091630 0.948280 0.539910 -0.583267
O2    O     O_R   0.448290 0.040010 0.091660 -0.598574
O3    O     O_R   0.460120 0.051750 0.908410 -0.603323
O4    O     O_R   0.091590 0.051710 0.643320 -0.623056
O5    O     O_R   0.356670 0.948360 0.908460 -0.592477
O6    O     O_R   0.551710 0.960090 0.908440 -0.604514
O7    O     O_R   0.448260 0.856700 0.908490 -0.613020
O8    O     O_R   0.643330 0.051740 0.091640 -0.601590
O9    O     O_R   0.539880 0.948350 0.091690 -0.578430
O10   O     O_R   0.091640 0.039900 0.448300 -0.615951
O11   O     O_R   0.091600 0.143340 0.551710 -0.624441
O12   O     O_R   0.551690 0.591610 0.643360 -0.623841
O13   O     O_R   0.908410 0.948290 0.356680 -0.618872
O14   O     O_R   0.908370 0.051720 0.460090 -0.623417
O15   O     O_R   0.908400 0.856660 0.448290 -0.604760
O16   O     O_R   0.908360 0.960100 0.551700 -0.623542
O17   O     O_R   0.448260 0.591640 0.539950 -0.621372
O18   O     O_R   0.356650 0.408410 0.448330 -0.624620
O19   O     O_R   0.460080 0.408380 0.551740 -0.612073
O20   O     O_R   0.448280 0.408420 0.356720 -0.623504
O21   O     O_R   0.551710 0.408390 0.460130 -0.615501
O22   O     O_R   0.539890 0.591650 0.448340 -0.608132
O23   O     O_R   0.643320 0.591620 0.551750 -0.625904
O24   O     O_R   0.551740 0.143400 0.091610 -0.579913
Zn1   Zn    Zn3+2 0.000030 0.930940 0.430950 1.024621
Zn2   Zn    Zn3+2 0.999970 0.069060 0.569050 0.988676
Zn3   Zn    Zn3+2 0.430920 0.500040 0.430990 0.994004
Zn4   Zn    Zn3+2 0.569050 0.499990 0.569090 0.996929
Zn5   Zn    Zn3+2 0.569070 0.069080 0.000020 1.088451
Zn6   Zn    Zn3+2 0.430930 0.931020 0.000080 1.088661

loop_
_geom_bond_atom_site_label_1
_geom_bond_atom_site_label_2
_ccdc_geom_bond_type
C11   H31   S    
C63   C65   S    
C37   O17   A    
O3    Zn5   S    
C23   C69   A    
C32   C33   A    
C28   O15   A    
C21   H3    S    
O6    Zn5   S    
C25   Cl1   S    
C4    C67   S    
C50   C51   A    
O20   Zn3   S    
C20   H34   S    
O11   Zn2   S    
Br1   C15   S    
C59   C60   A    
C43   O3    A    
C39   O21   A    
C2    C3    A    
C56   H26   S    
O2    Zn6   S    
C25   C26   S    
C65   H24   S    
C26   H5    S    
C35   C36   S    
C31   C32   A    
C7    C70   A    
C46   O8    A    
C60   Cl3   S    
C16   C29   S    
C59   H19   S    
C53   C54   S    
C64   C69   S    
C31   H8    S    
C66   C68   A    
C55   H18   S    
O16   Zn2   S    
O19   Zn4   S    
C42   O2    A    
C44   O6    A    
C12   H1    S    
C5    C6    A    
C32   C46   S    
C20   C21   A    
C1    C9    S    
O14   Zn2   S    
C5    H23   S    
C35   Cl2   S    
C66   H20   S    
C41   O23   A    
C44   O7    A    
C18   C24   A    
C18   C19   A    
C34   C38   S    
C36   H10   S    
C10   H30   S    
O18   Zn3   S    
C22   C41   S    
C36   H13   S    
O12   Zn4   S    
C30   C31   A    
O4    Zn2   S    
C2    H28   S    
C41   O22   A    
O23   Zn4   S    
C37   O12   A    
C51   C53   A    
C8    C17   S    
C67   C69   A    
C19   C28   S    
Br2   C17   S    
C48   C49   A    
C47   C55   S    
C1    O1    A    
C21   C22   A    
C26   H6    S    
C13   C43   S    
O22   Zn3   S    
C38   O19   A    
C13   C14   A    
C3    C5    A    
O13   Zn1   S    
C40   H2    S    
C3    H12   S    
C25   H4    S    
C16   O13   A    
C47   C53   A    
C43   O5    A    
C57   C58   A    
C64   C66   A    
C63   H21   S    
C55   H17   S    
C65   H22   S    
O24   Zn5   S    
C23   H25   S    
C17   H33   S    
C70   H27   S    
O17   Zn3   S    
C46   O9    A    
C28   O16   A    
C14   C15   S    
C47   C48   A    
C34   C45   A    
C39   C58   S    
C44   C51   S    
Br3   C54   S    
C40   C52   A    
C57   C62   A    
C54   H16   S    
C7    C45   S    
C11   C13   A    
C49   H14   S    
C6    H29   S    
C4    O10   A    
C49   C50   A    
C45   C56   A    
C6    C7    A    
C63   Cl4   S    
C50   H15   S    
C8    C14   A    
C42   O24   A    
C30   H7    S    
C42   C61   S    
O9    Zn6   S    
C1    O4    A    
O8    Zn5   S    
C15   H32   S    
O10   Zn1   S    
C4    O11   A    
C52   C64   A    
C8    C9    A    
C23   C34   A    
C22   C24   A    
C37   C48   S    
C12   C68   A    
C16   O14   A    
C27   C33   A    
C35   H9    S    
O1    Zn1   S    
C29   C30   A    
C33   C35   S    
O5    Zn6   S    
C12   C40   A    
C52   H11   S    
C61   C62   A    
C27   C29   A    
C54   C55   S    
C38   O18   A    
C18   C26   S    
C27   C36   S    
C15   C17   S    
C2    C70   A    
C58   C59   A    
C56   C67   A    
C60   C61   A    
C9    C10   A    
C57   C65   S    
O21   Zn4   S    
C62   C63   S    
C24   C25   S    
O7    Zn6   S    
C19   C20   A    
C39   O20   A    
O15   Zn1   S    
C10   C11   A    
C68   Cl5   S    
