data_mof_unit_44996.cif
_audit_creation_date              2012-12-10T17:34:59-0500
_audit_creation_method            fapswitch 2.2
_symmetry_space_group_name_H-M    P1
_symmetry_Int_Tables_number       1
_space_group_crystal_system       triclinic
_cell_length_a                    12.243531
_cell_length_b                    12.714233
_cell_length_c                    15.664754
_cell_angle_alpha                 94.385394
_cell_angle_beta                  86.651603
_cell_angle_gamma                 94.517396
_cell_volume                      2420.42621416

loop_
_atom_site_label
_atom_site_type_symbol
_atom_type_description
_atom_site_fract_x
_atom_site_fract_y
_atom_site_fract_z
_atom_type_partial_charge
C1    C     C_R   0.522388 0.700650 0.495155 0.940991
C2    C     C_3   0.379217 0.504623 0.056800 -0.417528
C3    C     C_3   0.497038 0.492162 0.082777 0.080875
C4    C     C_3   0.534616 0.384778 0.042906 -0.431884
C5    C     C_3   0.548596 0.387396 0.944430 0.319468
C6    C     C_1   0.498360 0.494942 0.174351 0.001152
C7    C     C_1   0.497252 0.490705 0.824899 0.091533
C8    C     C_1   0.499141 0.495167 0.749717 -0.043397
C9    C     C_R   0.462312 0.195004 0.541434 -0.215773
C10   C     C_R   0.537729 0.815136 0.495718 -0.178497
C11   C     C_R   0.637788 0.973405 0.552743 -0.135458
C12   C     C_R   0.499889 0.499209 0.661120 0.907541
C13   C     C_R   0.631218 0.865886 0.531782 -0.222806
C14   C     C_R   0.452704 0.874450 0.473594 0.413657
C15   C     C_R   0.453318 0.980400 0.504405 -0.069300
C16   C     C_R   0.549697 0.032182 0.538684 -0.002319
C17   C     C_R   0.554683 0.141921 0.556676 0.461520
C18   C     C_R   0.358925 0.138780 0.540170 0.292570
C19   C     C_R   0.356026 0.032344 0.512341 -0.211425
C20   C     C_R   0.952480 0.391221 0.429402 0.365640
C21   C     C_R   0.840501 0.409262 0.425012 0.302152
C22   C     C_R   0.858500 0.545476 0.541457 0.495520
C23   C     C_R   0.477750 0.302708 0.514551 0.901664
C24   C     C_R   0.977121 0.539365 0.536571 -0.261123
C25   C     C_R   0.021954 0.466396 0.474857 -0.329638
C26   C     C_R   0.136928 0.476611 0.454354 0.550522
C27   C     C_R   0.166322 0.573841 0.585992 0.443854
C28   C     C_R   0.056354 0.601710 0.588954 0.413702
C29   C     C_R   0.499767 0.499298 0.338847 0.953048
C30   C     C_3   0.376614 0.500559 0.957865 0.234577
C31   C     C_3   0.568417 0.586778 0.951302 0.231861
C32   C     C_3   0.574852 0.583843 0.049652 -0.438991
C33   C     C_1   0.499120 0.497247 0.249861 -0.036959
C34   C     C_3   0.495593 0.487411 0.916417 -0.051862
H1    H     H_    0.351295 0.581742 0.084896 0.180805
H2    H     H_    0.322277 0.442429 0.084669 0.252380
H3    H     H_    0.613995 0.368228 0.068555 0.197390
H4    H     H_    0.710074 0.008026 0.583217 0.189522
H5    H     H_    0.277668 0.987476 0.506328 0.205194
H6    H     H_    0.698473 0.822130 0.546112 0.256456
H7    H     H_    0.353283 0.579398 0.941828 0.079881
H8    H     H_    0.526783 0.658836 0.938345 0.086690
H9    H     H_    0.552044 0.660878 0.081651 0.170028
H10   H     H_    0.660366 0.573117 0.066104 0.239128
H11   H     H_    0.638319 0.398737 0.928623 0.178285
H12   H     H_    0.473108 0.320254 0.061382 0.243025
N1    N     N_R   0.207800 0.519340 0.515510 -0.180321
N2    N     N_R   0.792190 0.480660 0.484490 -0.247081
O1    O     O_R   0.421690 0.658830 0.504140 -0.545410
O2    O     O_R   0.609320 0.646410 0.494190 -0.572666
O3    O     O_R   0.406150 0.506210 0.627840 -0.587356
O4    O     O_R   0.593770 0.493790 0.617880 -0.547667
O5    O     O_R   0.390680 0.353590 0.505810 -0.567942
O6    O     O_R   0.578310 0.341170 0.495860 -0.586869
O7    O     O_R   0.406230 0.506210 0.382120 -0.532715
O8    O     O_R   0.593850 0.493790 0.372160 -0.547833
Zn1   Zn    Zn3+2 0.374720 0.508290 0.506640 1.139820
Zn2   Zn    Zn3+2 0.625280 0.491710 0.493360 1.097494
S1    S     S_3+6 0.265782 0.410500 0.918221 0.065237
O9    O     O_2   0.166900 0.472546 0.914130 -0.306386
O10   O     O_2   0.294287 0.362519 0.829953 -0.217059
O11   O     O_3   0.232643 0.313347 0.984328 -0.484654
H13   H     H_    0.168688 0.272164 0.959279 0.412309
O12   O     O_3   0.639285 0.195814 0.601339 -0.588054
C35   C     C_3   0.735741 0.209851 0.548188 -0.107415
H14   H     H_    0.723751 0.191224 0.478515 0.192822
H15   H     H_    0.800217 0.162384 0.568905 0.181379
H16   H     H_    0.767939 0.293395 0.557928 0.171099
S2    S     S_3+6 0.250247 0.180113 0.611873 0.097377
O13   O     O_2   0.289599 0.182838 0.701100 -0.161202
O14   O     O_2   0.218290 0.288594 0.597137 -0.244278
O15   O     O_3   0.139208 0.093427 0.605810 -0.523228
H17   H     H_    0.120424 0.087922 0.544999 0.366501
S3    S     S_3+6 0.357844 0.822512 0.396479 0.047387
O16   O     O_2   0.258632 0.769415 0.440739 -0.292791
O17   O     O_2   0.322575 0.910155 0.347454 -0.288526
O18   O     O_3   0.418939 0.734599 0.327426 -0.561173
H18   H     H_    0.385844 0.739714 0.271823 0.395998
S4    S     S_3+6 0.177114 0.477743 0.343227 0.105388
O19   O     O_2   0.078653 0.471125 0.289460 -0.243171
O20   O     O_2   0.241152 0.580303 0.326867 -0.242734
O21   O     O_3   0.252798 0.375106 0.312967 -0.524484
H19   H     H_    0.267282 0.378658 0.250333 0.375242
O22   O     O_3   0.237126 0.617278 0.646941 -0.611284
C36   C     C_3   0.206604 0.573877 0.725967 -0.101084
H20   H     H_    0.272050 0.597828 0.771158 0.170006
H21   H     H_    0.198473 0.485775 0.719139 0.212530
H22   H     H_    0.129547 0.604630 0.755193 0.203712
S5    S     S_3+6 0.003206 0.265520 0.394531 0.109621
O23   O     O_2   0.914944 0.178068 0.405792 -0.297071
O24   O     O_2   0.043711 0.261674 0.301990 -0.153375
O25   O     O_3   0.108427 0.244022 0.453141 -0.533363
H23   H     H_    0.152984 0.194752 0.416515 0.388671
O26   O     O_3   0.030977 0.687247 0.644448 -0.543736
C37   C     C_3   0.084429 0.781622 0.614647 -0.034407
H24   H     H_    0.072819 0.788325 0.545312 0.174137
H25   H     H_    0.173046 0.789173 0.627086 0.174709
H26   H     H_    0.047784 0.850034 0.650503 0.208587
S6    S     S_3+6 0.775077 0.361167 0.328426 0.099367
O27   O     O_2   0.664574 0.305738 0.346854 -0.310487
O28   O     O_2   0.763498 0.454864 0.277549 -0.283524
O29   O     O_3   0.845757 0.276378 0.263879 -0.432121
H27   H     H_    0.804124 0.264168 0.211217 0.384896
S7    S     S_3+6 0.805954 0.644424 0.620056 0.073246
O30   O     O_2   0.844936 0.620781 0.705384 -0.257078
O31   O     O_2   0.858129 0.749151 0.595084 -0.327718
O32   O     O_3   0.674192 0.667624 0.639512 -0.560021
H28   H     H_    0.672820 0.721126 0.688932 0.353965
O33   O     O_3   0.675619 0.587806 0.910927 -0.584385
C38   C     C_3   0.722463 0.692470 0.907134 -0.135169
H29   H     H_    0.721779 0.735852 0.971586 0.147901
H30   H     H_    0.679284 0.735579 0.861663 0.144294
H31   H     H_    0.809247 0.689870 0.882973 0.230910
S8    S     S_3+6 0.512736 0.259495 0.890394 0.089076
O34   O     O_2   0.405517 0.210771 0.925558 -0.196536
O35   O     O_2   0.507797 0.266853 0.795434 -0.233938
O36   O     O_3   0.611638 0.180030 0.907216 -0.541005
H32   H     H_    0.591224 0.112308 0.874407 0.389968

loop_
_geom_bond_atom_site_label_1
_geom_bond_atom_site_label_2
_ccdc_geom_bond_type
C2    H1    S    
C22   N2    A    
C31   H8    S    
C5    S8    S    
S2    O15   S    
C37   H24   S    
C3    C6    S    
S7    O31   D    
S8    O34   D    
C37   H26   S    
C22   S7    S    
C7    C8    T    
C4    H12   S    
O18   H18   S    
C15   C19   A    
S3    O17   D    
C14   S3    S    
C27   O22   S    
C17   O12   S    
C21   S6    S    
C20   C25   A    
C2    H2    S    
C15   C16   A    
C29   C33   S    
O1    Zn1   S    
C28   O26   S    
C18   C19   A    
S2    O14   D    
C38   H29   S    
C13   H6    S    
S6    O27   D    
C16   C17   A    
C35   H15   S    
S3    O18   S    
O32   H28   S    
C30   H7    S    
O3    Zn1   S    
S5    O24   D    
C1    O2    A    
C21   N2    A    
C18   S2    S    
S1    O9    D    
C5    C34   S    
S2    O13   D    
S7    O30   D    
C12   O4    A    
C23   O5    A    
C36   H21   S    
C32   H10   S    
S1    O10   D    
S3    O16   D    
C30   C34   S    
O29   H27   S    
O2    Zn2   S    
C24   C25   A    
C10   C14   A    
S4    O20   D    
O5    Zn1   S    
C9    C23   S    
C29   O7    A    
C25   C26   A    
C36   H20   S    
C5    H11   S    
C11   H4    S    
O11   H13   S    
N1    Zn1   S    
C11   C16   A    
C31   C32   S    
C8    C12   S    
C35   H16   S    
C30   S1    S    
C20   C21   A    
C31   O33   S    
C31   C34   S    
C3    C32   S    
O22   C36   S    
S5    O25   S    
C38   H31   S    
O4    Zn2   S    
C26   N1    A    
C9    C17   A    
S6    O28   D    
C35   H14   S    
O7    Zn1   S    
C7    C34   S    
C22   C24   A    
C3    C4    S    
C12   O3    A    
C23   O6    A    
O6    Zn2   S    
C36   H22   S    
C27   N1    A    
S1    O11   S    
C1    C10   S    
C24   C28   A    
O15   H17   S    
C10   C13   A    
S4    O21   S    
S8    O35   D    
C37   H25   S    
N2    Zn2   S    
C29   O8    A    
C20   S5    S    
C26   S4    S    
C6    C33   T    
C2    C30   S    
O12   C35   S    
C2    C3    S    
O36   H32   S    
C11   C13   A    
O25   H23   S    
C32   H9    S    
O8    Zn2   S    
O26   C37   S    
C38   H30   S    
S8    O36   S    
S4    O19   D    
C9    C18   A    
C4    C5    S    
S6    O29   S    
C4    H3    S    
C19   H5    S    
O21   H19   S    
C27   C28   A    
C14   C15   A    
S5    O23   D    
O33   C38   S    
C1    O1    A    
S7    O32   S    
