data_mof_unit_33994.cif
_audit_creation_date              2013-03-05T15:57:36-0500
_audit_creation_method            fapswitch 2.2
_symmetry_space_group_name_H-M    P1
_symmetry_Int_Tables_number       1
_space_group_crystal_system       triclinic
_cell_length_a                    15.134827
_cell_length_b                    14.978106
_cell_length_c                    14.921869
_cell_angle_alpha                 108.453487
_cell_angle_beta                  109.873209
_cell_angle_gamma                 110.442885
_cell_volume                      2591.84846316

loop_
_atom_site_label
_atom_site_type_symbol
_atom_site_description
_atom_site_fract_x
_atom_site_fract_y
_atom_site_fract_z
_atom_type_partial_charge
C1    C     C_R   0.909692 0.975784 0.721684 -0.126159
H1    H     H_    0.825362 0.944959 0.699337 0.104965
N1    N     N_R   0.941940 0.944580 0.650780 -0.043057
C2    C     C_R   0.091300 0.316378 0.552491 -0.129342
H2    H     H_    0.175797 0.382035 0.600619 0.102429
N2    N     N_R   0.056800 0.208900 0.502740 -0.040464
C3    C     C_R   0.302739 0.207840 0.798387 -0.135922
H3    H     H_    0.332725 0.175808 0.849710 0.104281
N3    N     N_R   0.204460 0.150250 0.707090 -0.044149
C4    C     C_R   0.698759 0.996730 0.404812 -0.171056
H4    H     H_    0.670974 0.020555 0.344238 0.104566
N4    N     N_R   0.794270 0.003240 0.446420 -0.038402
C5    C     C_R   0.301757 0.300181 0.707709 -0.134067
H5    H     H_    0.329457 0.351145 0.674239 0.091370
N5    N     N_R   0.204920 0.207570 0.650770 -0.043324
C6    C     C_R   0.698512 0.908680 0.500050 -0.103024
H6    H     H_    0.672268 0.855037 0.531439 0.112767
N6    N     N_R   0.793810 0.945920 0.502740 -0.045639
C7    C     C_R   0.907967 0.221229 0.465037 -0.116512
H7    H     H_    0.823534 0.196381 0.437166 0.111562
N7    N     N_R   0.943620 0.152590 0.446420 -0.041998
C8    C     C_R   0.092382 0.063281 0.812737 -0.131701
H8    H     H_    0.177690 0.110733 0.873791 0.125973
N8    N     N_R   0.055110 0.000900 0.707100 -0.041392
C9    C     C_R   0.002909 0.053473 0.824918 0.054834
C10   C     C_R   0.998143 0.325640 0.528803 0.049204
C11   C     C_R   0.365559 0.301602 0.800273 0.129280
C12   C     C_R   0.637832 0.939968 0.438883 0.071765
C13   C     C_R   0.751096 0.686739 0.278834 -0.152705
H9    H     H_    0.741406 0.622549 0.299874 0.102583
N9    N     N_R   0.795080 0.792430 0.349230 -0.040665
C14   C     C_R   0.246844 0.028604 0.434473 -0.117254
H10   H     H_    0.251871 0.057638 0.377904 0.115764
N10   N     N_R   0.206190 0.054080 0.497260 -0.042007
C15   C     C_R   0.087806 0.791467 0.598384 -0.125857
H11   H     H_    0.171906 0.820812 0.653070 0.125539
N11   N     N_R   0.056380 0.847410 0.553580 -0.044452
C16   C     C_R   0.908222 0.001351 0.200400 -0.150591
H12   H     H_    0.824651 0.976884 0.154912 0.122882
N12   N     N_R   0.944890 0.999100 0.292900 -0.040975
C17   C     C_R   0.089298 0.093467 0.288490 -0.141537
H13   H     H_    0.172853 0.152834 0.318782 0.097739
N13   N     N_R   0.058060 0.055420 0.349220 -0.039614
C18   C     C_R   0.906843 0.705334 0.511036 -0.141627
H14   H     H_    0.823216 0.659835 0.491115 0.091304
N14   N     N_R   0.943200 0.791100 0.497260 -0.038948
C19   C     C_R   0.750875 0.779372 0.186925 -0.122819
H15   H     H_    0.740046 0.800876 0.123154 0.101844
N15   N     N_R   0.795540 0.849750 0.292910 -0.044482
C20   C     C_R   0.257349 0.943378 0.533966 -0.118836
H16   H     H_    0.277016 0.897713 0.572872 0.132066
N16   N     N_R   0.205730 0.996760 0.553580 -0.045936
Ni1   Ni    Ni4+2 0.869690 0.869690 0.500000 0.212964
Ni2   Ni    Ni4+2 0.130310 0.130310 0.500000 0.217327
Ni3   Ni    Ni4+2 0.129250 0.998840 0.629170 0.217955
Ni4   Ni    Ni4+2 0.870750 0.001160 0.370830 0.214578
C21   C     C_R   0.724862 0.676688 0.176537 0.126310
C22   C     C_R   0.285573 0.964739 0.460487 0.040117
C23   C     C_R   0.994997 0.703240 0.575807 0.069167
C24   C     C_R   0.996008 0.060305 0.193186 0.067132
H17   H     H_    0.476040 0.484641 0.381850 0.123303
C25   C     C_R   0.475429 0.592430 0.315575 -0.076547
H18   H     H_    0.487379 0.550340 0.251519 0.127540
C26   C     C_R   0.466951 0.684060 0.324504 -0.191603
H19   H     H_    0.469718 0.709676 0.264768 0.131617
C27   C     C_R   0.458239 0.744335 0.411462 -0.073323
C28   C     C_R   0.456404 0.709882 0.489657 0.366083
C29   C     C_R   0.459881 0.614062 0.475957 -0.232232
H20   H     H_    0.458727 0.586228 0.534466 0.150880
C30   C     C_R   0.470193 0.556357 0.389916 -0.155456
C31   C     C_R   0.367753 0.853925 0.424772 -0.161584
H21   H     H_    0.304355 0.788957 0.422674 0.126056
C32   C     C_R   0.365904 0.949860 0.438217 0.056416
C33   C     C_R   0.446292 0.034363 0.438524 0.019455
C34   C     C_R   0.526950 0.020900 0.426449 -0.244577
H22   H     H_    0.590943 0.088801 0.432316 0.132860
C35   C     C_R   0.535017 0.930125 0.422823 0.066284
C36   C     C_R   0.454116 0.843978 0.419761 0.100060
C37   C     C_R   0.444283 0.175663 0.384271 -0.202221
H23   H     H_    0.419998 0.119325 0.302107 0.111155
C38   C     C_R   0.459255 0.279829 0.409334 -0.125793
H24   H     H_    0.447073 0.303604 0.346865 0.111270
C39   C     C_R   0.490326 0.353191 0.515024 -0.096902
H25   H     H_    0.502295 0.433988 0.534602 0.097938
C40   C     C_R   0.506691 0.322503 0.595814 -0.124353
H26   H     H_    0.531753 0.379721 0.677706 0.117303
C41   C     C_R   0.491604 0.218306 0.571134 -0.110684
H27   H     H_    0.504921 0.195516 0.634478 0.125108
C42   C     C_R   0.459366 0.143896 0.464792 0.117473
H28   H     H_    0.582005 0.157737 0.074883 0.097869
C43   C     C_R   0.753730 0.270709 0.189004 -0.128470
H29   H     H_    0.773245 0.273246 0.126164 0.112261
C44   C     C_R   0.836495 0.333695 0.298925 -0.120243
H30   H     H_    0.919560 0.385469 0.320267 0.115906
C45   C     C_R   0.810984 0.335613 0.381309 0.110801
C46   C     C_R   0.701725 0.272099 0.352071 -0.189383
H31   H     H_    0.680231 0.275473 0.414804 0.128393
C47   C     C_R   0.619763 0.205755 0.241577 -0.124597
H32   H     H_    0.535806 0.156409 0.219023 0.102182
C48   C     C_R   0.645635 0.206229 0.160227 -0.110792
C49   C     C_R   0.889678 0.515009 0.528455 -0.222725
H33   H     H_    0.815935 0.509746 0.476037 0.127666
C50   C     C_R   0.985813 0.615741 0.603003 0.048285
C51   C     C_R   0.077442 0.620652 0.676654 0.033103
C52   C     C_R   0.079617 0.523552 0.654612 -0.231317
H34   H     H_    0.150922 0.525919 0.708198 0.126364
C53   C     C_R   0.991327 0.424651 0.559990 0.068092
C54   C     C_R   0.894818 0.421213 0.496398 0.014613
C55   C     C_R   0.274303 0.768875 0.788260 -0.173929
H35   H     H_    0.291666 0.720298 0.733375 0.170993
C56   C     C_R   0.353963 0.878507 0.865662 -0.115089
H36   H     H_    0.431244 0.913822 0.868969 0.150587
C57   C     C_R   0.331828 0.943843 0.934623 -0.126087
H37   H     H_    0.393503 0.028625 0.994344 0.097666
C58   C     C_R   0.228855 0.900382 0.924647 -0.102641
H38   H     H_    0.211239 0.951330 0.977118 0.107526
C59   C     C_R   0.147209 0.792475 0.843831 -0.128463
H39   H     H_    0.066018 0.761397 0.833241 0.110533
C60   C     C_R   0.169015 0.726375 0.774129 0.094792
C61   C     C_2   0.536762 0.470639 0.879580 -0.140653
C62   C     C_2   0.482290 0.376816 0.877334 -0.192813
H40   H     H_    0.498519 0.485566 0.814435 0.111637
H41   H     H_    0.519726 0.357838 0.938860 0.128716
C63   C     C_2   0.636636 0.567280 0.978234 -0.105791
C64   C     C_2   0.671592 0.573463 0.076594 -0.185569
H42   H     H_    0.665968 0.641223 0.972569 0.114761
H43   H     H_    0.647901 0.501302 0.085439 0.120580
H44   H     H_    0.491960 0.414481 0.093633 0.100707
C65   C     C_R   0.399089 0.289780 0.119415 -0.143010
H45   H     H_    0.467424 0.281394 0.160515 0.118886
C66   C     C_R   0.297259 0.226123 0.104951 -0.188718
H46   H     H_    0.287437 0.167338 0.133745 0.107082
C67   C     C_R   0.208027 0.236483 0.051131 0.123104
C68   C     C_R   0.222840 0.312644 0.013659 -0.139458
H47   H     H_    0.155189 0.321933 0.972295 0.115528
C69   C     C_R   0.325039 0.376275 0.028555 -0.096210
H48   H     H_    0.336335 0.434766 0.999477 0.117931
C70   C     C_R   0.412733 0.364289 0.080830 -0.122128
C71   C     C_R   0.091894 0.161533 0.121473 -0.235285
H49   H     H_    0.166341 0.208282 0.200143 0.126255
C72   C     C_R   0.992200 0.091079 0.107584 0.060747
C73   C     C_R   0.894453 0.045211 0.007643 0.016198
C74   C     C_R   0.901967 0.058133 0.922284 -0.219957
H50   H     H_    0.826593 0.020591 0.846583 0.147043
C75   C     C_R   0.002920 0.101070 0.927950 0.046457
C76   C     C_R   0.099146 0.166166 0.032233 0.027469
C77   C     C_R   0.732939 0.858092 0.916823 -0.153933
H51   H     H_    0.774824 0.823242 0.885352 0.112177
C78   C     C_R   0.628870 0.788702 0.894593 -0.068147
H52   H     H_    0.590029 0.700895 0.845006 0.097849
C79   C     C_R   0.575892 0.832620 0.938226 -0.058934
H53   H     H_    0.496774 0.778674 0.923752 0.107403
C80   C     C_R   0.625049 0.946219 0.000401 -0.142561
H54   H     H_    0.585062 0.980199 0.035892 0.114997
C81   C     C_R   0.726430 0.015985 0.017824 -0.138180
H55   H     H_    0.764411 0.103463 0.066135 0.118896
C82   C     C_R   0.783184 0.972135 0.980806 0.108408
N17   N     N_R   0.456965 0.773322 0.585455 0.219939
O1    O     O_R   0.514321 0.879877 0.636830 -0.427612
O2    O     O_R   0.413755 0.725152 0.631010 -0.456980

loop_
_geom_bond_atom_site_label_1
_geom_bond_atom_site_label_2
_geom_bond_distance
_ccdc_geom_bond_type
H17   C30   1.080710 S    
C6    C12   1.377542 A    
N17   O2    1.301332 A    
C41   H27   1.083220 S    
C71   C76   1.393786 A    
C44   H30   1.083371 S    
C81   C82   1.400471 A    
N1    Ni1   1.840889 S    
C17   H13   1.079629 S    
C45   C46   1.406285 A    
C14   C22   1.371619 A    
C38   H24   1.081149 S    
C11   C62   1.456378 S    
C3    H3    1.082160 S    
C19   N15   1.337629 A    
C35   C36   1.409692 A    
C61   C62   1.340788 D    
N8    Ni3   1.871070 S    
C52   C53   1.408527 A    
C49   H33   1.081505 S    
C33   C42   1.482485 S    
C77   C78   1.397871 A    
N9    N15   1.378403 A    
C57   H37   1.080758 S    
C78   C79   1.397062 A    
C21   C64   1.454860 S    
C16   H12   1.062948 S    
C43   C44   1.395512 A    
C18   C23   1.373649 A    
C74   H50   1.080384 S    
C3    C11   1.378795 A    
C25   C30   1.392158 A    
C15   C23   1.390180 A    
C1    H1    1.074655 S    
C32   C33   1.413899 A    
C7    C10   1.377627 A    
H44   C70   1.078486 S    
C25   C26   1.391646 A    
N6    Ni1   1.882171 S    
C72   C73   1.423384 A    
N12   N13   1.383773 A    
C65   C70   1.395077 A    
C77   H51   1.083165 S    
C61   H40   1.084164 S    
C29   H20   1.082608 S    
N12   Ni4   1.871070 S    
C8    C9    1.390560 A    
C46   C47   1.398519 A    
C19   H15   1.077493 S    
C20   N16   1.333768 A    
C53   C54   1.418026 A    
N3    Ni3   1.848861 S    
C43   C48   1.396324 A    
C80   C81   1.396665 A    
N16   Ni3   1.871809 S    
C51   C60   1.477241 S    
C29   C30   1.395619 A    
C49   C54   1.372864 A    
C27   C28   1.421883 A    
C49   C50   1.390826 A    
C5    H5    1.080761 S    
C1    C9    1.399391 A    
C17   N13   1.341458 A    
N1    N8    1.383772 A    
N2    Ni2   1.881593 S    
H28   C48   1.081092 S    
C51   C52   1.400869 A    
C38   C39   1.397677 A    
C18   N14   1.321207 A    
C75   C76   1.414168 A    
C40   C41   1.397669 A    
C27   C36   1.483228 S    
C62   H41   1.081086 S    
C33   C34   1.364487 A    
C28   C29   1.406660 A    
C20   C22   1.389988 A    
N5    Ni2   1.840521 S    
C2    N2    1.344610 A    
C4    H4    1.082489 S    
C43   H29   1.082106 S    
C31   C32   1.398280 A    
C2    H2    1.080860 S    
C68   C69   1.397348 A    
C58   C59   1.396890 A    
C40   H26   1.080000 S    
N2    N7    1.383898 A    
C1    N1    1.331706 A    
C15   H11   1.074785 S    
C26   C27   1.404996 A    
C34   H22   1.085345 S    
C13   H9    1.080900 S    
C24   C72   1.479408 S    
C19   C21   1.388921 A    
N13   Ni2   1.840890 S    
C39   H25   1.081554 S    
C79   H53   1.082218 S    
C46   H31   1.083154 S    
C25   H18   1.076781 S    
C20   H16   1.081468 S    
C56   C57   1.398102 A    
C6    N6    1.333230 A    
N9    Ni1   1.840524 S    
C12   C35   1.436801 S    
C34   C35   1.392954 A    
N4    Ni4   1.871808 S    
C4    N4    1.318177 A    
C16   C24   1.376377 A    
C69   C70   1.397657 A    
C39   C40   1.397590 A    
C13   C21   1.382424 A    
N10   Ni2   1.882172 S    
C47   C48   1.397712 A    
C5    N5    1.334606 A    
N17   O1    1.301400 A    
C8    N8    1.330719 A    
C73   C82   1.473363 S    
N4    N6    1.378403 A    
C66   H46   1.083264 S    
C77   C82   1.405040 A    
C50   C51   1.406332 A    
C18   H14   1.080819 S    
C55   C60   1.402482 A    
C63   H42   1.082661 S    
C65   H45   1.081578 S    
C4    C12   1.369798 A    
C74   C75   1.395205 A    
C56   H36   1.078116 S    
C7    N7    1.316788 A    
C8    H8    1.073072 S    
C17   C24   1.400156 A    
C69   H48   1.082360 S    
C66   C67   1.407412 A    
C10   C53   1.459136 S    
N7    Ni4   1.849400 S    
C2    C10   1.400331 A    
C71   H49   1.080335 S    
C37   C38   1.396961 A    
C68   H47   1.083001 S    
N15   Ni4   1.848861 S    
C52   H34   1.083474 S    
N10   N16   1.378403 A    
C23   C50   1.466081 S    
C14   H10   1.077214 S    
C7    H7    1.073744 S    
C59   C60   1.407349 A    
N3    N5    1.378404 A    
C15   N11   1.338717 A    
C13   N9    1.337277 A    
C78   H52   1.082086 S    
C26   H19   1.083594 S    
C16   N12   1.317584 A    
C71   C72   1.403516 A    
C58   H38   1.082706 S    
C67   C68   1.405203 A    
C55   C56   1.397722 A    
N14   Ni1   1.881592 S    
C28   N17   1.439646 S    
C79   C80   1.398723 A    
C80   H54   1.080823 S    
C37   C42   1.404797 A    
C45   C54   1.480279 S    
C37   H23   1.082756 S    
N11   Ni3   1.849400 S    
C3    N3    1.339610 A    
C31   H21   1.084729 S    
C22   C32   1.433644 S    
C44   C45   1.403303 A    
C47   H32   1.081617 S    
C55   H35   1.082504 S    
C81   H55   1.077517 S    
C64   H43   1.079791 S    
C41   C42   1.404404 A    
C73   C74   1.382718 A    
C5    C11   1.378750 A    
C9    C75   1.475734 S    
C67   C76   1.479194 S    
C65   C66   1.395710 A    
N11   N14   1.383899 A    
C59   H39   1.083277 S    
C31   C36   1.389858 A    
C61   C63   1.468650 S    
C6    H6    1.079131 S    
C14   N10   1.315889 A    
C63   C64   1.339583 D    
C57   C58   1.395350 A    
