data_mof_unit_38812.cif
_audit_creation_date              2012-12-10T18:18:28-0500
_audit_creation_method            fapswitch 2.2
_symmetry_space_group_name_H-M    P1
_symmetry_Int_Tables_number       1
_space_group_crystal_system       triclinic
_cell_length_a                    14.07365
_cell_length_b                    15.010991
_cell_length_c                    15.551871
_cell_angle_alpha                 89.351412
_cell_angle_beta                  67.49261
_cell_angle_gamma                 89.674621
_cell_volume                      3035.02734501

loop_
_atom_site_label
_atom_site_type_symbol
_atom_type_description
_atom_site_fract_x
_atom_site_fract_y
_atom_site_fract_z
_atom_type_partial_charge
C1    C     C_R   0.499886 0.673443 0.499774 0.903181
C2    C     C_R   0.499840 0.769366 0.499508 -0.076616
C3    C     C_R   0.412302 0.185291 0.503552 -0.257374
C4    C     C_R   0.587698 0.814709 0.496447 -0.257374
C5    C     C_R   0.411597 0.093180 0.503349 0.117917
C6    C     C_R   0.588403 0.906820 0.496651 0.117917
C7    C     C_R   0.500011 0.046345 0.500174 0.062222
C8    C     C_R   0.499989 0.953655 0.499826 0.062222
C9    C     C_R   0.588453 0.092183 0.497314 0.113923
C10   C     C_R   0.411547 0.907817 0.502686 0.113923
C11   C     C_R   0.324100 0.047312 0.506166 -0.213028
C12   C     C_R   0.500114 0.326557 0.500226 0.903182
C13   C     C_R   0.675900 0.952688 0.493834 -0.213028
C14   C     C_R   0.324083 0.954756 0.505818 -0.208781
C15   C     C_R   0.675917 0.045243 0.494182 -0.208781
C16   C     C_R   0.435563 0.500611 0.675957 0.890915
C17   C     C_R   0.564437 0.499389 0.324043 0.890914
C18   C     C_R   0.177780 0.443100 0.557673 -0.088332
C19   C     C_R   0.822220 0.556899 0.442327 -0.088332
C20   C     C_R   0.225822 0.557534 0.441906 0.061486
C21   C     C_R   0.774178 0.442466 0.558094 0.061486
C22   C     C_R   0.125482 0.558725 0.440314 -0.030709
C23   C     C_R   0.379406 0.496486 0.105730 -0.260633
C24   C     C_R   0.874518 0.441275 0.559686 -0.030709
C25   C     C_R   0.050663 0.500167 0.499798 0.087146
C26   C     C_R   0.949337 0.499833 0.500202 0.087146
C27   C     C_R   0.076997 0.441943 0.558970 0.025631
C28   C     C_R   0.923003 0.558057 0.441030 0.025631
C29   C     C_R   0.097584 0.616514 0.381373 -0.192718
C30   C     C_R   0.902416 0.383485 0.618626 -0.192718
C31   C     C_R   0.997777 0.616093 0.381902 -0.178656
C32   C     C_R   0.002223 0.383907 0.618098 -0.178656
C33   C     C_R   0.394754 0.499502 0.777320 -0.079378
C34   C     C_R   0.620594 0.503514 0.894270 -0.260633
C35   C     C_R   0.605246 0.500498 0.222679 -0.079377
C36   C     C_R   0.260454 0.469468 0.927938 -0.000060
C37   C     C_R   0.739546 0.530532 0.072061 -0.000060
C38   C     C_R   0.293714 0.475279 0.830982 -0.227995
C39   C     C_R   0.706286 0.524721 0.169018 -0.227995
C40   C     C_R   0.462679 0.517236 0.819740 -0.235294
C41   C     C_R   0.537321 0.482764 0.180260 -0.235294
C42   C     C_R   0.436977 0.500732 0.914144 0.081267
C43   C     C_R   0.563023 0.499268 0.085856 0.081267
C44   C     C_R   0.331777 0.484397 0.971729 0.056625
C45   C     C_R   0.303760 0.486376 0.069363 -0.030561
C46   C     C_R   0.668223 0.515603 0.028271 0.056625
C47   C     C_R   0.514498 0.501948 0.951561 0.063088
C48   C     C_R   0.485502 0.498051 0.048439 0.063088
C49   C     C_1   0.198459 0.484615 0.135883 0.171609
C50   C     C_1   0.801541 0.515385 0.864116 0.171609
C51   C     C_1   0.303441 0.617552 0.382177 0.209495
C52   C     C_1   0.696558 0.382448 0.617823 0.209495
C53   C     C_1   0.155108 0.441900 0.977433 0.177589
C54   C     C_1   0.844892 0.558100 0.022567 0.177589
C55   C     C_R   0.696240 0.513624 0.930636 -0.030561
C56   C     C_R   0.587876 0.184359 0.497490 -0.238638
C57   C     C_R   0.412124 0.815641 0.502510 -0.238638
C58   C     C_R   0.500159 0.230633 0.500492 -0.076616
H1    H     H_    0.198925 0.398690 0.602805 0.135034
H2    H     H_    0.240995 0.460365 0.797297 0.162171
H3    H     H_    0.352466 0.505166 0.180129 0.153350
H4    H     H_    0.647534 0.494833 0.819871 0.153350
H5    H     H_    0.655795 0.219852 0.495032 0.167250
H6    H     H_    0.344204 0.780148 0.504968 0.167250
H7    H     H_    0.344372 0.221474 0.506051 0.162690
H8    H     H_    0.655628 0.778526 0.493949 0.162690
H9    H     H_    0.255926 0.919935 0.508011 0.149678
H10   H     H_    0.744074 0.080065 0.491989 0.149678
H11   H     H_    0.255951 0.082975 0.508603 0.147937
H12   H     H_    0.801075 0.601310 0.397195 0.135034
H13   H     H_    0.744049 0.917025 0.491397 0.147937
H14   H     H_    0.152607 0.662435 0.334311 0.150821
H15   H     H_    0.847393 0.337565 0.665689 0.150821
H16   H     H_    0.979157 0.661254 0.335763 0.142962
H17   H     H_    0.020842 0.338745 0.664236 0.142962
H18   H     H_    0.463470 0.455227 0.222877 0.158255
H19   H     H_    0.536530 0.544772 0.777123 0.158255
H20   H     H_    0.759004 0.539635 0.202703 0.162171
N1    N     N_R   0.249980 0.499930 0.499960 -0.120540
N2    N     N_R   0.750020 0.500070 0.500040 -0.120540
N3    N     N_1   0.114553 0.483407 0.189839 -0.187772
N4    N     N_1   0.885447 0.516593 0.810161 -0.187772
N5    N     N_1   0.365074 0.665918 0.333826 -0.217660
N6    N     N_1   0.634926 0.334082 0.666174 -0.217660
N7    N     N_1   0.070700 0.419462 0.016271 -0.179505
N8    N     N_1   0.929300 0.580538 0.983729 -0.179505
O1    O     O_R   0.419720 0.632140 0.499980 -0.616792
O2    O     O_R   0.580280 0.367860 0.500020 -0.616793
O3    O     O_R   0.580270 0.632160 0.499970 -0.630777
O4    O     O_R   0.419730 0.367840 0.500030 -0.630777
O5    O     O_R   0.373870 0.499980 0.632250 -0.618812
O6    O     O_R   0.626130 0.500020 0.367750 -0.618812
O7    O     O_R   0.534420 0.500000 0.632240 -0.615465
O8    O     O_R   0.465580 0.500000 0.367760 -0.615465
Zn1   Zn    Zn3+2 0.392800 0.499980 0.500010 0.953854
Zn2   Zn    Zn3+2 0.607200 0.500020 0.499990 0.953854

loop_
_geom_bond_atom_site_label_1
_geom_bond_atom_site_label_2
_ccdc_geom_bond_type
C1    O1    A    
C30   C32   A    
O2    Zn2   S    
C23   C45   A    
C22   C29   A    
C2    C4    A    
O6    Zn2   S    
C32   H17   S    
C2    C57   A    
O4    Zn1   S    
C16   O7    A    
C12   O4    A    
C24   C26   A    
C5    C11   A    
C20   C51   S    
C11   C14   A    
C34   H4    S    
C1    C2    S    
C49   N3    T    
C52   N6    T    
C36   C53   S    
C18   N1    A    
C22   C25   A    
O1    Zn1   S    
C46   C55   A    
C14   H9    S    
N2    Zn2   S    
C43   C48   A    
C29   H14   S    
C12   C58   S    
C40   C42   A    
C34   C55   A    
C41   C43   A    
C3    H7    S    
C17   O6    A    
C42   C44   A    
C33   C40   A    
C12   O2    A    
C39   H20   S    
C7    C8    A    
C10   C57   A    
C19   N2    A    
C4    C6    A    
C10   C14   A    
C54   N8    T    
C30   H15   S    
C31   H16   S    
C6    C8    A    
C13   H13   S    
C25   C26   A    
C35   C39   A    
N1    Zn1   S    
C16   C33   S    
C47   C48   A    
C45   C49   S    
C56   H5    S    
C9    C56   A    
C19   C28   A    
C38   H2    S    
C37   C54   S    
C8    C10   A    
C20   C22   A    
O7    Zn2   S    
C13   C15   A    
C36   C44   A    
C51   N5    T    
C44   C45   A    
C50   N4    T    
C57   H6    S    
C5    C7    A    
C7    C9    A    
C1    O3    A    
C23   C48   A    
C20   N1    A    
C27   C32   A    
C28   C31   A    
C18   C27   A    
C33   C38   A    
C3    C5    A    
C11   H11   S    
C17   O8    A    
C25   C27   A    
C26   C28   A    
C50   C55   S    
O3    Zn2   S    
C36   C38   A    
C9    C15   A    
C29   C31   A    
C41   H18   S    
C4    H8    S    
C15   H10   S    
C21   N2    A    
C56   C58   A    
C42   C47   A    
O8    Zn1   S    
C35   C41   A    
C43   C46   A    
C24   C30   A    
O5    Zn1   S    
C3    C58   A    
C18   H1    S    
C23   H3    S    
C16   O5    A    
C37   C39   A    
C21   C24   A    
C40   H19   S    
C19   H12   S    
C53   N7    T    
C34   C47   A    
C17   C35   S    
C37   C46   A    
C21   C52   S    
C6    C13   A    
