data_mof_unit_19685.cif
_audit_creation_date              2012-10-26T18:59:36-0400
_audit_creation_method            fapswitch 2.2
_symmetry_space_group_name_H-M    P1
_symmetry_Int_Tables_number       1
_space_group_crystal_system       triclinic
_cell_length_a                    23.528842
_cell_length_b                    10.850374
_cell_length_c                    9.556411
_cell_angle_alpha                 90.480286
_cell_angle_beta                  89.018799
_cell_angle_gamma                 90.927723
_cell_volume                      2438.96286438

loop_
_atom_site_label
_atom_site_type_symbol
_atom_type_description
_atom_site_fract_x
_atom_site_fract_y
_atom_site_fract_z
_atom_type_partial_charge
C1    C     C_R   0.498729 0.262390 0.499600 0.550888
C2    C     C_R   0.120875 0.609861 0.455924 0.411249
C3    C     C_R   0.236903 0.557950 0.611938 0.022283
C4    C     C_R   0.390983 0.502197 0.501229 0.559241
C5    C     C_R   0.296810 0.559534 0.615154 -0.042560
C6    C     C_R   0.328249 0.505129 0.503336 -0.007311
C7    C     C_R   0.299221 0.452866 0.389644 -0.141283
C8    C     C_R   0.240192 0.452723 0.386520 -0.055578
C9    C     C_R   0.208859 0.504722 0.496809 0.214207
C10   C     C_R   0.761091 0.490730 0.618620 -0.056602
C11   C     C_R   0.701830 0.491416 0.621465 -0.146292
C12   C     C_R   0.969166 0.284801 0.550077 -0.116580
C13   C     C_R   0.671644 0.498361 0.496140 0.004373
C14   C     C_R   0.701861 0.503733 0.368055 -0.141650
C15   C     C_R   0.761110 0.503492 0.365555 -0.054596
C16   C     C_R   0.498801 0.737762 0.500324 0.549125
C17   C     C_R   0.790880 0.497143 0.490754 0.242375
C18   C     C_R   0.492530 0.065183 0.625452 0.040448
C19   C     C_R   0.492865 0.129281 0.499405 -0.002160
C20   C     C_R   0.485151 0.063031 0.373897 -0.146670
C21   C     C_R   0.485152 0.934345 0.374334 -0.146207
C22   C     C_R   0.492826 0.870884 0.500326 0.007546
C23   C     C_R   0.028339 0.286205 0.550196 -0.109247
C24   C     C_R   0.492467 0.937936 0.625572 0.024378
C25   C     C_3   0.532508 0.934099 0.744670 -0.272065
C26   C     C_3   0.533427 0.073869 0.743431 -0.123720
C27   C     C_R   0.547774 0.533120 0.071876 0.157740
C28   C     C_R   0.609049 0.499625 0.498879 0.545335
C29   C     C_R   0.456038 0.449688 0.076955 0.018479
C30   C     C_R   0.456210 0.447466 0.928483 0.102597
C31   C     C_R   0.548053 0.531659 0.924889 0.148630
C32   C     C_3   0.581107 0.649327 0.917971 -0.277383
C33   C     C_3   0.579621 0.652737 0.077060 -0.270443
C34   C     C_R   0.059155 0.394748 0.518810 0.033545
C35   C     C_R   0.880610 0.604933 0.455481 0.403934
C36   C     C_R   0.879868 0.392568 0.519089 0.403333
C37   C     C_R   0.939497 0.391902 0.518541 0.031460
C38   C     C_R   0.969948 0.501279 0.485815 -0.029089
C39   C     C_R   0.940290 0.608596 0.453715 0.017935
C40   C     C_1   0.508239 0.126732 0.871881 0.230878
C41   C     C_1   0.410843 0.379697 0.862405 0.269747
C42   C     C_1   0.057190 0.837811 0.388641 0.279185
C43   C     C_1   0.203752 0.610339 0.726213 0.257667
C44   C     C_1   0.325315 0.621439 0.730001 0.239533
C45   C     C_R   0.030037 0.503192 0.485820 -0.036225
C46   C     C_R   0.060757 0.613068 0.453577 0.017830
C47   C     C_R   0.030030 0.720827 0.421316 -0.024714
C48   C     C_R   0.970600 0.717171 0.421611 -0.127101
C49   C     C_R   0.118600 0.397535 0.520804 0.411282
Cu1   Cu    Cu3+1 0.500000 0.499980 0.640670 0.988177
Cu2   Cu    Cu3+1 0.500000 0.500020 0.359330 0.959751
H1    H     H_    0.946785 0.199592 0.575188 0.173447
H2    H     H_    0.049842 0.201920 0.575457 0.182418
H3    H     H_    0.624482 0.636659 0.872909 0.126196
H4    H     H_    0.556580 0.722616 0.869952 0.146761
H5    H     H_    0.553666 0.728910 0.121295 0.150220
H6    H     H_    0.947950 0.800343 0.397034 0.169822
H7    H     H_    0.322295 0.410893 0.303017 0.135885
H8    H     H_    0.218561 0.411944 0.297924 0.149452
H9    H     H_    0.783946 0.485858 0.715762 0.131005
H10   H     H_    0.575286 0.115700 0.713304 0.119619
H11   H     H_    0.622306 0.643610 0.123337 0.127691
H12   H     H_    0.679754 0.486255 0.721617 0.124224
H13   H     H_    0.679827 0.508210 0.269799 0.123977
H14   H     H_    0.783966 0.508049 0.266364 0.131115
H15   H     H_    0.481891 0.110058 0.274944 0.169159
H16   H     H_    0.481916 0.885370 0.275496 0.145870
H17   H     H_    0.511174 0.894143 0.838994 0.145792
H18   H     H_    0.574136 0.893618 0.714560 0.123854
H19   H     H_    0.420646 0.409097 0.134968 0.124760
N1    N     N_R   0.851803 0.498131 0.488137 -0.399029
N2    N     N_R   0.147931 0.503890 0.490565 -0.402203
N3    N     N_R   0.500360 0.500930 0.147930 -0.241186
N4    N     N_R   0.500360 0.500890 0.852020 -0.246418
N5    N     N_1   0.488735 0.166780 0.974110 -0.324812
N6    N     N_1   0.374252 0.323850 0.811190 -0.269442
N7    N     N_1   0.078673 0.931750 0.362518 -0.218887
N8    N     N_1   0.177216 0.652142 0.817424 -0.241750
N9    N     N_1   0.347998 0.671017 0.821639 -0.267869
O1    O     O_R   0.500000 0.319640 0.618810 -0.494400
O2    O     O_R   0.582120 0.500020 0.618760 -0.509813
O3    O     O_R   0.582120 0.500060 0.381180 -0.501996
O4    O     O_2   0.851528 0.707472 0.426052 -0.488506
O5    O     O_2   0.850123 0.288567 0.549629 -0.487178
O6    O     O_2   0.147050 0.295017 0.553796 -0.466216
O7    O     O_2   0.152434 0.710964 0.424200 -0.455208
O8    O     O_R   0.500010 0.319680 0.381230 -0.500674
O9    O     O_R   0.417880 0.499940 0.618820 -0.482296
O10   O     O_R   0.417880 0.499980 0.381240 -0.512771
O11   O     O_R   0.499990 0.680320 0.618770 -0.497299
O12   O     O_R   0.500000 0.680360 0.381190 -0.508986

loop_
_geom_bond_atom_site_label_1
_geom_bond_atom_site_label_2
_ccdc_geom_bond_type
C1    O8    A    
C16   O11   A    
C10   H9    S    
C19   C20   A    
C18   C26   S    
C9    N2    S    
C7    C8    A    
C45   C46   A    
C27   C33   S    
C43   N8    T    
C12   C23   A    
C3    C43   S    
C29   C30   A    
C18   C24   A    
C20   H15   S    
C36   C37   A    
C26   H10   S    
C4    O10   A    
C11   H12   S    
Cu1   N4    S    
C8    H8    S    
C38   C39   A    
C30   N4    A    
C29   N3    A    
C10   C17   A    
C15   H14   S    
C18   C19   A    
C12   C37   A    
C38   C45   A    
Cu2   O12   S    
Cu1   O11   S    
C31   C32   S    
C8    C9    A    
C49   N2    A    
C30   C41   S    
C13   C14   A    
C32   H4    S    
C36   N1    A    
Cu1   O9    S    
C33   H5    S    
C35   N1    A    
C21   C22   A    
C21   H16   S    
C25   H17   S    
C2    N2    A    
C32   H3    S    
C12   H1    S    
C23   H2    S    
C1    C19   S    
C27   C31   A    
C49   O6    S    
C48   H6    S    
C24   C25   S    
C4    C6    S    
Cu2   O8    S    
C35   O4    S    
C33   H11   S    
C31   N4    A    
C25   C26   S    
C28   O3    A    
C2    C46   A    
C35   C39   A    
C37   C38   A    
C3    C9    A    
C47   C48   A    
C23   C34   A    
C14   H13   S    
Cu1   Cu2   S    
C13   C28   S    
C34   C45   A    
Cu2   O3    S    
C42   N7    T    
C5    C44   S    
C17   N1    S    
C22   C24   A    
C25   H18   S    
C29   H19   S    
C15   C17   A    
C46   C47   A    
C34   C49   A    
C16   C22   S    
C7    H7    S    
C28   O2    A    
C44   N9    T    
Cu2   N3    S    
C3    C5    A    
Cu1   O1    S    
C6    C7    A    
C4    O9    A    
C40   N5    T    
C32   C33   S    
Cu2   O10   S    
C41   N6    T    
C11   C13   A    
C26   C40   S    
C5    C6    A    
C36   O5    S    
C2    O7    S    
C42   C47   S    
C10   C11   A    
C20   C21   A    
C16   O12   A    
C1    O1    A    
C14   C15   A    
C27   N3    A    
Cu1   O2    S    
C39   C48   A    
