data_mof_unit_15892.cif
_audit_creation_date              2012-12-10T19:06:43-0500
_audit_creation_method            fapswitch 2.2
_symmetry_space_group_name_H-M    P1
_symmetry_Int_Tables_number       1
_space_group_crystal_system       triclinic
_cell_length_a                    13.02488
_cell_length_b                    13.598182
_cell_length_c                    16.693334
_cell_angle_alpha                 88.906836
_cell_angle_beta                  95.799477
_cell_angle_gamma                 93.954916
_cell_volume                      2934.27830908

loop_
_atom_site_label
_atom_site_type_symbol
_atom_type_description
_atom_site_fract_x
_atom_site_fract_y
_atom_site_fract_z
_atom_type_partial_charge
C1    C     C_R   0.481559 0.314922 0.501100 0.893469
C2    C     C_2   0.963339 0.464306 0.488000 -0.109469
C3    C     C_1   0.852678 0.477135 0.487339 0.100649
C4    C     C_1   0.147329 0.525358 0.507620 0.074973
C5    C     C_R   0.482131 0.504154 0.347029 0.861001
C6    C     C_R   0.518346 0.498092 0.653560 0.847491
C7    C     C_R   0.464907 0.523818 0.260827 -0.128655
C8    C     C_R   0.539470 0.507132 0.741278 -0.149354
C9    C     C_R   0.511805 0.467217 0.206694 -0.024714
C10   C     C_R   0.461548 0.477787 0.791406 -0.019661
C11   C     C_R   0.509159 0.497862 0.126527 -0.186050
C12   C     C_R   0.518600 0.685080 0.499547 0.904747
C13   C     C_R   0.472885 0.508788 0.870908 -0.188231
C14   C     C_R   0.466615 0.586723 0.100894 0.107262
C15   C     C_R   0.555460 0.574686 0.899652 0.106089
C16   C     C_R   0.415336 0.639316 0.153359 -0.227968
C17   C     C_R   0.635887 0.597277 0.852037 -0.232984
C18   C     C_R   0.411231 0.607213 0.232661 -0.032421
C19   C     C_R   0.632245 0.558247 0.775129 -0.024146
C20   C     C_2   0.473838 0.622486 0.017546 -0.084214
C21   C     C_2   0.562593 0.610168 0.983412 -0.083306
C22   C     C_R   0.564421 0.376599 0.232447 0.129830
C23   C     C_1   0.533539 0.788216 0.499550 -0.182778
C24   C     C_R   0.513248 0.300589 0.274578 -0.146411
C25   C     C_R   0.564102 0.216547 0.300169 -0.121645
C26   C     C_R   0.666036 0.207420 0.283643 -0.104276
C27   C     C_R   0.717117 0.282080 0.241107 -0.161152
C28   C     C_R   0.666688 0.366349 0.215589 -0.144857
C29   C     C_R   0.370518 0.410365 0.764488 0.140630
C30   C     C_R   0.383719 0.320360 0.727972 -0.119864
C31   C     C_R   0.298472 0.254312 0.707425 -0.124299
C32   C     C_R   0.199719 0.277251 0.723564 -0.140226
C33   C     C_R   0.185582 0.367208 0.758559 -0.160037
C34   C     C_1   0.467378 0.211806 0.503972 -0.197599
C35   C     C_R   0.270525 0.433526 0.779093 -0.147391
C36   C     C_R   0.730774 0.561931 0.737592 0.158351
C37   C     C_R   0.776026 0.473437 0.724388 -0.097238
C38   C     C_R   0.875570 0.475283 0.699891 -0.160062
C39   C     C_R   0.931132 0.565263 0.689328 -0.113143
C40   C     C_R   0.886327 0.653696 0.701212 -0.124260
C41   C     C_R   0.786524 0.652226 0.725444 -0.166304
C42   C     C_R   0.351120 0.663875 0.283959 0.135725
C43   C     C_R   0.251901 0.627058 0.300218 -0.097748
C44   C     C_R   0.191590 0.683135 0.343984 -0.136951
C45   C     C_2   0.544775 0.979472 0.499337 -0.172902
C46   C     C_R   0.229675 0.776301 0.371563 -0.100559
C47   C     C_R   0.327821 0.813945 0.354548 -0.134977
C48   C     C_R   0.388486 0.758079 0.310713 -0.175120
C49   C     C_R   0.664960 0.613253 0.033681 0.135215
C50   C     C_R   0.734805 0.539925 0.027038 -0.186313
C51   C     C_R   0.829101 0.542665 0.075352 -0.161468
C52   C     C_R   0.854408 0.617926 0.131133 -0.114278
C53   C     C_R   0.785684 0.690930 0.138425 -0.141485
C54   C     C_R   0.691586 0.688912 0.089890 -0.129460
C55   C     C_R   0.378434 0.654463 0.968914 0.127013
C56   C     C_2   0.457393 0.020610 0.508459 -0.184802
C57   C     C_R   0.280391 0.608562 0.979707 -0.183362
C58   C     C_R   0.192305 0.636475 0.932154 -0.150347
C59   C     C_R   0.200902 0.710338 0.873463 -0.120830
C60   C     C_R   0.297558 0.756898 0.862548 -0.144918
C61   C     C_R   0.385870 0.729465 0.910076 -0.127234
C62   C     C_R   0.991249 0.361963 0.475203 0.136051
C63   C     C_R   0.059349 0.314380 0.531449 -0.141401
C64   C     C_R   0.083846 0.217756 0.518470 -0.134034
C65   C     C_R   0.039310 0.167354 0.450048 -0.120327
C66   C     C_R   0.970247 0.213485 0.394423 -0.146127
C67   C     C_1   0.458854 0.124372 0.506455 -0.013843
C68   C     C_R   0.946175 0.310275 0.406904 -0.149255
C69   C     C_R   0.009454 0.646160 0.501766 0.144590
C70   C     C_R   0.064706 0.712037 0.557186 -0.164063
C71   C     C_R   0.042986 0.811310 0.556889 -0.172009
C72   C     C_R   0.966986 0.846446 0.500683 -0.123498
C73   C     C_R   0.913282 0.782571 0.444122 -0.133066
C74   C     C_R   0.934876 0.683282 0.444032 -0.146197
C75   C     C_1   0.542757 0.875672 0.499420 -0.011280
C76   C     C_2   0.036695 0.541251 0.500188 -0.117235
H1    H     H_    0.378848 0.705745 0.132545 0.151513
H2    H     H_    0.460089 0.300644 0.716699 0.097096
H3    H     H_    0.309126 0.184902 0.679718 0.122808
H4    H     H_    0.133937 0.225587 0.708513 0.119981
H5    H     H_    0.108866 0.385323 0.770189 0.127282
H6    H     H_    0.258494 0.502694 0.806663 0.145569
H7    H     H_    0.735148 0.403076 0.735139 0.112865
H8    H     H_    0.910410 0.406947 0.690520 0.123821
H9    H     H_    0.009250 0.566109 0.672673 0.127998
H10   H     H_    0.929646 0.723371 0.693226 0.137450
H11   H     H_    0.753703 0.721108 0.736627 0.123689
H12   H     H_    0.704181 0.641069 0.876492 0.149570
H13   H     H_    0.221072 0.555428 0.278334 0.117384
H14   H     H_    0.114949 0.654649 0.355708 0.130172
H15   H     H_    0.182759 0.819667 0.405368 0.136620
H16   H     H_    0.356611 0.886685 0.374847 0.138195
H17   H     H_    0.464069 0.788246 0.297277 0.125095
H18   H     H_    0.715725 0.479761 0.985434 0.137153
H19   H     H_    0.882163 0.485827 0.070068 0.128252
H20   H     H_    0.927178 0.619568 0.168823 0.121836
H21   H     H_    0.805324 0.749155 0.181736 0.122589
H22   H     H_    0.639313 0.746231 0.096215 0.124087
H23   H     H_    0.416482 0.481112 0.910687 0.141863
H24   H     H_    0.272180 0.549748 0.023700 0.137047
H25   H     H_    0.117410 0.600216 0.940374 0.134632
H26   H     H_    0.132682 0.731405 0.836383 0.123196
H27   H     H_    0.304116 0.814208 0.817104 0.126344
H28   H     H_    0.460153 0.766388 0.900748 0.127323
H29   H     H_    0.385830 0.977173 0.516611 0.152128
H30   H     H_    0.616207 0.022936 0.490827 0.158037
H31   H     H_    0.092796 0.351988 0.585352 0.137913
H32   H     H_    0.137034 0.181668 0.561528 0.124650
H33   H     H_    0.058078 0.092477 0.440272 0.118223
H34   H     H_    0.542505 0.453199 0.084074 0.138972
H35   H     H_    0.935420 0.174316 0.341568 0.120311
H36   H     H_    0.892899 0.345278 0.363103 0.129466
H37   H     H_    0.124306 0.686530 0.601104 0.124138
H38   H     H_    0.085313 0.861066 0.600216 0.125704
H39   H     H_    0.950413 0.923373 0.500457 0.122975
H40   H     H_    0.855610 0.810227 0.399685 0.125101
H41   H     H_    0.895037 0.636269 0.397569 0.122714
H42   H     H_    0.434143 0.306462 0.287655 0.108195
H43   H     H_    0.524459 0.158437 0.332771 0.132764
H44   H     H_    0.705378 0.142440 0.303665 0.116671
H45   H     H_    0.796016 0.274873 0.228204 0.120050
H46   H     H_    0.707778 0.424176 0.183752 0.145507
N1    N     N_1   0.235630 0.515160 0.512550 -0.081897
N2    N     N_1   0.764370 0.484840 0.487450 -0.082346
O1    O     O_R   0.402910 0.365220 0.504590 -0.602606
O2    O     O_R   0.597090 0.634780 0.495410 -0.605569
O3    O     O_R   0.572660 0.355490 0.496530 -0.598538
O4    O     O_R   0.427340 0.644510 0.503470 -0.592680
O5    O     O_R   0.405090 0.505430 0.388710 -0.612161
O6    O     O_R   0.594910 0.494570 0.611290 -0.607407
O7    O     O_R   0.574840 0.495690 0.380650 -0.593065
O8    O     O_R   0.425160 0.504310 0.619350 -0.590923
Zn1   Zn    Zn3+2 0.386660 0.506500 0.505380 0.982530
Zn2   Zn    Zn3+2 0.613340 0.493500 0.494620 0.984437

loop_
_geom_bond_atom_site_label_1
_geom_bond_atom_site_label_2
_ccdc_geom_bond_type
C66   C68   A    
C17   H12   S    
C47   H16   S    
O3    Zn2   S    
C6    O6    A    
O7    Zn2   S    
C21   C49   S    
C27   H45   S    
C2    C76   D    
C53   C54   A    
C3    N2    T    
C72   H39   S    
C26   C27   A    
C62   C63   A    
C73   H40   S    
N1    Zn1   S    
C36   C37   A    
C1    O1    A    
C19   C36   S    
C18   C42   S    
C68   H36   S    
C38   C39   A    
C11   C14   A    
C28   H46   S    
C9    C22   S    
C12   O2    A    
C49   C54   A    
C69   C76   S    
C15   C17   A    
C16   H1    S    
C73   C74   A    
C40   H10   S    
C17   C19   A    
C31   C32   A    
C45   C56   D    
O8    Zn1   S    
C70   C71   A    
C66   H35   S    
C29   C30   A    
C5    O5    A    
C59   C60   A    
C22   C28   A    
C11   H34   S    
C36   C41   A    
O6    Zn2   S    
C20   C55   S    
C25   H43   S    
C35   H6    S    
C44   C46   A    
C1    C34   S    
C64   H32   S    
C70   H37   S    
C41   H11   S    
C71   H38   S    
C8    C19   A    
C48   H17   S    
C51   C52   A    
C14   C20   S    
C61   H28   S    
C24   C25   A    
C6    O8    A    
C23   C75   T    
C39   C40   A    
C5    C7    S    
C50   H18   S    
C6    C8    S    
C46   H15   S    
C53   H21   S    
C58   C59   A    
C57   H24   S    
C4    N1    T    
C60   C61   A    
C13   H23   S    
C43   C44   A    
C37   C38   A    
C32   H4    S    
C47   C48   A    
C12   C23   S    
C5    O7    A    
C7    C18   A    
C50   C51   A    
C69   C74   A    
C58   H25   S    
C42   C48   A    
C9    C11   A    
C65   H33   S    
O5    Zn1   S    
C16   C18   A    
C40   C41   A    
C49   C50   A    
C55   C57   A    
C45   H30   S    
C14   C16   A    
C42   C43   A    
C39   H9    S    
C63   H31   S    
C60   H27   S    
C44   H14   S    
C52   C53   A    
O1    Zn1   S    
C7    C9    A    
C74   H41   S    
C46   C47   A    
C38   H8    S    
C59   H26   S    
C37   H7    S    
C1    O3    A    
C26   H44   S    
C72   C73   A    
C10   C13   A    
C34   C67   T    
C31   H3    S    
C12   O4    A    
C62   C68   A    
C56   C67   S    
C29   C35   A    
C24   H42   S    
N2    Zn2   S    
C45   C75   S    
C64   C65   A    
C13   C15   A    
C2    C3    S    
C25   C26   A    
C71   C72   A    
O4    Zn1   S    
C32   C33   A    
C10   C29   S    
C57   C58   A    
C30   C31   A    
C55   C61   A    
C33   C35   A    
C52   H20   S    
C22   C24   A    
C43   H13   S    
C69   C70   A    
C56   H29   S    
C4    C76   S    
C63   C64   A    
C30   H2    S    
C15   C21   S    
C20   C21   D    
O2    Zn2   S    
C8    C10   A    
C65   C66   A    
C27   C28   A    
C54   H22   S    
C33   H5    S    
C2    C62   S    
C51   H19   S    
