data_mof_unit_6782.cif
_audit_creation_date              2012-12-11T14:56:49-0500
_audit_creation_method            fapswitch 2.2
_symmetry_space_group_name_H-M    P1
_symmetry_Int_Tables_number       1
_space_group_crystal_system       triclinic
_cell_length_a                    10.48874
_cell_length_b                    10.633271
_cell_length_c                    16.987245
_cell_angle_alpha                 80.152357
_cell_angle_beta                  89.937018
_cell_angle_gamma                 118.888595
_cell_volume                      1626.66384658

loop_
_atom_site_label
_atom_site_type_symbol
_atom_type_description
_atom_site_fract_x
_atom_site_fract_y
_atom_site_fract_z
_atom_type_partial_charge
C1    C     C_R   0.280718 0.889638 0.132754 0.561191
C2    C     C_1   0.685094 0.403403 0.709949 -0.030844
C3    C     C_R   0.628380 0.713731 0.805172 -0.130436
C4    C     C_R   0.638531 0.283859 0.084930 0.537793
C5    C     C_R   0.613177 0.698280 0.726672 -0.120212
C6    C     C_R   0.668408 0.822657 0.665128 0.035980
C7    C     C_R   0.744045 0.963110 0.682197 -0.135815
C8    C     C_R   0.755731 0.978852 0.761443 -0.132343
C9    C     C_R   0.691649 0.853618 0.822942 0.020046
C10   C     C_R   0.072754 0.890546 0.793580 -0.138077
C11   C     C_R   0.035869 0.873742 0.716705 -0.168049
C12   C     C_R   0.828790 0.452088 0.251924 0.207815
C13   C     C_R   0.051035 0.770747 0.682235 0.014480
C14   C     C_R   0.086562 0.670652 0.730217 0.221661
C15   C     C_R   0.126443 0.690791 0.806919 -0.089971
C16   C     C_R   0.643962 0.855220 0.123951 0.543072
C17   C     C_R   0.128992 0.806611 0.836441 -0.020952
C18   C     C_R   0.711700 0.771988 0.353754 0.533559
C19   C     C_R   0.728194 0.460646 0.382748 0.558121
C20   C     C_R   0.109711 0.813135 0.360315 0.561326
C21   C     C_R   0.676952 0.800662 0.585059 0.547476
C22   C     C_R   0.717779 0.447147 0.625905 0.538913
C23   C     C_R   0.807460 0.421917 0.175855 -0.080516
C24   C     C_R   0.029290 0.773874 0.597165 0.547044
C25   C     C_R   0.213093 0.857568 0.903242 0.560060
C26   C     C_R   0.640369 0.291687 0.862129 0.549500
C27   C     C_R   0.648108 0.866686 0.899842 0.544780
C28   C     C_R   0.555210 0.366834 0.192515 -0.143575
C29   C     C_R   0.578192 0.406805 0.267163 -0.163612
C30   C     C_R   0.711912 0.440353 0.299734 0.009982
C31   C     C_R   0.668054 0.366605 0.148846 -0.018572
C32   C     C_1   0.686010 0.830523 0.201435 -0.018735
C33   C     C_1   0.704393 0.806163 0.270387 -0.029674
C34   C     C_1   0.231065 0.856097 0.215869 0.009953
C35   C     C_1   0.182178 0.836607 0.283629 0.020259
C36   C     C_1   0.661908 0.359327 0.780669 -0.028089
Cl1   Cl    Cl    0.094383 0.525026 0.697968 -0.578363
Cl2   Cl    Cl    0.999652 0.486875 0.285467 -0.584239
Cr1   Cr    Cr6+3 0.402240 0.783890 0.019450 1.047610
Cr2   Cr    Cr6+3 0.382360 0.097900 0.991800 1.029717
Cr3   Cr    Cr6+3 0.715380 0.118170 0.988700 1.040021
Cr4   Cr    Cr6+3 0.936650 0.882420 0.465510 1.048659
Cr5   Cr    Cr6+3 0.605770 0.565620 0.493360 1.056336
Cr6   Cr    Cr6+3 0.921340 0.550490 0.496380 1.122341
H1    H     H_    0.447346 0.327066 0.171725 0.152077
H2    H     H_    0.068648 0.977620 0.816580 0.157105
H3    H     H_    0.002896 0.947082 0.682490 0.154382
H4    H     H_    0.165091 0.622178 0.841071 0.165512
H5    H     H_    0.487913 0.401339 0.301412 0.166284
H6    H     H_    0.897410 0.427107 0.141285 0.176556
H7    H     H_    0.579685 0.616378 0.852184 0.132766
H8    H     H_    0.560378 0.588657 0.714125 0.143475
H9    H     H_    0.792914 0.059328 0.634522 0.157233
H10   H     H_    0.804824 0.088159 0.774397 0.171577
O1    O     O_R   0.521780 0.757110 0.108900 -0.509079
O2    O     O_R   0.805020 0.410040 0.421340 -0.428426
O3    O     O_R   0.049240 0.685450 0.403290 -0.459747
O4    O     O_R   0.275160 0.783810 0.101120 -0.468429
O5    O     O_R   0.077520 0.903010 0.551800 -0.496399
O6    O     O_R   0.802980 0.872780 0.546830 -0.520898
O7    O     O_R   0.578090 0.681300 0.569920 -0.493830
O8    O     O_R   0.608530 0.436370 0.586530 -0.484694
O9    O     O_R   0.798770 0.401880 0.597100 -0.459106
O10   O     O_R   0.043450 0.677890 0.566230 -0.439460
O11   O     O_3   0.821250 0.666180 0.485090 -0.368100
O12   O     O_R   0.513330 0.228330 0.898660 -0.496210
O13   O     O_R   0.237900 0.972600 0.090980 -0.513976
O14   O     O_R   0.511190 0.220540 0.061620 -0.519230
O15   O     O_R   0.736920 0.257720 0.063840 -0.516885
O16   O     O_R   0.710450 0.984050 0.081720 -0.491448
O17   O     O_R   0.524090 0.765520 0.933110 -0.513147
O18   O     O_R   0.277300 0.791600 0.938160 -0.497688
O19   O     O_R   0.240210 0.981010 0.915190 -0.508907
O20   O     O_R   0.739230 0.266130 0.888050 -0.495837
O21   O     O_R   0.712580 0.991850 0.918770 -0.503593
O22   O     O_3   0.499990 0.999980 0.999980 -0.270566
O23   O     O_R   0.083770 0.911170 0.376030 -0.511476
O24   O     O_R   0.808770 0.880340 0.383890 -0.467145
O25   O     O_R   0.584340 0.689460 0.394160 -0.487488
O26   O     O_R   0.614320 0.443940 0.423590 -0.510824

loop_
_geom_bond_atom_site_label_1
_geom_bond_atom_site_label_2
_ccdc_geom_bond_type
C19   O2    A    
C11   H3    S    
C7    C8    A    
C29   H5    S    
Cr6   O10   S    
C12   C23   A    
Cr5   O7    S    
C20   O23   A    
C28   C29   A    
C5    C6    A    
C22   O8    A    
C10   C17   A    
Cr5   O25   S    
Cr2   O19   S    
C34   C35   T    
C1    O13   A    
C22   O9    A    
C20   C35   S    
Cr1   O1    S    
C18   O25   A    
Cr2   O13   S    
C10   H2    S    
Cr4   O11   S    
Cr1   O18   S    
C5    H8    S    
C21   O7    A    
Cr5   O11   S    
Cr3   O20   S    
C24   O10   A    
Cr2   O12   S    
C13   C14   A    
Cr6   O11   S    
C15   H4    S    
C27   O21   A    
C4    O15   A    
C1    C34   S    
Cr6   O9    S    
C28   H1    S    
C26   O12   A    
C16   O16   A    
C21   O6    A    
C8    H10   S    
C4    O14   A    
C3    H7    S    
C8    C9    A    
C23   H6    S    
Cr5   O26   S    
C6    C21   S    
Cr2   O22   S    
C13   C24   S    
C23   C31   A    
C2    C22   S    
C29   C30   A    
C3    C9    A    
Cr3   O21   S    
Cr6   O2    S    
Cr6   O3    S    
C18   O24   A    
C25   O18   A    
Cr1   O22   S    
C26   C36   S    
Cr4   O24   S    
C7    H9    S    
Cr4   O6    S    
C27   O17   A    
C9    C27   S    
Cr3   O15   S    
C2    C36   T    
C15   C17   A    
C12   C30   A    
C28   C31   A    
C3    C5    A    
Cr4   O5    S    
C6    C7    A    
C16   C32   S    
C17   C25   S    
C32   C33   T    
C16   O1    A    
C1    O4    A    
Cr3   O22   S    
C11   C13   A    
C24   O5    A    
Cr1   O4    S    
C26   O20   A    
C25   O19   A    
C12   Cl2   S    
C19   O26   A    
C18   C33   S    
C4    C31   S    
C10   C11   A    
Cr4   O23   S    
Cr2   O14   S    
Cr1   O17   S    
C14   C15   A    
C20   O3    A    
C19   C30   S    
Cr5   O8    S    
Cr3   O16   S    
C14   Cl1   S    
