data_mof_unit_17953.cif
_audit_creation_date              2012-12-10T20:40:54-0500
_audit_creation_method            fapswitch 2.2
_symmetry_space_group_name_H-M    P1
_symmetry_Int_Tables_number       1
_space_group_crystal_system       triclinic
_cell_length_a                    27.70093
_cell_length_b                    10.681481
_cell_length_c                    9.8661
_cell_angle_alpha                 90.301339
_cell_angle_beta                  89.986945
_cell_angle_gamma                 89.789335
_cell_volume                      2919.19011546

loop_
_atom_site_label
_atom_site_type_symbol
_atom_type_description
_atom_site_fract_x
_atom_site_fract_y
_atom_site_fract_z
_atom_type_partial_charge
C1    C     C_R   0.501463 0.259907 0.499711 0.870422
C2    C     C_R   0.279322 0.401131 0.417753 -0.105119
C3    C     C_R   0.253753 0.491027 0.492990 0.252985
C4    C     C_R   0.102046 0.496539 0.479329 -0.054150
C5    C     C_R   0.126773 0.386824 0.517122 -0.018728
C6    C     C_R   0.100830 0.278882 0.548242 -0.139792
C7    C     C_R   0.128404 0.604434 0.445859 -0.017530
C8    C     C_R   0.354113 0.489130 0.499269 -0.112704
C9    C     C_R   0.646529 0.502057 0.498631 -0.212329
C10   C     C_R   0.974233 0.387145 0.487215 0.045961
C11   C     C_R   0.975507 0.616472 0.457889 0.045630
C12   C     C_R   0.406351 0.496789 0.499894 0.869382
C13   C     C_R   0.949618 0.503017 0.472887 0.074707
C14   C     C_R   0.947028 0.275494 0.488019 -0.215780
C15   C     C_R   0.897010 0.278514 0.483795 -0.135756
C16   C     C_R   0.872447 0.392829 0.480130 -0.044289
C17   C     C_R   0.898579 0.505441 0.474569 -0.056778
C18   C     C_R   0.873612 0.620435 0.471360 -0.023450
C19   C     C_R   0.823174 0.620748 0.478788 0.494001
C20   C     C_R   0.822053 0.397281 0.481591 0.583639
C21   C     C_R   0.723728 0.461381 0.606024 0.409498
C22   C     C_R   0.673395 0.449349 0.605404 0.329220
C23   C     C_R   0.501873 0.740047 0.500311 0.888509
C24   C     C_R   0.670289 0.556435 0.388251 -0.294760
C25   C     C_R   0.720294 0.559478 0.384236 -0.170663
C26   C     C_R   0.747124 0.511958 0.492409 0.148187
C27   C     C_R   0.025059 0.386586 0.499959 0.045189
C28   C     C_R   0.051011 0.498472 0.475600 0.071596
C29   C     C_R   0.026466 0.612393 0.448260 0.045170
C30   C     C_R   0.050886 0.278253 0.538927 -0.219709
C31   C     C_R   0.103972 0.713990 0.409996 -0.140105
C32   C     C_R   0.949442 0.730495 0.455457 -0.218274
C33   C     C_R   0.899409 0.732224 0.463008 -0.137986
C34   C     C_R   0.593905 0.499493 0.499851 0.928287
C35   C     C_R   0.053897 0.718393 0.411988 -0.219413
C36   C     C_R   0.510950 0.064731 0.622080 0.094367
C37   C     C_R   0.509368 0.128480 0.499595 -0.105519
C38   C     C_R   0.517539 0.063827 0.377703 -0.226741
C39   C     C_R   0.517926 0.934366 0.378309 -0.195933
C40   C     C_R   0.510425 0.871217 0.500986 -0.148439
C41   C     C_R   0.512415 0.936789 0.623450 0.137201
C42   C     C_3   0.480170 0.931132 0.745731 -0.045331
C43   C     C_3   0.478022 0.073238 0.741766 -0.499267
C44   C     C_R   0.468138 0.571644 0.072009 0.176809
C45   C     C_R   0.177153 0.388093 0.524476 0.502673
C46   C     C_R   0.535419 0.439148 0.071626 -0.141311
C47   C     C_R   0.535879 0.441190 0.927576 -0.125608
C48   C     C_R   0.466114 0.564368 0.930789 0.111331
C49   C     C_3   0.411607 0.558240 0.932512 -0.172570
C50   C     C_3   0.414711 0.575285 0.086594 0.244755
C51   C     C_R   0.178869 0.599759 0.448040 0.503578
C52   C     C_R   0.278387 0.577463 0.573904 -0.097487
C53   C     C_R   0.328349 0.577450 0.575746 -0.287706
C54   C     C_R   0.329879 0.395717 0.423151 0.097833
H1    H     H_    0.258728 0.645670 0.634118 0.158450
H2    H     H_    0.123471 0.797574 0.381513 0.189068
H3    H     H_    0.966817 0.820574 0.452616 0.138832
H4    H     H_    0.650163 0.595925 0.304486 0.192316
H5    H     H_    0.881020 0.821922 0.462087 0.189043
H6    H     H_    0.738325 0.598259 0.296634 0.176522
H7    H     H_    0.037617 0.805453 0.380933 0.142157
H8    H     H_    0.520041 0.112013 0.281606 0.172289
H9    H     H_    0.520452 0.884907 0.282380 0.180842
H10   H     H_    0.444684 0.887365 0.722507 0.133100
H11   H     H_    0.259001 0.335612 0.356736 0.164672
H12   H     H_    0.441668 0.109506 0.714080 0.181659
H13   H     H_    0.494974 0.121903 0.829060 0.210063
H14   H     H_    0.563288 0.388654 0.125536 0.156620
H15   H     H_    0.564438 0.393969 0.873110 0.190684
H16   H     H_    0.395017 0.640281 0.881148 0.152812
H17   H     H_    0.400963 0.496430 0.148065 0.102976
H18   H     H_    0.119041 0.193821 0.579379 0.189598
H19   H     H_    0.877659 0.190557 0.485204 0.189673
H20   H     H_    0.963474 0.183858 0.488349 0.138527
H21   H     H_    0.033356 0.192437 0.567613 0.142416
H22   H     H_    0.347054 0.647285 0.635856 0.152339
N1    N     N_R   0.202142 0.493093 0.488547 -0.347982
N2    N     N_R   0.798603 0.510140 0.484182 -0.331487
N3    N     N_R   0.499670 0.499140 0.142800 -0.136433
N4    N     N_R   0.499670 0.499180 0.857150 -0.107298
O1    O     O_R   0.500010 0.316790 0.614690 -0.622782
O2    O     O_2   0.796557 0.289772 0.480398 -0.549756
O3    O     O_2   0.204527 0.700618 0.409142 -0.581759
O4    O     O_2   0.798843 0.730455 0.481873 -0.566963
O5    O     O_R   0.500000 0.316760 0.385350 -0.632673
O6    O     O_R   0.428760 0.500040 0.614660 -0.618692
O7    O     O_R   0.428750 0.500000 0.385310 -0.626513
O8    O     O_R   0.500000 0.683240 0.614650 -0.632386
O9    O     O_R   0.499990 0.683210 0.385310 -0.598947
O10   O     O_R   0.571250 0.500000 0.614690 -0.575476
O11   O     O_R   0.571240 0.499960 0.385340 -0.635164
O12   O     O_2   0.201027 0.285561 0.568267 -0.570956
Zn1   Zn    Zn3+2 0.500000 0.500020 0.653130 0.950704
Zn2   Zn    Zn3+2 0.500000 0.499980 0.346870 0.947669
C55   C     C_3   0.358396 0.289920 0.355383 -0.392783
C56   C     C_3   0.328543 0.182500 0.296404 -0.875873
H23   H     H_    0.305197 0.140859 0.375723 0.282533
H24   H     H_    0.306226 0.215804 0.210221 0.255586
H25   H     H_    0.353257 0.108483 0.257616 0.255120
H26   H     H_    0.380675 0.328138 0.272377 0.212770
H27   H     H_    0.383299 0.248852 0.431707 0.202822
C57   C     C_3   0.503937 0.875181 0.873742 -0.330475
C58   C     C_3   0.555379 0.918829 0.904898 -0.855244
H28   H     H_    0.579780 0.897929 0.818420 0.263360
H29   H     H_    0.556323 0.020138 0.929298 0.252928
H30   H     H_    0.569098 0.867533 0.994698 0.242919
H31   H     H_    0.480519 0.895331 0.962748 0.214529
H32   H     H_    0.505471 0.772621 0.860371 0.222578
C59   C     C_3   0.386080 0.433309 0.895798 -0.383163
C60   C     C_3   0.414351 0.313895 0.928376 -0.844257
H33   H     H_    0.445869 0.305163 0.860203 0.280081
H34   H     H_    0.426627 0.312890 0.035356 0.242578
H35   H     H_    0.390885 0.231259 0.911296 0.243223
H36   H     H_    0.351201 0.430202 0.951478 0.190273
H37   H     H_    0.376045 0.431622 0.787620 0.249375
O13   O     O_3   0.399638 0.695349 0.130281 -0.606159
C61   C     C_3   0.349896 0.692607 0.161004 0.107717
H38   H     H_    0.342355 0.625073 0.243825 0.159497
H39   H     H_    0.328391 0.666695 0.069765 0.132815
C62   C     C_3   0.333903 0.821792 0.208811 -0.781338
H40   H     H_    0.340193 0.891531 0.127647 0.244045
H41   H     H_    0.294836 0.820586 0.234052 0.239846
H42   H     H_    0.354562 0.849485 0.300627 0.254200
O14   O     O_3   0.650769 0.383264 0.707334 -0.601885
C63   C     C_3   0.652052 0.254907 0.671751 0.166443
H43   H     H_    0.689940 0.219711 0.668247 0.195644
H44   H     H_    0.634549 0.238086 0.571498 0.117095
C64   C     C_3   0.624950 0.179535 0.777134 -0.859432
H45   H     H_    0.585897 0.202437 0.773231 0.247434
H46   H     H_    0.629647 0.078202 0.755373 0.219029
H47   H     H_    0.639129 0.200179 0.880106 0.263574
O15   O     O_3   0.750348 0.413830 0.712541 -0.582749
C65   C     C_3   0.755275 0.508675 0.811574 0.105707
H48   H     H_    0.719327 0.538284 0.851433 0.160545
H49   H     H_    0.774333 0.591529 0.769323 0.147953
C66   C     C_3   0.784933 0.458500 0.929192 -0.779187
H50   H     H_    0.821335 0.429881 0.893027 0.258888
H51   H     H_    0.788943 0.532244 0.008129 0.200972
H52   H     H_    0.766637 0.376352 0.974488 0.264997

loop_
_geom_bond_atom_site_label_1
_geom_bond_atom_site_label_2
_ccdc_geom_bond_type
C10   C27   A    
C44   C48   A    
C21   C26   A    
O7    Zn2   S    
C20   O2    S    
C41   C42   S    
C55   C56   S    
C2    H11   S    
C64   H45   S    
C34   O10   A    
C52   C53   A    
C6    H18   S    
C28   C29   A    
C26   N2    S    
C47   N4    A    
C36   C37   A    
C4    C7    A    
C5    C6    A    
C9    C22   A    
C1    O1    A    
C23   C40   S    
C56   H25   S    
O13   C61   S    
C18   C19   A    
O9    Zn2   S    
C45   O12   S    
C34   O11   A    
C47   H15   S    
C60   H33   S    
C46   N3    A    
C16   C17   A    
C56   H24   S    
C63   C64   S    
C23   O9    A    
C57   H32   S    
C25   H6    S    
C31   H2    S    
C62   H42   S    
C1    C37   S    
C63   H43   S    
C33   H5    S    
C14   H20   S    
C21   C22   A    
C27   C30   A    
C36   C41   A    
C32   H3    S    
C66   H52   S    
C42   C57   S    
C4    C28   A    
C62   H41   S    
C1    O5    A    
C7    C31   A    
C15   C16   A    
C24   C25   A    
N3    Zn2   S    
C66   H51   S    
C10   C14   A    
C61   C62   S    
C8    C54   A    
C39   C40   A    
O8    Zn1   S    
C55   H26   S    
O15   C65   S    
C25   C26   A    
C5    C45   A    
C19   N2    A    
C50   H17   S    
C51   N1    A    
C21   O15   S    
C46   H14   S    
C37   C38   A    
O6    Zn1   S    
C65   C66   S    
O1    Zn1   S    
O5    Zn2   S    
C16   C20   A    
C56   H23   S    
C17   C18   A    
C57   H31   S    
C58   H29   S    
C63   H44   S    
C60   H35   S    
C54   C55   S    
C59   H36   S    
C24   H4    S    
C40   C41   A    
C15   H19   S    
C11   C32   A    
C49   H16   S    
C2    C54   A    
C65   H48   S    
C31   C35   A    
C53   H22   S    
C42   C43   S    
C19   O4    S    
C3    N1    S    
C64   H47   S    
C51   O3    S    
C58   H28   S    
C62   H40   S    
O10   Zn1   S    
C49   C59   S    
C44   C50   S    
C46   C47   A    
C48   C49   S    
C12   O7    A    
C6    C30   A    
C44   N3    A    
C66   H50   S    
C10   C13   A    
C64   H46   S    
C8    C53   A    
C42   H10   S    
C3    C52   A    
C52   H1    S    
C9    C24   A    
C22   O14   S    
C20   N2    A    
C39   H9    S    
C29   C35   A    
C12   O6    A    
C23   O8    A    
C32   C33   A    
C48   N4    A    
C61   H39   S    
C2    C3    A    
C7    C51   A    
C59   C60   S    
O11   Zn2   S    
C30   H21   S    
C11   C13   A    
C38   C39   A    
C35   H7    S    
C43   H12   S    
C9    C34   S    
C58   H30   S    
C50   O13   S    
C57   C58   S    
C18   C33   A    
C60   H34   S    
C59   H37   S    
C13   C17   A    
C55   H27   S    
C4    C5    A    
C11   C29   A    
C43   H13   S    
C49   C50   S    
C27   C28   A    
C65   H49   S    
C14   C15   A    
C36   C43   S    
C45   N1    A    
N4    Zn1   S    
C61   H38   S    
C8    C12   S    
O14   C63   S    
C38   H8    S    
