data_mof_unit_50166.cif
_audit_creation_date              2012-12-11T14:30:15-0500
_audit_creation_method            fapswitch 2.2
_symmetry_space_group_name_H-M    P1
_symmetry_Int_Tables_number       1
_space_group_crystal_system       triclinic
_cell_length_a                    12.830361
_cell_length_b                    12.828862
_cell_length_c                    27.036873
_cell_angle_alpha                 89.993866
_cell_angle_beta                  89.967285
_cell_angle_gamma                 119.866267
_cell_volume                      3859.20331214

loop_
_atom_site_label
_atom_site_type_symbol
_atom_type_description
_atom_site_fract_x
_atom_site_fract_y
_atom_site_fract_z
_atom_type_partial_charge
C1    C     C_R   0.559705 0.454193 0.822830 0.598809
C2    C     C_R   0.458981 0.557723 0.178804 0.567081
C3    C     C_R   0.070385 0.354752 0.478796 0.067594
C4    C     C_R   0.271396 0.918434 0.017916 0.045254
C5    C     C_R   0.641339 0.717517 0.478006 0.076485
C6    C     C_R   0.285174 0.921040 0.534272 0.088003
C7    C     C_R   0.077011 0.368832 0.969227 0.097436
C8    C     C_R   0.633735 0.709046 0.530004 0.086721
C9    C     C_R   0.283873 0.924328 0.965687 0.078336
C10   C     C_R   0.077301 0.369145 0.530637 0.098907
C11   C     C_R   0.629144 0.710156 0.969199 0.098248
C12   C     C_2   0.112862 0.276774 0.043731 0.668551
C13   C     C_R   0.439337 0.895650 0.322309 0.603213
C14   C     C_2   0.161733 0.908517 0.458654 0.678630
C15   C     C_2   0.701697 0.839733 0.044334 0.659536
C16   C     C_2   0.110959 0.276332 0.455838 0.671262
C17   C     C_2   0.161870 0.909821 0.042470 0.677480
C18   C     C_2   0.698660 0.837441 0.454297 0.662800
C19   C     C_2   0.178306 0.871307 0.566611 0.731766
C20   C     C_2   0.143403 0.323968 0.939390 0.665984
C21   C     C_2   0.682622 0.820272 0.560153 0.680089
C22   C     C_2   0.178284 0.888371 0.933368 0.738919
C23   C     C_2   0.143293 0.323400 0.560225 0.664377
C24   C     C_R   0.099763 0.542003 0.178544 0.581349
C25   C     C_2   0.672861 0.821067 0.939254 0.674541
C26   C     C_R   0.980681 0.491628 0.976261 -0.114406
C27   C     C_R   0.504006 0.026702 0.524010 -0.116045
C28   C     C_R   0.511319 0.490909 0.976485 -0.119635
C29   C     C_R   0.983054 0.493963 0.524023 -0.116877
C30   C     C_R   0.502898 0.023078 0.975436 -0.111814
C31   C     C_R   0.512195 0.489591 0.523181 -0.123396
C32   C     C_R   0.489886 0.009430 0.472597 -0.125728
C33   C     C_R   0.894456 0.440410 0.677196 0.602323
C34   C     C_R   0.994617 0.494972 0.027957 -0.139270
C35   C     C_R   0.510776 0.499461 0.471304 -0.149538
C36   C     C_R   0.489021 0.006856 0.026888 -0.126877
C37   C     C_R   0.996202 0.496932 0.472266 -0.139486
C38   C     C_R   0.510183 0.501145 0.028368 -0.148681
C39   C     C_R   0.884303 0.613287 0.984690 0.452097
C40   C     C_R   0.721076 0.136898 0.512456 0.434006
C41   C     C_R   0.389790 0.273577 0.984896 0.415923
C42   C     C_R   0.890903 0.619569 0.516069 0.445114
C43   C     C_R   0.720296 0.130993 0.986642 0.420569
C44   C     C_R   0.545742 0.104992 0.822494 0.601743
C45   C     C_R   0.386978 0.272208 0.515284 0.416046
C46   C     C_R   0.706846 0.122807 0.461423 0.432769
C47   C     C_R   0.904547 0.621975 0.035578 0.443660
C48   C     C_R   0.383508 0.282711 0.464083 0.438162
C49   C     C_R   0.706157 0.118793 0.037723 0.435352
C50   C     C_R   0.910447 0.627845 0.465113 0.436659
C51   C     C_R   0.386119 0.284224 0.036022 0.439045
C52   C     C_R   0.899104 0.536635 0.903690 0.333755
C53   C     C_R   0.635036 0.110298 0.595114 0.324803
C54   C     C_R   0.459313 0.364551 0.903368 0.365909
C55   C     C_R   0.560101 0.453945 0.677031 0.594618
C56   C     C_R   0.905853 0.542807 0.597088 0.376727
C57   C     C_R   0.634090 0.102259 0.903986 0.362128
C58   C     C_R   0.458274 0.363909 0.596647 0.365226
C59   C     C_R   0.576157 0.026359 0.390171 0.422256
C60   C     C_R   0.996696 0.584986 0.107840 0.425880
C61   C     C_R   0.427205 0.410356 0.390498 0.411231
C62   C     C_R   0.575624 0.024290 0.109243 0.422712
C63   C     C_R   0.998441 0.586991 0.392355 0.427433
C64   C     C_R   0.428076 0.411681 0.109333 0.412170
C65   C     C_R   0.037885 0.513697 0.129975 0.015767
C66   C     C_R   0.893675 0.439855 0.822934 0.602332
C67   C     C_R   0.462333 0.941879 0.373049 0.038249
C68   C     C_R   0.490889 0.525711 0.130491 -0.004682
C69   C     C_R   0.037781 0.514260 0.370065 0.016243
C70   C     C_R   0.461707 0.940914 0.126675 0.033964
C71   C     C_R   0.490876 0.524412 0.369218 -0.004416
C72   C     C_R   0.534140 0.061659 0.626439 0.026914
C73   C     C_R   0.939729 0.474051 0.873780 0.036652
C74   C     C_R   0.526051 0.466694 0.626095 0.037362
C75   C     C_R   0.532939 0.057797 0.872979 0.053378
C76   C     C_R   0.942570 0.476218 0.626601 0.044392
C77   C     C_R   0.546118 0.106032 0.677300 0.603926
C78   C     C_R   0.524922 0.467229 0.873608 0.043220
C79   C     C_R   0.922257 0.548759 0.954624 -0.015064
C80   C     C_R   0.620794 0.090915 0.544037 -0.028110
C81   C     C_R   0.452239 0.375740 0.954699 -0.011803
C82   C     C_R   0.927017 0.553205 0.545946 -0.008782
C83   C     C_R   0.619812 0.084775 0.955168 -0.019564
C84   C     C_R   0.451282 0.374614 0.545255 -0.015703
C85   C     C_R   0.591793 0.055667 0.440947 -0.015605
C86   C     C_R   0.964030 0.567352 0.057450 -0.038581
C87   C     C_R   0.441893 0.396102 0.441541 -0.024803
C88   C     C_R   0.458977 0.557413 0.321108 0.568225
C89   C     C_R   0.591103 0.052682 0.058378 -0.016821
C90   C     C_R   0.966994 0.570546 0.442915 -0.039798
C91   C     C_R   0.442810 0.397690 0.058319 -0.024396
C92   C     C_R   0.006890 0.426814 0.894749 0.412251
C93   C     C_R   0.419518 0.989148 0.607058 0.397483
C94   C     C_R   0.574942 0.581679 0.894833 0.414947
C95   C     C_R   0.007590 0.426883 0.605322 0.415621
C96   C     C_R   0.417971 0.987943 0.892590 0.399189
C97   C     C_R   0.578922 0.580849 0.604499 0.413467
C98   C     C_R   0.362333 0.899066 0.404809 0.348037
C99   C     C_R   0.439079 0.895237 0.177554 0.601935
C100  C     C_R   0.033012 0.417990 0.102464 0.388687
C101  C     C_R   0.583520 0.616949 0.397067 0.380195
C102  C     C_R   0.361421 0.898932 0.095115 0.345345
C103  C     C_R   0.032067 0.418277 0.397584 0.389483
C104  C     C_R   0.582853 0.618822 0.102468 0.381746
C105  C     C_R   0.024284 0.430717 0.946410 0.050977
C106  C     C_R   0.401754 0.975750 0.555419 0.040407
C107  C     C_R   0.570770 0.595326 0.946519 0.044625
C108  C     C_R   0.025588 0.431793 0.553673 0.052543
C109  C     C_R   0.400264 0.974611 0.944271 0.039114
C110  C     C_R   0.099694 0.542059 0.321462 0.582140
C111  C     C_R   0.574018 0.594263 0.552861 0.041344
C112  C     C_R   0.373791 0.943074 0.452821 0.019503
C113  C     C_R   0.033044 0.421272 0.050605 0.016844
C114  C     C_R   0.580362 0.612150 0.448797 0.008613
C115  C     C_R   0.373000 0.942297 0.046929 0.021021
C116  C     C_R   0.032854 0.421972 0.449451 0.017717
C117  C     C_R   0.579197 0.614095 0.050691 0.008387
C118  C     C_R   0.071007 0.354580 0.021085 0.066297
C119  C     C_R   0.272096 0.916882 0.482199 0.043242
C120  C     C_R   0.639401 0.719204 0.021159 0.075188
Cr1   Cr    Cr6+3 0.487630 0.241180 0.750000 1.223653
Cr2   Cr    Cr6+3 0.753550 0.512370 0.750000 1.222425
Cr3   Cr    Cr6+3 0.758820 0.246450 0.750000 1.221746
Cr4   Cr    Cr6+3 0.241180 0.487630 0.250000 1.252674
Cr5   Cr    Cr6+3 0.512370 0.753550 0.250000 1.252620
Cr6   Cr    Cr6+3 0.246450 0.758820 0.250000 1.260541
F1    F     F_    0.988434 0.669675 0.135012 -0.472308
F2    F     F_    0.746210 0.168759 0.884680 -0.552245
F3    F     F_    0.844717 0.593124 0.617702 -0.536800
F4    F     F_    0.408280 0.253186 0.882827 -0.551155
F5    F     F_    0.862391 0.680822 0.063595 -0.514038
F6    F     F_    0.806391 0.169491 0.432476 -0.520511
F7    F     F_    0.326340 0.183037 0.063617 -0.537739
F8    F     F_    0.870493 0.689025 0.437365 -0.512805
F9    F     F_    0.805791 0.166258 0.066597 -0.518870
F10   F     F_    0.321836 0.181484 0.436679 -0.538274
F11   F     F_    0.833652 0.190285 0.531037 -0.538139
F12   F     F_    0.671276 0.070072 0.358657 -0.491704
F13   F     F_    0.831961 0.672702 0.964764 -0.526123
F14   F     F_    0.323709 0.161334 0.535476 -0.556871
F15   F     F_    0.833009 0.184018 0.968022 -0.551480
F16   F     F_    0.841185 0.681212 0.536254 -0.533435
F17   F     F_    0.328510 0.162668 0.964954 -0.567061
F18   F     F_    0.026433 0.321816 0.126476 -0.479981
F19   F     F_    0.255519 0.803855 0.390660 -0.603675
F20   F     F_    0.676244 0.712880 0.125774 -0.485806
F21   F     F_    0.024789 0.321809 0.373564 -0.480641
F22   F     F_    0.253683 0.805724 0.109754 -0.602225
F23   F     F_    0.353340 0.316530 0.138086 -0.481252
F24   F     F_    0.676483 0.711586 0.373736 -0.488908
F25   F     F_    0.326253 0.936965 0.639448 -0.553426
F26   F     F_    0.046256 0.368924 0.864533 -0.538393
F27   F     F_    0.642356 0.677791 0.634178 -0.534654
F28   F     F_    0.324496 0.937913 0.860320 -0.558039
F29   F     F_    0.043944 0.365772 0.635154 -0.533798
F30   F     F_    0.634806 0.678812 0.864819 -0.533654
F31   F     F_    0.991099 0.672188 0.365172 -0.470474
F32   F     F_    0.670948 0.067787 0.140593 -0.488307
F33   F     F_    0.351554 0.315512 0.361864 -0.482227
F34   F     F_    0.746704 0.180744 0.614128 -0.551999
F35   F     F_    0.832777 0.581797 0.883606 -0.554365
F36   F     F_    0.404888 0.252807 0.617546 -0.547391
H1    H     H_    0.100937 0.114313 0.046617 0.401497
H2    H     H_    0.063202 0.768461 0.884715 0.394141
H3    H     H_    0.146836 0.181170 0.589992 0.410841
H4    H     H_    0.814006 0.969004 0.910428 0.403570
H5    H     H_    0.000417 0.896802 0.467504 0.425691
H6    H     H_    0.853200 0.998743 0.051645 0.419298
H7    H     H_    0.095279 0.112572 0.451574 0.401315
H8    H     H_    0.996443 0.888872 0.035669 0.425739
H9    H     H_    0.848125 0.996264 0.442769 0.420165
H10   H     H_    0.060687 0.900182 0.605315 0.399519
H11   H     H_    0.146604 0.182871 0.908302 0.410752
H12   H     H_    0.648598 0.911328 0.612121 0.372272
O1    O     O_R   0.460870 0.120930 0.805240 -0.398375
O2    O     O_R   0.120930 0.460870 0.194760 -0.421234
O3    O     O_R   0.539130 0.660060 0.305240 -0.418480
O4    O     O_R   0.339940 0.879070 0.194760 -0.423527
O5    O     O_R   0.498910 0.350470 0.801870 -0.460330
O6    O     O_R   0.851560 0.501090 0.698130 -0.462140
O7    O     O_R   0.649530 0.148440 0.801870 -0.462389
O8    O     O_R   0.498910 0.350470 0.698130 -0.460113
O9    O     O_R   0.851560 0.501090 0.801870 -0.465169
O10   O     O_R   0.649530 0.148440 0.698130 -0.465919
O11   O     O_R   0.350470 0.498910 0.301870 -0.450689
O12   O     O_R   0.660060 0.539130 0.694760 -0.392424
O13   O     O_R   0.501090 0.851560 0.198130 -0.451340
O14   O     O_R   0.148440 0.649530 0.301870 -0.424210
O15   O     O_R   0.350470 0.498910 0.198130 -0.450806
O16   O     O_R   0.501090 0.851560 0.301870 -0.450703
O17   O     O_R   0.148440 0.649530 0.198130 -0.424724
O18   O     O_3   0.666667 0.333333 0.750000 -0.372773
O19   O     O_3   0.333333 0.666667 0.250000 -0.380071
O20   O     O_2   0.186978 0.315966 0.076799 -0.418289
O21   O     O_R   0.067007 0.158622 0.027542 -0.572262
O22   O     O_2   0.160620 0.928723 0.414499 -0.299173
O23   O     O_R   0.879070 0.339940 0.805240 -0.391974
O24   O     O_R   0.063564 0.890035 0.487332 -0.614575
O25   O     O_2   0.650065 0.865112 0.075828 -0.471386
O26   O     O_R   0.819449 0.922900 0.031098 -0.577467
O27   O     O_2   0.186157 0.315883 0.423138 -0.419895
O28   O     O_R   0.062035 0.157047 0.470989 -0.562562
O29   O     O_2   0.165777 0.938683 0.085855 -0.301405
O30   O     O_R   0.057861 0.879502 0.015626 -0.621313
O31   O     O_2   0.640976 0.860732 0.425021 -0.487007
O32   O     O_R   0.818577 0.921417 0.463739 -0.572960
O33   O     O_2   0.135598 0.768595 0.581843 -0.496014
O34   O     O_R   0.460870 0.120930 0.694760 -0.395994
O35   O     O_R   0.132687 0.944346 0.582651 -0.502750
O36   O     O_2   0.239740 0.396173 0.920997 -0.508342
O37   O     O_R   0.093172 0.201144 0.929962 -0.513193
O38   O     O_2   0.790955 0.889673 0.561990 -0.312921
O39   O     O_R   0.604145 0.841106 0.588751 -0.674099
O40   O     O_2   0.143024 0.959198 0.924620 -0.312883
O41   O     O_R   0.126037 0.777257 0.909642 -0.666112
O42   O     O_2   0.238436 0.395099 0.579571 -0.504384
O43   O     O_R   0.093996 0.200129 0.568296 -0.501514
O44   O     O_2   0.600133 0.843808 0.920192 -0.509157
O45   O     O_R   0.660060 0.539130 0.805240 -0.391477
O46   O     O_R   0.795984 0.896574 0.931524 -0.497318
O47   O     O_R   0.879070 0.339940 0.694760 -0.389819
O48   O     O_R   0.120930 0.460870 0.305240 -0.420753
O49   O     O_R   0.539130 0.660060 0.194760 -0.419383
O50   O     O_R   0.339940 0.879070 0.305240 -0.424673

loop_
_geom_bond_atom_site_label_1
_geom_bond_atom_site_label_2
_ccdc_geom_bond_type
C36   C89   A    
C66   O9    A    
C23   O43   S    
C56   C76   A    
C5    C114  A    
C44   C75   S    
C43   C83   A    
C4    C115  A    
C10   C108  A    
C42   C82   A    
C44   O1    A    
C57   F2    S    
C99   O13   A    
C103  F21   S    
C88   O3    A    
Cr1   O5    S    
C37   C116  A    
C34   C113  A    
Cr2   O6    S    
C6    C19   S    
Cr3   O47   S    
C110  O14   A    
Cr3   O10   S    
C37   C90   A    
C18   O31   D    
C64   C68   A    
C41   F17   S    
C2    C68   S    
C3    C116  A    
C61   F33   S    
C76   C95   A    
C46   F6    S    
Cr4   O11   S    
C97   C111  A    
C48   F10   S    
Cr6   O50   S    
C9    C22   S    
Cr2   O12   S    
C11   C25   S    
C28   C107  A    
C62   C89   A    
C101  F24   S    
C77   O10   A    
C15   C120  S    
C62   C70   A    
C35   C114  A    
C34   C86   A    
C20   O37   S    
C30   C83   A    
C17   O29   D    
C102  C115  A    
C61   C87   A    
C67   C98   A    
C102  F22   S    
H7    O28   S    
C55   C74   S    
C35   C87   A    
C50   C90   A    
C96   F28   S    
C63   C69   A    
Cr4   O19   S    
C92   F26   S    
C40   C80   A    
C29   C108  A    
Cr5   O16   S    
C97   F27   S    
C52   C79   A    
H6    O26   S    
C53   C72   A    
H8    O30   S    
C56   F3    S    
H3    O43   S    
C52   F35   S    
C46   C85   A    
C59   C67   A    
C61   C71   A    
C95   F29   S    
Cr5   O49   S    
C71   C101  A    
C22   O41   S    
C33   O6    A    
C19   O33   D    
C101  C114  A    
C38   C117  A    
C7    C118  A    
C25   O44   D    
H11   O37   S    
C8    C111  A    
Cr1   O18   S    
C16   O28   S    
C11   C120  A    
C26   C105  A    
Cr4   O15   S    
C26   C34   A    
C75   C96   A    
C74   C97   A    
C23   O42   D    
C69   C103  A    
H2    O41   S    
C9    C109  A    
C54   F4    S    
C28   C38   A    
C39   F13   S    
C94   C107  A    
C98   C112  A    
Cr2   O45   S    
C30   C109  A    
C1    C78   S    
C14   C119  S    
C47   C86   A    
C104  F20   S    
C53   C80   A    
Cr5   O19   S    
C65   C100  A    
C99   O4    A    
C1    O45   A    
C52   C73   A    
C100  F18   S    
C117  C120  A    
C60   C86   A    
C43   C49   A    
C5    C18   S    
C59   F12   S    
C66   C73   S    
C38   C91   A    
C45   F14   S    
H5    O24   S    
C13   O16   A    
C71   C88   S    
C47   F5    S    
C39   C79   A    
C17   O30   S    
C40   C46   A    
C59   C85   A    
C42   F16   S    
C72   C77   S    
C2    O15   A    
C58   C84   A    
C93   C106  A    
C5    C8    A    
C11   C107  A    
C15   O25   D    
C69   C110  S    
C33   C76   S    
H1    O21   S    
C41   C81   A    
C40   F11   S    
C62   F32   S    
C8    C21   S    
C6    C106  A    
C48   C87   A    
C55   O12   A    
H9    O32   S    
Cr2   O18   S    
C24   C65   S    
C42   C50   A    
C18   O32   S    
C12   C118  S    
C4    C17   S    
Cr2   O9    S    
C14   O24   S    
Cr4   O48   S    
C60   C65   A    
H10   O35   S    
C20   O36   D    
C22   O40   D    
C50   F8    S    
C51   F7    S    
C12   O21   S    
C31   C35   A    
C93   F25   S    
C45   C84   A    
C63   F31   S    
C13   O50   A    
C16   O27   D    
C24   O2    A    
H4    O46   S    
C6    C119  A    
C70   C99   S    
C58   C74   A    
C39   C47   A    
C104  C117  A    
C13   C67   S    
C45   C48   A    
C14   O22   D    
C88   O11   A    
C53   F34   S    
C32   C112  A    
C27   C32   A    
C19   O35   S    
C12   O20   D    
Cr3   O23   S    
C60   F1    S    
C100  C113  A    
C68   C104  A    
C73   C92   A    
C49   C89   A    
Cr3   O18   S    
C112  C119  A    
C70   C102  A    
C56   C82   A    
Cr4   O2    S    
C98   F19   S    
C10   C23   S    
C96   C109  A    
C26   C79   A    
C27   C106  A    
C21   O38   D    
C30   C36   A    
C64   F23   S    
Cr5   O13   S    
H12   O39   S    
C57   C75   A    
Cr6   O14   S    
C103  C116  A    
C28   C81   A    
C29   C82   A    
Cr3   O7    S    
C110  O48   A    
Cr5   O3    S    
C15   O26   S    
C1    O5    A    
Cr6   O19   S    
Cr1   O1    S    
C78   C94   A    
C3    C10   A    
C32   C85   A    
C63   C90   A    
C2    O49   A    
C55   O8    A    
C72   C93   A    
C7    C105  A    
Cr6   O4    S    
C24   O17   A    
C21   O39   S    
C49   F9    S    
Cr6   O17   S    
C66   O23   A    
C43   F15   S    
C95   C108  A    
C31   C84   A    
C113  C118  A    
C92   C105  A    
C77   O34   A    
C27   C80   A    
C94   F30   S    
C7    C20   S    
C29   C37   A    
C51   C91   A    
C31   C111  A    
C25   O46   S    
C64   C91   A    
C4    C9    A    
C36   C115  A    
C44   O7    A    
C41   C51   A    
C54   C81   A    
C3    C16   S    
Cr1   O34   S    
C33   O47   A    
Cr1   O8    S    
C54   C78   A    
C57   C83   A    
C58   F36   S    
