data_mof_unit_52033.cif
_audit_creation_date              2012-12-11T15:22:36-0500
_audit_creation_method            fapswitch 2.2
_symmetry_space_group_name_H-M    P1
_symmetry_Int_Tables_number       1
_space_group_crystal_system       triclinic
_cell_length_a                    22.807087
_cell_length_b                    7.228352
_cell_length_c                    20.818215
_cell_angle_alpha                 89.99962
_cell_angle_beta                  93.22412
_cell_angle_gamma                 90.000368
_cell_volume                      3426.60974559

loop_
_atom_site_label
_atom_site_type_symbol
_atom_type_description
_atom_site_fract_x
_atom_site_fract_y
_atom_site_fract_z
_atom_type_partial_charge
O1    O     O_R   0.438030 0.494310 0.439340 -0.538175
O2    O     O_R   0.561970 0.994310 0.560660 -0.538173
O3    O     O_R   0.556900 0.822900 0.435960 -0.536115
O4    O     O_R   0.443100 0.322900 0.564040 -0.536116
C1    C     C_R   0.575880 0.655486 0.421145 0.719982
C2    C     C_R   0.424120 0.155485 0.578855 0.719970
O5    O     O_R   0.438170 0.823950 0.431660 -0.541186
O6    O     O_R   0.561830 0.323950 0.568340 -0.541188
O7    O     O_R   0.442390 0.995390 0.556340 -0.533275
O8    O     O_R   0.557610 0.495390 0.443660 -0.533279
C3    C     C_R   0.418285 0.655219 0.415744 0.698243
C4    C     C_R   0.581715 0.155220 0.584256 0.698246
O9    O     O_3   0.501520 0.661170 0.540910 -0.375729
O10   O     O_3   0.498480 0.161170 0.459090 -0.375728
V1    V     V_3+5 0.499720 0.935580 0.492410 1.394545
V2    V     V_3+5 0.500280 0.435580 0.507590 1.394540
C5    C     C_R   0.832955 0.244669 0.861983 -0.214003
C6    C     C_R   0.167045 0.744671 0.138017 -0.214007
C7    C     C_R   0.868335 0.084635 0.866632 -0.079345
C8    C     C_R   0.131666 0.584635 0.133367 -0.079345
C9    C     C_R   0.855575 0.936232 0.824254 -0.224333
C10   C     C_R   0.144426 0.436230 0.175744 -0.224334
C11   C     C_R   0.808746 0.947639 0.777513 0.090283
C12   C     C_R   0.191255 0.447637 0.222486 0.090283
C13   C     C_R   0.773443 0.108174 0.773606 0.055400
C14   C     C_R   0.226558 0.608173 0.226393 0.055401
C15   C     C_R   0.785497 0.256816 0.816191 0.087076
C16   C     C_R   0.214503 0.756817 0.183808 0.087074
C17   C     C_R   0.796642 0.801467 0.734414 -0.187731
C18   C     C_R   0.203360 0.301463 0.265584 -0.187732
C19   C     C_R   0.749679 0.813224 0.688324 -0.195935
C20   C     C_R   0.250323 0.313219 0.311673 -0.195936
C21   C     C_R   0.714002 0.971565 0.684380 0.087698
C22   C     C_R   0.285999 0.471562 0.315618 0.087699
C23   C     C_R   0.726020 0.120160 0.726995 0.055312
C24   C     C_R   0.273981 0.620159 0.273004 0.055314
C25   C     C_R   0.690722 0.280710 0.723069 0.089687
C26   C     C_R   0.309279 0.780710 0.276930 0.089686
C27   C     C_R   0.702775 0.426771 0.766232 -0.186000
C28   C     C_R   0.297226 0.926774 0.233768 -0.185999
C29   C     C_R   0.749760 0.415045 0.812308 -0.193914
C30   C     C_R   0.250241 0.915048 0.187692 -0.193917
C31   C     C_R   0.666667 0.983916 0.638451 -0.216035
C32   C     C_R   0.333333 0.483913 0.361547 -0.216040
C33   C     C_R   0.631377 0.144085 0.633687 -0.080217
C34   C     C_R   0.368623 0.644085 0.366311 -0.080219
C35   C     C_R   0.643994 0.292291 0.676198 -0.223459
C36   C     C_R   0.356007 0.792292 0.323801 -0.223460
H1    H     H_    0.841846 0.359532 0.894571 0.128311
H2    H     H_    0.158153 0.859536 0.105429 0.128310
H3    H     H_    0.882491 0.812576 0.827056 0.130375
H4    H     H_    0.117511 0.312572 0.172942 0.130376
H5    H     H_    0.823407 0.677527 0.736473 0.135315
H6    H     H_    0.176595 0.177521 0.263524 0.135316
H7    H     H_    0.741135 0.697916 0.655868 0.131537
H8    H     H_    0.258867 0.197910 0.344129 0.131537
H9    H     H_    0.657850 0.869126 0.605812 0.128410
H10   H     H_    0.342151 0.369122 0.394186 0.128410
H11   H     H_    0.617081 0.415956 0.673360 0.130634
H12   H     H_    0.382920 0.915958 0.326640 0.130635
H13   H     H_    0.675990 0.550673 0.764190 0.135479
H14   H     H_    0.324010 0.050677 0.235810 0.135478
H15   H     H_    0.758302 0.530347 0.844765 0.132423
H16   H     H_    0.241698 0.030351 0.155235 0.132422
C37   C     C_3   0.237590 0.296203 0.794561 -0.339787
C38   C     C_3   0.762386 0.796146 0.205409 -0.339775
C39   C     C_3   0.255897 0.955338 0.807348 -0.344995
C40   C     C_3   0.744117 0.455248 0.192673 -0.344905
C41   C     C_3   0.305387 0.963784 0.758448 0.347676
C42   C     C_3   0.694621 0.463709 0.241566 0.347600
H17   H     H_    0.329723 0.338047 0.773699 0.183740
H18   H     H_    0.670250 0.837918 0.226269 0.183720
H19   H     H_    0.256103 0.323821 0.844241 0.147831
H20   H     H_    0.743869 0.823688 0.155727 0.147849
H21   H     H_    0.235777 0.814931 0.806115 0.098436
H22   H     H_    0.764252 0.314866 0.193933 0.098439
H23   H     H_    0.274813 0.976901 0.857255 0.167796
H24   H     H_    0.725203 0.476719 0.142762 0.167815
H25   H     H_    0.303544 0.829890 0.731431 0.024983
H26   H     H_    0.696467 0.329830 0.268591 0.025015
C43   C     C_1   0.378415 0.146231 0.624530 -0.195487
C44   C     C_1   0.621585 0.646236 0.375470 -0.195558
C45   C     C_3   0.207846 0.103108 0.791553 0.235179
C46   C     C_3   0.792152 0.603086 0.208445 0.235139
C47   C     C_3   0.287454 0.307654 0.746719 -0.322974
C48   C     C_3   0.712523 0.807602 0.253252 -0.322931
C49   C     C_3   0.292778 0.123520 0.709128 0.229639
C50   C     C_3   0.707218 0.623504 0.290868 0.229623
C51   C     C_3   0.232484 0.084886 0.673298 -0.420274
C52   C     C_3   0.767516 0.584956 0.326701 -0.420229
C53   C     C_3   0.183007 0.070467 0.721576 -0.344104
C54   C     C_3   0.816995 0.570549 0.278425 -0.344124
C55   C     C_1   0.339911 0.136724 0.662478 -0.078502
C56   C     C_1   0.660088 0.636724 0.337520 -0.078622
C57   C     C_1   0.160237 0.091900 0.837677 -0.077025
C58   C     C_1   0.839760 0.591883 0.162321 -0.077025
C59   C     C_1   0.121564 0.083425 0.875492 -0.182704
C60   C     C_1   0.878435 0.583417 0.124507 -0.182698
H27   H     H_    0.148249 0.174255 0.708773 0.153561
H28   H     H_    0.851739 0.674392 0.291213 0.153566
H29   H     H_    0.162258 0.931278 0.717593 0.144492
H30   H     H_    0.837761 0.431391 0.282427 0.144497
H31   H     H_    0.221769 0.197743 0.638208 0.164281
H32   H     H_    0.778220 0.697851 0.361779 0.164282
H33   H     H_    0.204408 0.405675 0.782703 0.142396
H34   H     H_    0.795556 0.905663 0.217250 0.142394
H35   H     H_    0.278490 0.424147 0.712602 0.130840
H36   H     H_    0.721476 0.924140 0.287352 0.130843
H37   H     H_    0.234545 0.953889 0.645425 0.141334
H38   H     H_    0.765468 0.453978 0.354587 0.141335
O11   O     O_R   0.942420 0.735670 0.056390 -0.530982
O12   O     O_R   0.057580 0.235670 0.943610 -0.530983
O13   O     O_R   0.061840 0.404850 0.068350 -0.541601
O14   O     O_R   0.938160 0.904850 0.931650 -0.541601
C61   C     C_R   0.081806 0.573660 0.084155 0.697594
C62   C     C_R   0.918194 0.073660 0.915844 0.697595
O15   O     O_R   0.943100 0.406010 0.064050 -0.536303
O16   O     O_R   0.056900 0.906010 0.935950 -0.536303
O17   O     O_R   0.938020 0.234710 0.939330 -0.538226
O18   O     O_R   0.061980 0.734710 0.060670 -0.538226
C63   C     C_R   0.924214 0.574465 0.078836 0.715845
C64   C     C_R   0.075785 0.074467 0.921164 0.715844
O19   O     O_3   0.998500 0.567790 0.959120 -0.375229
O20   O     O_3   0.001500 0.067790 0.040880 -0.375229
V3    V     V_3+5 0.000280 0.293330 0.007580 1.402236
V4    V     V_3+5 0.999720 0.793330 0.992420 1.402234
O21   O     O_3   0.360286 0.994326 0.792806 -0.573498
C65   C     C_3   0.403149 0.863331 0.776538 0.080844
H39   H     H_    0.447035 0.927626 0.785925 0.142636
H40   H     H_    0.400134 0.826683 0.724418 0.110211
C66   C     C_3   0.399589 0.690731 0.818823 -0.328383
H41   H     H_    0.410150 0.729074 0.869880 0.203611
H42   H     H_    0.354252 0.634434 0.815154 0.182593
C67   C     C_3   0.442279 0.541498 0.798815 -0.828819
H43   H     H_    0.431515 0.498055 0.748313 0.232061
H44   H     H_    0.438893 0.418889 0.830532 0.243549
H45   H     H_    0.488097 0.594050 0.803156 0.230331
O22   O     O_3   0.639725 0.494181 0.207195 -0.573487
C68   C     C_3   0.596825 0.363466 0.223597 0.080804
H46   H     H_    0.552963 0.427920 0.214232 0.142594
H47   H     H_    0.599877 0.327034 0.275732 0.110290
C69   C     C_3   0.600265 0.190646 0.181404 -0.328297
H48   H     H_    0.589620 0.228757 0.130347 0.203610
H49   H     H_    0.645589 0.134270 0.185001 0.182649
C70   C     C_3   0.557591 0.041611 0.201602 -0.828984
H50   H     H_    0.568496 0.998238 0.252074 0.232120
H51   H     H_    0.560833 0.918936 0.169892 0.243508
H52   H     H_    0.511785 0.094296 0.197423 0.230325

loop_
_geom_bond_atom_site_label_1
_geom_bond_atom_site_label_2
_ccdc_geom_bond_type
C60   C63   S    
C18   C20   A    
C39   C45   S    
C44   C56   T    
O11   C63   A    
C39   H23   S    
C66   C67   S    
O2    C4    A    
C65   H39   S    
C67   H45   S    
C70   H50   S    
C28   H14   S    
C27   C29   A    
O5    C3    A    
C18   H6    S    
C54   H28   S    
C11   C17   A    
C23   C25   A    
C53   H29   S    
C46   C58   S    
O14   V4    S    
C68   C69   S    
C48   C50   S    
C37   C45   S    
O13   V3    S    
C38   H20   S    
C51   H37   S    
C2    O7    A    
C37   H19   S    
O16   C64   A    
O15   C63   A    
C5    C7    A    
H17   C47   S    
C49   C51   S    
C32   H10   S    
O1    C3    A    
C19   C21   A    
C25   C35   A    
C26   C36   A    
C41   C49   S    
C54   H30   S    
C28   C30   A    
C42   C50   S    
O6    V2    S    
C2    C43   S    
C51   H31   S    
C69   C70   S    
C38   H34   S    
C37   H33   S    
C70   H51   S    
C32   C34   A    
C36   H12   S    
C50   C56   S    
C33   C35   A    
C40   H24   S    
C27   H13   S    
C34   C36   A    
C47   C49   S    
C42   H26   S    
C5    C15   A    
C6    C16   A    
O4    C2    A    
C5    H1    S    
O19   V4    S    
C67   H44   S    
O5    V1    S    
O3    C1    A    
C35   H11   S    
C58   C60   T    
O14   C62   A    
C39   C41   S    
C40   C46   S    
C51   C53   S    
O4    V2    S    
O12   C64   A    
C59   C64   S    
C43   C55   T    
C15   C29   A    
C52   C54   S    
O6    C4    A    
C45   C57   S    
O11   V4    S    
C22   C32   A    
O1    V2    S    
C46   C54   S    
O2    V1    S    
C31   C33   A    
C52   H32   S    
O12   V3    S    
O18   V4    S    
C13   C23   A    
O17   V3    S    
C14   C24   A    
C50   C52   S    
C42   O22   S    
C9    C11   A    
C13   C15   A    
C10   C12   A    
C41   H25   S    
C39   H21   S    
C52   H38   S    
C66   H41   S    
C65   C66   S    
C30   H16   S    
C9    H3    S    
C70   H52   S    
O3    V1    S    
C6    H2    S    
C10   H4    S    
C7    C9    A    
C69   H48   S    
C48   H36   S    
C12   C14   A    
C8    C10   A    
C4    C33   S    
C66   H42   S    
C65   H40   S    
C38   C48   S    
C8    C61   S    
H18   C48   S    
C68   H46   S    
C57   C59   T    
C37   C47   S    
C67   H43   S    
C40   H22   S    
C45   C53   S    
C14   C16   A    
C62   O17   A    
C19   H7    S    
C24   C26   A    
O7    V1    S    
C1    O8    A    
C17   C19   A    
O8    V2    S    
C26   C28   A    
C1    C44   S    
C68   H47   S    
C17   H5    S    
C7    C62   S    
C49   C55   S    
C16   C30   A    
C21   C23   A    
C22   C24   A    
C6    C8    A    
C11   C13   A    
C12   C18   A    
O22   C68   S    
C31   H9    S    
C38   C46   S    
C41   O21   S    
C25   C27   A    
C61   O18   A    
O9    V2    S    
C40   C42   S    
C29   H15   S    
O10   V1    S    
C3    C34   S    
O16   V4    S    
C53   H27   S    
C47   H35   S    
C21   C31   A    
O15   V3    S    
C20   H8    S    
C69   H49   S    
O21   C65   S    
C20   C22   A    
O20   V3    S    
O13   C61   A    
