data_mof_unit_51165.cif
_audit_creation_date              2012-12-10T17:15:15-0500
_audit_creation_method            fapswitch 2.2
_symmetry_space_group_name_H-M    P1
_symmetry_Int_Tables_number       1
_space_group_crystal_system       triclinic
_cell_length_a                    10.318697
_cell_length_b                    10.81576
_cell_length_c                    12.780813
_cell_angle_alpha                 90.351077
_cell_angle_beta                  91.028042
_cell_angle_gamma                 94.029664
_cell_volume                      1422.60248221

loop_
_atom_site_label
_atom_site_type_symbol
_atom_type_description
_atom_site_fract_x
_atom_site_fract_y
_atom_site_fract_z
_atom_type_partial_charge
C1    C     C_R   0.446902 0.268315 0.490821 0.926513
C2    C     C_R   0.620263 0.388135 0.040248 -0.227424
C3    C     C_R   0.386818 0.603199 0.852223 -0.216925
C4    C     C_R   0.619925 0.403596 0.147795 -0.216385
C5    C     C_R   0.537839 0.441214 0.870905 -0.286562
C6    C     C_R   0.466401 0.563455 0.129356 -0.293656
C7    C     C_R   0.541295 0.458472 0.977660 0.192609
C8    C     C_R   0.464913 0.547947 0.022428 0.196030
C9    C     C_2   0.419273 0.137170 0.476760 -0.357408
C10   C     C_2   0.585484 0.862911 0.496618 -0.355657
C11   C     C_2   0.518257 0.065978 0.468341 -0.163413
C12   C     C_R   0.554061 0.731695 0.503754 0.917781
C13   C     C_2   0.493109 0.934477 0.465417 -0.170624
C14   C     C_3   0.886186 0.571335 0.323740 0.200693
C15   C     C_3   0.821123 0.667628 0.257977 -0.780892
C16   C     C_3   0.093742 0.490829 0.691498 0.145476
C17   C     C_3   0.128078 0.409884 0.783661 -0.796063
C18   C     C_3   0.807854 0.298084 0.660240 0.245481
C19   C     C_3   0.842894 0.167840 0.688094 -0.892619
C20   C     C_3   0.209351 0.680627 0.324484 0.230015
C21   C     C_3   0.160500 0.787586 0.261403 -0.952565
C22   C     C_2   0.071212 0.499300 0.514928 0.515553
C23   C     C_2   0.927282 0.514905 0.492880 0.475126
C24   C     C_R   0.474922 0.505044 0.698051 0.858422
C25   C     C_R   0.525317 0.495160 0.301992 0.840273
C26   C     C_R   0.540728 0.489260 0.191493 -0.030767
C27   C     C_R   0.462072 0.514145 0.808690 -0.039085
C28   C     C_R   0.387301 0.619445 0.959722 -0.226929
H1    H     H_    0.407665 0.631323 0.164533 0.130627
H2    H     H_    0.318995 0.098604 0.474142 0.166860
H3    H     H_    0.836476 0.478055 0.311568 0.125283
H4    H     H_    0.983850 0.561517 0.292981 0.123099
H5    H     H_    0.874728 0.759584 0.267095 0.252475
H6    H     H_    0.818469 0.639621 0.174191 0.196732
H7    H     H_    0.720973 0.678877 0.284206 0.247947
H8    H     H_    0.993241 0.518909 0.701952 0.093247
H9    H     H_    0.158858 0.577131 0.693575 0.143548
H10   H     H_    0.129439 0.464938 0.857328 0.203906
H11   H     H_    0.055280 0.330345 0.790741 0.238416
H12   H     H_    0.596091 0.372751 0.835797 0.130833
H13   H     H_    0.224756 0.373373 0.772905 0.264926
H14   H     H_    0.701459 0.295259 0.653048 0.183047
H15   H     H_    0.838714 0.362106 0.725604 0.106216
H16   H     H_    0.949999 0.163540 0.692588 0.277554
H17   H     H_    0.801201 0.141018 0.764878 0.201341
H18   H     H_    0.802900 0.100952 0.627460 0.253600
H19   H     H_    0.204792 0.596875 0.273101 0.124692
H20   H     H_    0.310667 0.709086 0.344734 0.190008
H21   H     H_    0.130269 0.861912 0.314161 0.288089
H22   H     H_    0.239061 0.827172 0.210628 0.210910
H23   H     H_    0.676974 0.345737 0.196788 0.149307
H24   H     H_    0.078497 0.754201 0.209269 0.244657
H25   H     H_    0.331330 0.662244 0.803205 0.148646
H26   H     H_    0.329055 0.688538 0.993560 0.140448
H27   H     H_    0.679720 0.320100 0.006313 0.137970
H28   H     H_    0.395227 0.897039 0.445027 0.197203
H29   H     H_    0.618865 0.103778 0.471178 0.200201
H30   H     H_    0.682902 0.901204 0.517471 0.164763
N1    N     N_2   0.162330 0.550370 0.457540 -0.013314
N2    N     N_2   0.837670 0.449630 0.542460 -0.007763
O1    O     O_R   0.567930 0.307680 0.508550 -0.630205
O2    O     O_3   0.107192 0.424848 0.596681 -0.578686
O3    O     O_3   0.869720 0.334070 0.566736 -0.550689
O4    O     O_3   0.134659 0.660280 0.415172 -0.560318
O5    O     O_R   0.432070 0.692320 0.491450 -0.633944
O6    O     O_R   0.351090 0.340020 0.481290 -0.579039
O7    O     O_R   0.648910 0.659980 0.518710 -0.567313
O8    O     O_R   0.590490 0.486480 0.665020 -0.654819
O9    O     O_R   0.409510 0.513520 0.334980 -0.662585
O10   O     O_R   0.373660 0.518820 0.637760 -0.595678
O11   O     O_R   0.626340 0.481180 0.362240 -0.616703
O12   O     O_3   0.889759 0.610323 0.429926 -0.579835
Zn1   Zn    Zn3+2 0.644780 0.478400 0.518200 0.976403
Zn2   Zn    Zn3+2 0.355220 0.521600 0.481800 0.980938

loop_
_geom_bond_atom_site_label_1
_geom_bond_atom_site_label_2
_ccdc_geom_bond_type
O10   Zn2   S    
C2    C4    A    
C19   H17   S    
C20   O4    S    
C25   O11   A    
C22   O2    S    
C11   C13   S    
C12   O5    A    
C14   H3    S    
C15   H6    S    
C4    C26   A    
C2    C7    A    
C24   C27   S    
C5    C27   A    
C16   H9    S    
C2    H27   S    
C13   H28   S    
C11   H29   S    
C21   H21   S    
C1    O6    A    
C25   C26   S    
C19   H18   S    
C24   O10   A    
C7    C8    A    
C20   H20   S    
C18   H15   S    
C16   H8    S    
C3    H25   S    
N1    Zn2   S    
N1    O4    S    
C6    C26   A    
C10   C12   S    
C9    H2    S    
N2    O3    S    
O7    Zn1   S    
C3    C27   A    
C21   H22   S    
C10   H30   S    
C15   H5    S    
C17   H10   S    
C9    C11   D    
C23   N2    D    
C8    C28   A    
C12   O7    A    
C17   H13   S    
C18   O3    S    
C20   H19   S    
C25   O9    A    
C24   O8    A    
C4    H23   S    
O6    Zn2   S    
C19   H16   S    
N2    Zn1   S    
O9    Zn2   S    
C6    H1    S    
C1    C9    S    
C20   C21   S    
C5    C7    A    
C18   C19   S    
C17   H11   S    
C5    H12   S    
C15   H7    S    
C22   N1    D    
O11   Zn1   S    
C28   H26   S    
C22   C23   S    
C3    C28   A    
C6    C8    A    
C18   H14   S    
O1    Zn1   S    
O8    Zn1   S    
C14   C15   S    
C14   O12   S    
C23   O12   S    
C16   O2    S    
C21   H24   S    
O5    Zn2   S    
C14   H4    S    
C16   C17   S    
C10   C13   D    
C1    O1    A    
