data_mof_unit_18503.cif
_audit_creation_date              2012-10-26T18:44:11-0400
_audit_creation_method            fapswitch 2.2
_symmetry_space_group_name_H-M    P1
_symmetry_Int_Tables_number       1
_space_group_crystal_system       triclinic
_cell_length_a                    19.346395
_cell_length_b                    9.094394
_cell_length_c                    7.781455
_cell_angle_alpha                 89.999986
_cell_angle_beta                  90.000103
_cell_angle_gamma                 90.000015
_cell_volume                      1369.09828452

loop_
_atom_site_label
_atom_site_type_symbol
_atom_type_description
_atom_site_fract_x
_atom_site_fract_y
_atom_site_fract_z
_atom_type_partial_charge
C1    C     C_R   0.500000 0.220002 0.500000 0.541142
C2    C     C_R   0.253899 0.406486 0.385817 0.002121
C3    C     C_R   0.181516 0.588596 0.615756 -0.063574
C4    C     C_R   0.818484 0.588594 0.384242 -0.063575
C5    C     C_R   0.818484 0.411405 0.615758 -0.063575
C6    C     C_R   0.181516 0.411403 0.384243 -0.063575
C7    C     C_R   0.145498 0.499999 0.500000 -0.013514
C8    C     C_R   0.854502 0.499999 0.500000 -0.013514
C9    C     C_R   0.290835 0.500000 0.500000 -0.042175
C10   C     C_R   0.709165 0.500000 0.500000 -0.042175
C11   C     C_R   0.930129 0.499999 0.500000 0.336614
C12   C     C_R   0.500000 0.779998 0.500000 0.541143
C13   C     C_R   0.069871 0.499999 0.500000 0.336614
C14   C     C_2   0.289319 0.702725 0.726225 0.266500
C15   C     C_2   0.710681 0.702719 0.273770 0.266502
C16   C     C_2   0.710681 0.297279 0.726230 0.266501
C17   C     C_2   0.289320 0.297276 0.273773 0.266501
C18   C     C_R   0.367086 0.500000 0.500000 0.493906
C19   C     C_R   0.632914 0.500000 0.500000 0.493906
C20   C     C_1   0.500000 0.065367 0.500000 -0.034310
C21   C     C_1   0.500000 0.934633 0.500000 -0.034310
C22   C     C_R   0.253899 0.593514 0.614182 0.002122
C23   C     C_R   0.746101 0.593511 0.385816 0.002122
C24   C     C_R   0.746101 0.406487 0.614185 0.002122
Cu1   Cu    Cu3+1 0.500000 0.500000 0.669080 1.047923
Cu2   Cu    Cu3+1 0.500000 0.500000 0.330920 1.047923
H1    H     H_    0.152694 0.658916 0.702487 0.189317
H2    H     H_    0.847306 0.658912 0.297509 0.189316
H3    H     H_    0.847306 0.341086 0.702491 0.189317
H4    H     H_    0.152694 0.341083 0.297512 0.189316
H5    H     H_    0.342441 0.734495 0.702386 0.131921
H6    H     H_    0.657560 0.734495 0.297611 0.131920
H7    H     H_    0.657559 0.265506 0.702390 0.131921
H8    H     H_    0.342441 0.265503 0.297614 0.131920
N1    N     N_1   0.500000 0.500000 0.076820 -0.065594
N2    N     N_1   0.500000 0.500000 0.923180 -0.065594
N3    N     N_R   0.034377 0.499477 0.349655 -0.191075
N4    N     N_R   0.965623 0.499474 0.650345 -0.191076
N5    N     N_R   0.965623 0.500523 0.349655 -0.191076
N6    N     N_R   0.034377 0.500521 0.650345 -0.191075
O1    O     O_R   0.500000 0.288390 0.642760 -0.496101
O2    O     O_2   0.741005 0.760875 0.154033 -0.467674
O3    O     O_2   0.741006 0.239119 0.845962 -0.467674
O4    O     O_2   0.258994 0.239116 0.154039 -0.467672
O5    O     O_R   0.500000 0.711610 0.357240 -0.496100
O6    O     O_R   0.500000 0.711610 0.642760 -0.496100
O7    O     O_R   0.500000 0.288390 0.357240 -0.496100
O8    O     O_R   0.400140 0.500000 0.642830 -0.503432
O9    O     O_R   0.599860 0.500000 0.357170 -0.503432
O10   O     O_R   0.599860 0.500000 0.642830 -0.503432
O11   O     O_R   0.400140 0.500000 0.357170 -0.503432
O12   O     O_2   0.258993 0.760890 0.845953 -0.467674

loop_
_geom_bond_atom_site_label_1
_geom_bond_atom_site_label_2
_ccdc_geom_bond_type
C11   N4    A    
N4    N6    A    
C6    C7    A    
C16   H7    S    
C5    C8    A    
C14   H5    S    
C13   N3    A    
N1    N2    T    
C19   O10   A    
C10   C19   S    
C4    C8    A    
C14   C22   S    
C15   C23   S    
C17   O4    D    
C15   H6    S    
C16   C24   S    
Cu2   O11   S    
C2    C17   S    
C11   N5    A    
Cu1   O8    S    
C2    C6    A    
C5    C24   A    
Cu2   O7    S    
C8    C11   S    
C12   C21   S    
C1    C20   S    
C3    H1    S    
C4    H2    S    
C18   O11   A    
C3    C7    A    
C10   C23   A    
C9    C22   A    
C16   O3    D    
C17   H8    S    
Cu1   N2    S    
C5    H3    S    
C9    C18   S    
C7    C13   S    
C20   C21   T    
N3    N5    A    
Cu2   O9    S    
Cu1   O1    S    
Cu2   N1    S    
C4    C23   A    
C19   O9    A    
Cu1   O10   S    
C1    O7    A    
C13   N6    A    
Cu2   O5    S    
C10   C24   A    
Cu1   Cu2   S    
C2    C9    A    
Cu1   O6    S    
C6    H4    S    
C14   O12   D    
C1    O1    A    
C15   O2    D    
C12   O5    A    
C3    C22   A    
C12   O6    A    
C18   O8    A    
