data_mof_unit_5476.cif
_audit_creation_date              2012-12-10T16:50:13-0500
_audit_creation_method            fapswitch 2.2
_symmetry_space_group_name_H-M    P1
_symmetry_Int_Tables_number       1
_space_group_crystal_system       triclinic
_cell_length_a                    23.505308
_cell_length_b                    8.67797
_cell_length_c                    7.43558
_cell_angle_alpha                 103.014636
_cell_angle_beta                  93.982321
_cell_angle_gamma                 92.401426
_cell_volume                      1471.58386879

loop_
_atom_site_label
_atom_site_type_symbol
_atom_type_description
_atom_site_fract_x
_atom_site_fract_y
_atom_site_fract_z
_atom_type_partial_charge
C1    C     C_R   0.498274 0.199646 0.453176 0.888410
C2    C     C_R   0.501727 0.800354 0.546824 0.888440
C3    C     C_R   0.243962 0.601350 0.653756 -0.125803
C4    C     C_R   0.756014 0.398336 0.346370 -0.125692
C5    C     C_R   0.303350 0.602312 0.652072 -0.079130
C6    C     C_R   0.696628 0.397357 0.348132 -0.079184
C7    C     C_R   0.328437 0.497337 0.508761 -0.125173
C8    C     C_R   0.671553 0.502628 0.491195 -0.125108
C9    C     C_R   0.292650 0.391240 0.369850 -0.074193
C10   C     C_R   0.707341 0.609035 0.629772 -0.074301
C11   C     C_R   0.233441 0.392470 0.374210 -0.127392
C12   C     C_R   0.766548 0.607850 0.625325 -0.127255
C13   C     C_R   0.209093 0.497341 0.515004 0.319385
C14   C     C_R   0.790891 0.502675 0.484791 0.319178
C15   C     C_2   0.497423 0.031717 0.426806 -0.345794
C16   C     C_2   0.502580 0.968283 0.573194 -0.345830
C17   C     C_R   0.391070 0.499153 0.502741 0.792257
C18   C     C_R   0.608926 0.500827 0.497252 0.792290
C19   C     C_R   0.882127 0.626912 0.449428 0.540621
C20   C     C_R   0.117859 0.373092 0.550312 0.540628
C21   C     C_R   0.878347 0.373210 0.524965 0.543895
C22   C     C_R   0.121643 0.626816 0.474833 0.543898
C23   C     C_R   0.938021 0.370254 0.531402 -0.013823
C24   C     C_R   0.061967 0.629764 0.468363 -0.013848
C25   C     C_R   0.969939 0.499916 0.496413 -0.015503
C26   C     C_R   0.030049 0.500095 0.503338 -0.015499
C27   C     C_R   0.941898 0.629471 0.454707 -0.013201
C28   C     C_R   0.058090 0.370536 0.545036 -0.013226
C29   C     C_R   0.966410 0.241798 0.573178 -0.165825
C30   C     C_R   0.033578 0.758217 0.426579 -0.165833
C31   C     C_R   0.025852 0.241940 0.579938 -0.174460
C32   C     C_R   0.974136 0.758068 0.419802 -0.174449
Cu1   Cu    Cu3+1 0.506340 0.517380 0.684380 0.992823
Cu2   Cu    Cu3+1 0.493660 0.482620 0.315620 0.992833
H1    H     H_    0.942829 0.140963 0.601096 0.192428
H2    H     H_    0.057160 0.859054 0.398667 0.192430
H3    H     H_    0.046409 0.141139 0.612681 0.186157
H4    H     H_    0.953578 0.858867 0.387054 0.186154
H5    H     H_    0.224497 0.682347 0.762131 0.157557
H6    H     H_    0.775469 0.317099 0.238195 0.157680
H7    H     H_    0.205881 0.312100 0.267624 0.156462
H8    H     H_    0.794110 0.688470 0.731655 0.156582
H9    H     H_    0.492543 0.959969 0.285796 0.190650
H10   H     H_    0.507460 0.040031 0.714204 0.190638
H11   H     H_    0.454924 0.379387 0.948875 0.235026
H12   H     H_    0.545075 0.620614 0.051125 0.235007
N1    N     N_R   0.851783 0.500337 0.484874 -0.465451
N2    N     N_R   0.148203 0.499678 0.514897 -0.465495
N3    N     N_2   0.484110 0.456420 0.038520 -0.207731
N4    N     N_2   0.515890 0.543580 0.961480 -0.207742
O1    O     O_R   0.504120 0.286130 0.619770 -0.585540
O2    O     O_R   0.495880 0.713870 0.380230 -0.585513
O3    O     O_R   0.493410 0.256770 0.308360 -0.572790
O4    O     O_R   0.506590 0.743230 0.691640 -0.572781
O5    O     O_R   0.423230 0.514630 0.655730 -0.584370
O6    O     O_R   0.576770 0.485370 0.344270 -0.584389
O7    O     O_R   0.412530 0.485280 0.344320 -0.569534
O8    O     O_R   0.587470 0.514720 0.655680 -0.569546
O9    O     O_2   0.854467 0.749498 0.408731 -0.518849
O10   O     O_2   0.145520 0.250492 0.590968 -0.518764
O11   O     O_2   0.847093 0.251003 0.560448 -0.515939
O12   O     O_2   0.152902 0.749045 0.439422 -0.515847
C33   C     C_1   0.337302 0.716156 0.795323 0.292249
N5    N     N_1   0.364504 0.807252 0.910051 -0.245417
C34   C     C_1   0.662661 0.283228 0.205227 0.292118
N6    N     N_1   0.635445 0.191908 0.090774 -0.245354
C35   C     C_1   0.315389 0.276755 0.223912 0.287747
N7    N     N_1   0.333575 0.185091 0.107030 -0.249843
C36   C     C_1   0.684595 0.723760 0.775455 0.287538
N8    N     N_1   0.666404 0.815609 0.892136 -0.249664

loop_
_geom_bond_atom_site_label_1
_geom_bond_atom_site_label_2
_ccdc_geom_bond_type
Cu1   O5    S    
Cu2   O7    S    
C22   N2    A    
C22   O12   S    
C9    C35   S    
Cu2   O6    S    
Cu1   O8    S    
C1    C15   S    
C32   H4    S    
Cu1   O1    S    
C2    C16   S    
C29   H1    S    
C21   O11   S    
C3    C13   A    
H11   N3    S    
C4    H6    S    
C19   O9    S    
C23   C25   A    
Cu1   Cu2   S    
C25   C26   A    
C15   H9    S    
C11   H7    S    
C29   C31   A    
C21   N1    A    
C30   C32   A    
C18   O6    A    
C9    C11   A    
C20   N2    A    
C12   H8    S    
C2    O2    A    
Cu1   N4    S    
C17   O5    A    
C10   C12   A    
C8    C10   A    
C26   C28   A    
C6    C34   S    
C24   C26   A    
H12   N4    S    
N3    N4    D    
C24   C30   A    
C21   C23   A    
C4    C14   A    
C36   N8    T    
C22   C24   A    
C20   O10   S    
C25   C27   A    
C3    H5    S    
C35   N7    T    
C10   C36   S    
C23   C29   A    
C12   C14   A    
C11   C13   A    
C19   C27   A    
C5    C33   S    
Cu2   O3    S    
C4    C6    A    
C34   N6    T    
C2    O4    A    
C19   N1    A    
C17   O7    A    
Cu1   O4    S    
C7    C9    A    
C1    O3    A    
C5    C7    A    
Cu2   N3    S    
C6    C8    A    
C1    O1    A    
C20   C28   A    
C7    C17   S    
C27   C32   A    
C14   N1    S    
Cu2   O2    S    
C16   H10   S    
C28   C31   A    
C8    C18   S    
C18   O8    A    
C15   C16   D    
C31   H3    S    
C33   N5    T    
C3    C5    A    
C13   N2    S    
C30   H2    S    
