data_mof_unit_59941.cif
_audit_creation_date              2012-12-11T16:21:19-0500
_audit_creation_method            fapswitch 2.2
_symmetry_space_group_name_H-M    P1
_symmetry_Int_Tables_number       1
_space_group_crystal_system       triclinic
_cell_length_a                    7.169208
_cell_length_b                    37.285905
_cell_length_c                    41.018153
_cell_angle_alpha                 90.168365
_cell_angle_beta                  90.001972
_cell_angle_gamma                 90.000932
_cell_volume                      10964.5318837

loop_
_atom_site_label
_atom_site_type_symbol
_atom_type_description
_atom_site_fract_x
_atom_site_fract_y
_atom_site_fract_z
_atom_type_partial_charge
O1    O     O_R   0.564240 0.782760 0.216890 -0.507938
O2    O     O_R   0.435760 0.217240 0.783110 -0.503685
O3    O     O_R   0.435760 0.217240 0.716890 -0.547118
O4    O     O_R   0.564240 0.782760 0.283110 -0.550694
O5    O     O_R   0.064240 0.717240 0.283110 -0.507974
O6    O     O_R   0.935760 0.282760 0.716890 -0.503635
O7    O     O_R   0.935760 0.282760 0.783110 -0.547080
O8    O     O_R   0.064240 0.717240 0.216890 -0.550693
O9    O     O_R   0.234510 0.787070 0.282870 -0.520282
O10   O     O_R   0.765490 0.212930 0.717130 -0.508141
O11   O     O_R   0.765490 0.212930 0.782870 -0.548133
O12   O     O_R   0.234510 0.787070 0.217130 -0.542298
O13   O     O_R   0.734510 0.712930 0.217130 -0.520285
O14   O     O_R   0.265490 0.287070 0.782870 -0.508105
O15   O     O_R   0.265490 0.287070 0.717130 -0.548116
O16   O     O_R   0.734510 0.712930 0.282870 -0.542277
C1    C     C_R   0.403202 0.795893 0.293538 0.738796
C2    C     C_R   0.596763 0.204011 0.706321 0.722356
C3    C     C_R   0.596131 0.203801 0.793422 0.715221
C4    C     C_R   0.403890 0.796227 0.206609 0.719564
C5    C     C_R   0.903196 0.704102 0.206466 0.738953
C6    C     C_R   0.096771 0.295985 0.793682 0.722367
C7    C     C_R   0.096129 0.296199 0.706578 0.715309
C8    C     C_R   0.903891 0.703773 0.293391 0.719614
O17   O     O_3   0.397750 0.727090 0.250000 -0.372287
O18   O     O_3   0.602250 0.272910 0.750000 -0.368197
O19   O     O_3   0.897750 0.772910 0.250000 -0.372280
O20   O     O_3   0.102250 0.227090 0.750000 -0.368277
V1    V     V_3+5 0.122890 0.754250 0.250000 1.473353
V2    V     V_3+5 0.877110 0.245750 0.750000 1.507090
V3    V     V_3+5 0.622890 0.745750 0.250000 1.473421
V4    V     V_3+5 0.377110 0.254250 0.750000 1.507134
C9    C     C_R   0.874061 0.607291 0.426682 0.624270
C10   C     C_R   0.126972 0.392561 0.573160 0.627616
C11   C     C_R   0.119248 0.392139 0.927567 0.626247
C12   C     C_R   0.872998 0.608857 0.072666 0.626533
C13   C     C_R   0.374045 0.892714 0.073322 0.624375
C14   C     C_R   0.627038 0.107436 0.926839 0.627530
C15   C     C_R   0.618151 0.107617 0.572532 0.630837
C16   C     C_R   0.371646 0.890919 0.427418 0.621527
O21   O     O_2   0.788470 0.639153 0.431164 -0.518729
O22   O     O_2   0.212678 0.360710 0.568689 -0.515675
O23   O     O_2   0.218476 0.361654 0.931130 -0.512556
O24   O     O_2   0.772833 0.639235 0.069150 -0.516424
O25   O     O_2   0.288432 0.860854 0.068840 -0.518667
O26   O     O_2   0.712766 0.139286 0.931310 -0.515731
O27   O     O_2   0.716650 0.138168 0.568817 -0.513000
O28   O     O_2   0.270471 0.860640 0.430758 -0.516192
N1    N     N_R   0.948105 0.598739 0.396771 -0.543069
N2    N     N_R   0.052746 0.401100 0.603059 -0.542728
N3    N     N_R   0.032588 0.399253 0.898483 -0.545977
N4    N     N_R   0.959467 0.601817 0.101721 -0.548991
N5    N     N_R   0.448105 0.901265 0.103232 -0.543008
N6    N     N_R   0.552790 0.098898 0.896940 -0.542781
N7    N     N_R   0.532316 0.100537 0.601693 -0.545235
N8    N     N_R   0.459206 0.897963 0.398463 -0.549740
C17   C     C_R   0.044777 0.567241 0.392516 0.632594
C18   C     C_R   0.956028 0.432594 0.607308 0.628330
C19   C     C_R   0.923189 0.429192 0.894999 0.610014
C20   C     C_R   0.068038 0.571882 0.105480 0.632926
C21   C     C_R   0.544797 0.932762 0.107486 0.632232
C22   C     C_R   0.456051 0.067406 0.892692 0.628660
C23   C     C_R   0.423846 0.070503 0.605353 0.625921
C24   C     C_R   0.568962 0.927770 0.394899 0.617634
C25   C     C_R   0.098545 0.636201 0.354663 -0.164395
C26   C     C_R   0.901917 0.363593 0.645080 -0.164587
C27   C     C_R   0.224276 0.367543 0.857360 -0.168271
C28   C     C_R   0.801811 0.623728 0.151394 -0.167654
C29   C     C_R   0.598542 0.863803 0.145341 -0.164503
C30   C     C_R   0.401943 0.136409 0.854923 -0.164457
C31   C     C_R   0.724200 0.132403 0.642684 -0.164218
C32   C     C_R   0.301672 0.876163 0.348733 -0.170867
C33   C     C_R   0.090251 0.660633 0.328758 0.419570
C34   C     C_R   0.909948 0.339187 0.671013 0.431222
C35   C     C_R   0.242833 0.342949 0.831414 0.433018
C36   C     C_R   0.783381 0.648943 0.176911 0.411334
C37   C     C_R   0.590249 0.839369 0.171245 0.419739
C38   C     C_R   0.409962 0.160814 0.828990 0.431068
C39   C     C_R   0.742815 0.157036 0.668598 0.431178
C40   C     C_R   0.283322 0.851001 0.323169 0.412603
C41   C     C_R   0.753924 0.663625 0.335173 -0.273737
C42   C     C_R   0.246345 0.336256 0.664746 -0.278526
C43   C     C_R   0.910897 0.330409 0.835112 -0.263656
C44   C     C_R   0.055512 0.680391 0.156135 -0.289455
C45   C     C_R   0.253920 0.836379 0.164829 -0.273862
C46   C     C_R   0.746365 0.163741 0.835251 -0.278392
C47   C     C_R   0.410797 0.169514 0.664948 -0.262844
C48   C     C_R   0.555590 0.819548 0.343884 -0.290140
C49   C     C_R   0.763244 0.637895 0.359945 -0.072751
C50   C     C_R   0.237275 0.361961 0.639949 -0.074813
C51   C     C_R   0.893724 0.355458 0.860319 -0.075914
C52   C     C_R   0.069966 0.655683 0.130596 -0.107136
C53   C     C_R   0.263241 0.862110 0.140058 -0.072984
C54   C     C_R   0.737306 0.138036 0.860048 -0.074540
C55   C     C_R   0.393555 0.144414 0.639783 -0.076877
C56   C     C_R   0.570011 0.844208 0.369461 -0.106419
C57   C     C_R   0.936008 0.624227 0.370210 0.297250
C58   C     C_R   0.064611 0.375602 0.629612 0.295845
C59   C     C_R   0.050129 0.374117 0.871752 0.299111
C60   C     C_R   0.943632 0.627224 0.128109 0.320091
C61   C     C_R   0.436006 0.875777 0.129793 0.297200
C62   C     C_R   0.564644 0.124397 0.870388 0.295848
C63   C     C_R   0.549972 0.125767 0.628345 0.297254
C64   C     C_R   0.443551 0.872639 0.372006 0.323100
C65   C     C_R   0.984078 0.550608 0.448737 -0.045179
C66   C     C_R   0.016945 0.449242 0.551098 -0.044961
C67   C     C_R   0.001038 0.448090 0.950103 -0.035434
C68   C     C_R   0.990219 0.552669 0.050455 -0.043216
C69   C     C_R   0.484096 0.949394 0.051265 -0.045141
C70   C     C_R   0.516989 0.050757 0.948902 -0.044961
C71   C     C_R   0.500617 0.051482 0.550236 -0.043301
C72   C     C_R   0.489814 0.946897 0.449889 -0.035583
C73   C     C_R   0.890040 0.583354 0.453075 -0.070505
C74   C     C_R   0.111045 0.416501 0.546767 -0.072137
C75   C     C_R   0.103439 0.416228 0.953948 -0.083652
C76   C     C_R   0.888637 0.584628 0.046403 -0.071641
C77   C     C_R   0.390032 0.916650 0.046928 -0.070578
C78   C     C_R   0.611110 0.083496 0.953232 -0.072087
C79   C     C_R   0.602336 0.083414 0.546236 -0.072857
C80   C     C_R   0.387338 0.915027 0.453770 -0.082181
C81   C     C_R   0.828256 0.592722 0.484308 -0.162843
C82   C     C_R   0.172920 0.407137 0.515539 -0.161557
C83   C     C_R   0.175071 0.407933 0.984728 -0.153812
C84   C     C_R   0.817073 0.592793 0.015598 -0.156156
C85   C     C_R   0.328226 0.907282 0.015696 -0.162734
C86   C     C_R   0.673001 0.092860 0.984460 -0.161586
C87   C     C_R   0.673714 0.091614 0.515416 -0.153952
C88   C     C_R   0.315401 0.906778 0.484527 -0.155808
C89   C     C_R   0.069808 0.543338 0.418687 -0.092926
C90   C     C_R   0.931114 0.456505 0.581141 -0.090903
C91   C     C_R   0.903303 0.453815 0.920918 -0.076113
C92   C     C_R   0.087035 0.546976 0.079755 -0.095399
C93   C     C_R   0.569838 0.956663 0.081315 -0.092762
C94   C     C_R   0.431137 0.043495 0.918860 -0.091083
C95   C     C_R   0.403974 0.045761 0.579525 -0.092347
C96   C     C_R   0.587914 0.952569 0.420710 -0.079573
C97   C     C_R   0.916461 0.675698 0.319319 -0.147152
C98   C     C_R   0.083683 0.324198 0.680571 -0.153144
C99   C     C_R   0.084879 0.323450 0.820314 -0.158375
C100  C     C_R   0.913692 0.677294 0.179663 -0.134522
C101  C     C_R   0.416458 0.824304 0.180682 -0.147280
C102  C     C_R   0.583695 0.175802 0.819429 -0.153081
C103  C     C_R   0.584844 0.176523 0.679707 -0.158067
C104  C     C_R   0.413715 0.822671 0.320367 -0.134664
H1    H     H_    0.618927 0.674357 0.328695 0.199875
H2    H     H_    0.381250 0.325521 0.671259 0.203048
H3    H     H_    0.786873 0.316116 0.827512 0.200772
H4    H     H_    0.154751 0.702256 0.157334 0.151490
H5    H     H_    0.118921 0.825647 0.171306 0.199939
H6    H     H_    0.881271 0.174474 0.828736 0.203002
H7    H     H_    0.286758 0.183794 0.672558 0.200718
H8    H     H_    0.654879 0.797694 0.342650 0.151540
H9    H     H_    0.635588 0.628915 0.371433 0.154652
H10   H     H_    0.365046 0.370942 0.628502 0.155262
H11   H     H_    0.758426 0.359969 0.871342 0.159546
H12   H     H_    0.180027 0.658603 0.112721 0.144968
H13   H     H_    0.135584 0.871090 0.128569 0.154667
H14   H     H_    0.865083 0.129053 0.871494 0.155264
H15   H     H_    0.258188 0.139842 0.628804 0.159665
H16   H     H_    0.680092 0.841263 0.387329 0.144691
H17   H     H_    0.772838 0.619242 0.489138 0.188120
H18   H     H_    0.228391 0.380621 0.510713 0.189036
H19   H     H_    0.236116 0.381866 0.989387 0.188022
H20   H     H_    0.756243 0.618854 0.010830 0.185893
H21   H     H_    0.272782 0.880764 0.010866 0.188170
H22   H     H_    0.728486 0.119376 0.989286 0.189008
H23   H     H_    0.734623 0.117670 0.510660 0.187636
H24   H     H_    0.254311 0.880716 0.489190 0.186243
C105  C     C_R   0.896433 0.505957 0.529124 -0.068145
C106  C     C_R   0.104621 0.493894 0.470710 -0.068166
C107  C     C_R   0.109251 0.495530 0.028715 -0.063784
C108  C     C_R   0.881195 0.504971 0.972093 -0.040458
C109  C     C_R   0.396449 0.994044 0.970877 -0.068160
C110  C     C_R   0.604670 0.006105 0.029291 -0.068133
C111  C     C_R   0.609485 0.003816 0.471843 -0.040494
C112  C     C_R   0.381312 0.994389 0.528452 -0.063586
C113  C     C_R   0.094569 0.466805 0.495092 0.034091
C114  C     C_R   0.906520 0.533047 0.504745 0.034159
C115  C     C_R   0.897365 0.532930 0.995682 0.034616
C116  C     C_R   0.093790 0.467632 0.004987 0.035365
C117  C     C_R   0.594625 0.033193 0.004908 0.034101
C118  C     C_R   0.406535 0.966954 0.995256 0.034150
C119  C     C_R   0.396782 0.966488 0.504737 0.035366
C120  C     C_R   0.593313 0.031776 0.495441 0.034616
C121  C     C_R   0.005006 0.474380 0.525186 -0.008992
C122  C     C_R   0.996051 0.525470 0.474649 -0.008951
C123  C     C_R   0.997173 0.526692 0.025030 -0.006969
C124  C     C_R   0.993965 0.473930 0.975641 0.028997
C125  C     C_R   0.505047 0.025619 0.974814 -0.008865
C126  C     C_R   0.496080 0.974530 0.025352 -0.008923
C127  C     C_R   0.496708 0.972770 0.475397 0.029218
C128  C     C_R   0.493484 0.025535 0.524783 -0.007057
C129  C     C_R   0.774078 0.507589 0.556558 0.491617
C130  C     C_R   0.226926 0.492261 0.443269 0.490744
C131  C     C_R   0.239209 0.495127 0.055186 0.496721
C132  C     C_R   0.749751 0.505265 0.945883 0.473799
C133  C     C_R   0.274077 0.992415 0.943444 0.491428
C134  C     C_R   0.726982 0.007737 0.056733 0.490832
C135  C     C_R   0.741038 0.004092 0.445642 0.472979
C136  C     C_R   0.251370 0.993983 0.554917 0.497736
C137  C     C_R   0.807893 0.485503 0.583438 -0.209201
C138  C     C_R   0.193028 0.514340 0.416386 -0.206994
C139  C     C_R   0.213059 0.518444 0.081610 -0.207784
C140  C     C_R   0.775759 0.482135 0.919327 -0.225085
C141  C     C_R   0.307893 0.014499 0.916564 -0.208924
C142  C     C_R   0.693078 0.985659 0.083616 -0.207345
C143  C     C_R   0.715348 0.980902 0.419112 -0.222487
C144  C     C_R   0.277754 0.017254 0.581359 -0.210526
O29   O     O_2   0.883818 0.440871 0.636763 -0.525611
O30   O     O_2   0.116800 0.558946 0.363052 -0.520834
O31   O     O_2   0.158399 0.566368 0.133880 -0.519286
O32   O     O_2   0.834288 0.435234 0.866546 -0.528647
O33   O     O_2   0.383821 0.059129 0.863238 -0.525174
O34   O     O_2   0.616832 0.941057 0.136951 -0.521288
O35   O     O_2   0.660538 0.933258 0.366616 -0.522021
O36   O     O_2   0.335882 0.064479 0.633897 -0.525866
C145  C     C_R   0.849146 0.569029 0.510397 0.510846
C146  C     C_R   0.152014 0.430826 0.489446 0.510054
C147  C     C_R   0.156178 0.432014 0.010694 0.508377
C148  C     C_R   0.835189 0.568523 0.989779 0.511821
C149  C     C_R   0.349127 0.930973 0.989605 0.510743
C150  C     C_R   0.652088 0.069172 0.010554 0.510116
C151  C     C_R   0.655531 0.067371 0.489570 0.510735
C152  C     C_R   0.334325 0.930878 0.510470 0.509489
H25   H     H_    0.767216 0.373320 0.637037 0.147098
H26   H     H_    0.233321 0.626425 0.362618 0.147021
H27   H     H_    0.706937 0.601196 0.149808 0.147933
H28   H     H_    0.346237 0.381582 0.866358 0.146781
H29   H     H_    0.267244 0.126682 0.862966 0.147112
H30   H     H_    0.733320 0.873577 0.137386 0.147047
H31   H     H_    0.206693 0.898673 0.350367 0.143209
H32   H     H_    0.846156 0.118366 0.633687 0.149329
H33   H     H_    0.721383 0.488543 0.604937 0.210004
H34   H     H_    0.279485 0.511297 0.394880 0.211270
H35   H     H_    0.305670 0.516404 0.102407 0.209735
H36   H     H_    0.682258 0.484130 0.898656 0.185451
H37   H     H_    0.221369 0.011461 0.895065 0.210163
H38   H     H_    0.779539 0.988702 0.105123 0.211100
H39   H     H_    0.809012 0.982864 0.398461 0.187082
H40   H     H_    0.185216 0.015195 0.602164 0.208200
O37   O     O_3   0.745195 0.328845 0.685711 -0.549444
C153  C     C_3   0.696308 0.355002 0.709107 -0.225767
H41   H     H_    0.663971 0.381153 0.697387 0.148245
H42   H     H_    0.807820 0.358362 0.727782 0.118442
H43   H     H_    0.568565 0.345983 0.721948 0.157465
O38   O     O_3   0.254852 0.670885 0.313948 -0.556679
C154  C     C_3   0.301579 0.644925 0.290233 -0.189850
H44   H     H_    0.189106 0.641957 0.271679 0.126009
H45   H     H_    0.333208 0.618589 0.301670 0.150601
H46   H     H_    0.429124 0.653879 0.277282 0.175760
O39   O     O_3   0.650669 0.643960 0.200989 -0.555419
C155  C     C_3   0.472020 0.650269 0.187803 -0.163230
H47   H     H_    0.430341 0.628495 0.170728 0.156690
H48   H     H_    0.464487 0.676812 0.175478 0.120090
H49   H     H_    0.369234 0.650640 0.208022 0.155409
O40   O     O_3   0.417863 0.336351 0.818605 -0.550157
C156  C     C_3   0.465747 0.364697 0.797525 -0.233832
H50   H     H_    0.483212 0.390332 0.811127 0.156284
H51   H     H_    0.361044 0.367836 0.777669 0.116763
H52   H     H_    0.601533 0.358326 0.785912 0.155224
O41   O     O_3   0.245192 0.171156 0.814298 -0.549583
C157  C     C_3   0.196452 0.145029 0.790864 -0.224980
H53   H     H_    0.164515 0.118834 0.802539 0.148519
H54   H     H_    0.307886 0.141764 0.772162 0.118686
H55   H     H_    0.068513 0.154019 0.778065 0.157282
O42   O     O_3   0.754851 0.829116 0.186055 -0.556526
C158  C     C_3   0.801587 0.855075 0.209772 -0.190645
H56   H     H_    0.689118 0.858043 0.228325 0.125760
H57   H     H_    0.833222 0.881412 0.198336 0.150257
H58   H     H_    0.929132 0.846120 0.222724 0.175768
O43   O     O_3   0.150583 0.856017 0.299100 -0.555770
C159  C     C_3   0.971956 0.849668 0.312277 -0.164677
H59   H     H_    0.930219 0.871413 0.329378 0.156208
H60   H     H_    0.964502 0.823107 0.324569 0.120607
H61   H     H_    0.869170 0.849316 0.292056 0.155415
O44   O     O_3   0.917888 0.163653 0.681383 -0.550529
C160  C     C_3   0.965638 0.135377 0.702552 -0.231971
H62   H     H_    0.982724 0.109675 0.689039 0.157975
H63   H     H_    0.861011 0.132362 0.722435 0.116960
H64   H     H_    0.101574 0.141743 0.714113 0.154884
S1    S     S_3+6 0.545431 0.526112 0.554769 0.042746
O45   O     O_2   0.533470 0.558470 0.576621 -0.307181
O46   O     O_2   0.491357 0.536102 0.520571 -0.306919
O47   O     O_3   0.394329 0.495128 0.568481 -0.505317
H65   H     H_    0.277234 0.508460 0.572678 0.349669
S2    S     S_3+6 0.455608 0.473754 0.445050 0.044094
O48   O     O_2   0.509737 0.463766 0.479246 -0.306928
O49   O     O_2   0.467605 0.441398 0.423196 -0.305539
O50   O     O_3   0.606638 0.504750 0.431334 -0.504819
H66   H     H_    0.723680 0.491420 0.427098 0.350233
S3    S     S_3+6 0.466206 0.475925 0.052714 0.046443
O51   O     O_2   0.479631 0.444476 0.075455 -0.310773
O52   O     O_2   0.514432 0.464356 0.018611 -0.301914
O53   O     O_3   0.621216 0.507084 0.064810 -0.506976
H67   H     H_    0.732506 0.493376 0.071796 0.346632
S4    S     S_3+6 0.521804 0.523945 0.949104 0.047565
O54   O     O_2   0.477662 0.535806 0.983288 -0.288172
O55   O     O_2   0.502224 0.555265 0.926344 -0.316665
O56   O     O_3   0.366229 0.492316 0.938240 -0.505297
H68   H     H_    0.340667 0.496376 0.914811 0.335654
S5    S     S_3+6 0.045418 0.973897 0.945235 0.042914
O57   O     O_2   0.033420 0.941540 0.923381 -0.307016
O58   O     O_2   0.991355 0.963906 0.979433 -0.306872
O59   O     O_3   0.894333 0.004886 0.931525 -0.505283
H69   H     H_    0.777327 0.991547 0.927275 0.349735
S6    S     S_3+6 0.955669 0.026243 0.054954 0.043929
O60   O     O_2   0.009800 0.036231 0.020758 -0.306890
O61   O     O_2   0.967670 0.058600 0.076807 -0.305768
O62   O     O_3   0.106695 0.995248 0.068672 -0.504881
H70   H     H_    0.223734 0.008580 0.072913 0.350160
S7    S     S_3+6 0.968884 0.022824 0.448861 0.048811
O63   O     O_2   0.988257 0.054146 0.426098 -0.315191
O64   O     O_2   0.012996 0.034698 0.483043 -0.288169
O65   O     O_3   0.124650 0.991230 0.437998 -0.504952
H71   H     H_    0.150483 0.995342 0.414586 0.336721
S8    S     S_3+6 0.024297 0.974815 0.552438 0.044964
O66   O     O_2   0.976042 0.963255 0.518334 -0.301864
O67   O     O_2   0.010727 0.943366 0.575177 -0.312425
O68   O     O_3   0.869432 0.005998 0.564535 -0.507747
H72   H     H_    0.758237 0.992303 0.571589 0.346203
O69   O     O_3   0.823582 0.582394 0.541497 -0.523092
C161  C     C_3   0.999668 0.590952 0.554747 -0.134639
H73   H     H_    0.072360 0.611581 0.539836 0.143292
H74   H     H_    0.088803 0.566691 0.557303 0.141529
H75   H     H_    0.978865 0.602323 0.579496 0.189605
O70   O     O_3   0.177628 0.417453 0.458350 -0.523087
C162  C     C_3   0.001552 0.408929 0.445078 -0.130607
H76   H     H_    0.928488 0.388370 0.460014 0.143511
H77   H     H_    0.022430 0.397482 0.420360 0.190722
H78   H     H_    0.912725 0.433221 0.442445 0.140882
O71   O     O_3   0.188836 0.419325 0.041750 -0.521851
C163  C     C_3   0.015962 0.411149 0.056371 -0.133335
H79   H     H_    0.938648 0.390497 0.042098 0.143402
H80   H     H_    0.928611 0.435571 0.059564 0.136358
H81   H     H_    0.042610 0.399967 0.080960 0.190542
O72   O     O_3   0.800641 0.580911 0.958672 -0.523518
C164  C     C_3   0.972732 0.588584 0.943543 -0.136033
H82   H     H_    0.058357 0.563941 0.940257 0.160695
H83   H     H_    0.052548 0.609161 0.957481 0.142957
H84   H     H_    0.944616 0.599654 0.918962 0.185917
O73   O     O_3   0.323529 0.917603 0.958507 -0.523109
C165  C     C_3   0.499615 0.909088 0.945238 -0.134002
H85   H     H_    0.572711 0.888535 0.960175 0.143193
H86   H     H_    0.588407 0.933385 0.942604 0.141368
H87   H     H_    0.478751 0.897638 0.920520 0.189706
O74   O     O_3   0.677707 0.082547 0.041649 -0.523077
C166  C     C_3   0.501633 0.091070 0.054920 -0.130955
H88   H     H_    0.428545 0.111622 0.039980 0.143545
H89   H     H_    0.522516 0.102524 0.079636 0.190571
H90   H     H_    0.412824 0.066775 0.057559 0.140894
O75   O     O_3   0.690094 0.079788 0.458474 -0.523440
C167  C     C_3   0.518008 0.087452 0.443337 -0.131760
H91   H     H_    0.438067 0.107998 0.457289 0.143630
H92   H     H_    0.432498 0.062798 0.440018 0.159986
H93   H     H_    0.546138 0.098557 0.418770 0.186942
O76   O     O_3   0.301682 0.918213 0.541535 -0.521895
C168  C     C_3   0.474560 0.910041 0.556158 -0.137653
H94   H     H_    0.561948 0.934461 0.559334 0.137076
H95   H     H_    0.551832 0.889375 0.541896 0.142715
H96   H     H_    0.447920 0.898879 0.580754 0.189528

loop_
_geom_bond_atom_site_label_1
_geom_bond_atom_site_label_2
_ccdc_geom_bond_type
C161  H74   S    
C84   C148  A    
C168  H94   S    
C32   H31   S    
C134  C142  A    
S3    O51   D    
C10   O22   S    
C20   C92   A    
C164  H82   S    
C21   C93   A    
O15   V4    S    
S5    O57   D    
S1    O47   S    
C19   C91   A    
C39   O44   S    
O47   H65   S    
S5    O59   S    
C161  H75   S    
C131  C139  A    
O43   C159  S    
C129  C137  A    
C16   O28   S    
C7    C98   S    
C159  H59   S    
C92   C139  A    
C153  H42   S    
C11   C75   A    
O70   C162  S    
C132  C140  A    
C136  C144  A    
C88   C152  A    
N6    C62   S    
C153  H43   S    
C75   C83   A    
C69   C93   A    
C135  S7    S    
C107  C131  A    
C53   C61   A    
C72   C80   A    
C165  H85   S    
C94   C141  A    
C105  C129  A    
O65   H71   S    
C6    C99   S    
S8    O66   D    
O16   V3    S    
C44   H4    S    
C148  O72   S    
C138  H34   S    
C83   H19   S    
O10   V2    S    
C145  O69   S    
C167  H91   S    
O12   C4    A    
C30   C62   A    
S6    O60   D    
O13   C5    A    
C142  H38   S    
C91   C140  A    
C108  C115  A    
S4    O54   D    
O6    V2    S    
C109  C118  A    
C168  H96   S    
C56   C64   A    
C11   N3    A    
C12   O24   S    
C13   O25   S    
C164  H84   S    
C15   O27   S    
C154  H46   S    
C66   C90   A    
C118  C149  A    
C129  S1    S    
S2    O50   S    
O2    C3    A    
O72   C164  S    
C165  H87   S    
C96   C143  A    
C157  H54   S    
C29   C61   A    
O7    C6    A    
C43   C51   A    
C140  H36   S    
C72   C127  A    
S2    O49   D    
C33   C97   A    
O10   C2    A    
C159  H61   S    
C26   H25   S    
C37   C101  A    
N1    C57   S    
C114  C122  A    
C13   C77   A    
C54   C62   A    
C42   C98   A    
O69   C161  S    
C49   C57   A    
C118  C126  A    
C155  H47   S    
O17   V3    S    
C154  H45   S    
C24   C96   A    
O18   V4    S    
O12   V1    S    
O19   V1    S    
C114  C145  A    
C29   C37   A    
O75   C167  S    
C31   C39   A    
C1    C104  S    
C55   H15   S    
O8    V1    S    
C152  O76   S    
C65   C73   A    
C2    C103  S    
S3    O52   D    
C46   H6    S    
O41   C157  S    
C158  H58   S    
C26   C34   A    
C167  H93   S    
O1    V3    S    
N1    C17   A    
C37   O42   S    
O2    V4    S    
C156  H50   S    
N4    C20   A    
N5    C21   A    
S4    O56   S    
C39   C103  A    
C40   C104  A    
N7    C23   A    
N8    C24   A    
C23   O36   S    
C11   O23   S    
C12   N4    A    
C13   N5    A    
C160  H62   S    
C72   C96   A    
C55   C63   A    
N2    C58   S    
C109  C133  A    
C163  H79   S    
C45   C101  A    
C162  H77   S    
C119  C152  A    
C93   C142  A    
C67   C124  A    
N4    C60   S    
C65   C122  A    
C85   H21   S    
C28   C60   A    
C69   C126  A    
O50   H66   S    
C111  C135  A    
C155  H49   S    
S7    O64   D    
O14   C6    A    
C70   C94   A    
C27   C35   A    
C12   C76   A    
C150  O74   S    
C18   O29   S    
O9    C1    A    
C31   C63   A    
O38   C154  S    
C81   C145  A    
C4    C101  S    
O1    C4    A    
C10   N2    A    
C158  H56   S    
C157  H53   S    
C27   C59   A    
C8    C97   S    
C28   C36   A    
C9    C73   A    
C82   H18   S    
C156  H52   S    
C26   C58   A    
C30   H29   S    
C32   C40   A    
C35   C99   A    
C166  H90   S    
C15   C79   A    
C14   O26   S    
C73   C81   A    
O44   C160  S    
C54   H14   S    
C160  H64   S    
C134  S6    S    
C116  C147  A    
C44   C52   A    
C51   C59   A    
C77   C85   A    
C79   C87   A    
C120  C151  A    
C48   C56   A    
C24   O35   S    
C133  C141  A    
C163  H81   S    
C157  H55   S    
C43   C99   A    
C69   C77   A    
O39   C155  S    
C41   C97   A    
C34   C98   A    
O11   C3    A    
C38   C102  A    
O53   H67   S    
C165  H86   S    
C115  C123  A    
C9    N1    A    
C130  C138  A    
C113  C121  A    
S8    O67   D    
C83   C147  A    
C116  C124  A    
C42   H2    S    
C117  C125  A    
C15   N7    A    
O11   V2    S    
N5    C61   S    
C16   N8    A    
C167  H92   S    
S6    O61   D    
C120  C128  A    
C50   H10   S    
C143  H39   S    
C41   C49   A    
S4    O55   D    
C161  H73   S    
C71   C128  A    
C168  H95   S    
O7    V2    S    
C112  C136  A    
C164  H83   S    
S5    O58   D    
S6    O62   S    
C106  C113  A    
N2    C18   A    
N8    C64   S    
C166  H88   S    
C106  C130  A    
C33   O38   S    
C32   C64   A    
O62   H70   S    
C147  O71   S    
O56   H68   S    
C139  H35   S    
C137  H33   S    
C14   N6    A    
C106  C122  A    
C153  H41   S    
C141  H37   S    
C90   C137  A    
C110  C126  A    
O4    C1    A    
C132  S4    S    
C16   C80   A    
C3    C102  S    
C85   C149  A    
S8    O68   S    
C22   O33   S    
S1    O46   D    
C46   C102  A    
C155  H48   S    
C17   C89   A    
C17   O30   S    
C76   C84   A    
C117  C150  A    
O13   V3    S    
C66   C121  A    
O14   V4    S    
C86   H22   S    
C80   C88   A    
N6    C22   A    
C70   C125  A    
C42   C50   A    
C40   O43   S    
C9    O21   S    
C68   C76   A    
C162  H76   S    
C158  H57   S    
C71   C95   A    
C133  S5    S    
C18   C90   A    
C25   H26   S    
O3    V4    S    
C20   O31   S    
O4    V3    S    
C105  C121  A    
O68   H72   S    
C14   C78   A    
C131  S3    S    
C5    C100  S    
C36   O39   S    
C111  C120  A    
C84   H20   S    
C112  C119  A    
S7    O63   D    
C115  C148  A    
C30   C38   A    
C68   C123  A    
C113  C146  A    
O71   C163  S    
C144  H40   S    
C28   H27   S    
O73   C165  S    
C66   C74   A    
C71   C79   A    
C163  H80   S    
O37   C153  S    
C111  C127  A    
S2    O48   D    
C112  C128  A    
N7    C63   S    
C130  S2    S    
C25   C33   A    
O3    C2    A    
C136  S8    S    
C46   C54   A    
C34   O37   S    
C31   H32   S    
C146  O70   S    
C87   C151  A    
O15   C7    A    
C81   H17   S    
O16   C8    A    
C47   H7    S    
C48   H8    S    
C45   C53   A    
C110  C117  A    
O5    V1    S    
C36   C100  A    
N3    C59   S    
C110  C134  A    
C68   C92   A    
C149  O73   S    
S3    O53   S    
C67   C91   A    
C35   O40   S    
C65   C89   A    
S1    O45   D    
C47   C55   A    
C156  H51   S    
C23   C95   A    
C51   H11   S    
C166  H89   S    
C49   H9    S    
O40   C156  S    
C135  C143  A    
O8    C5    A    
C52   H12   S    
C53   H13   S    
C70   C78   A    
C67   C75   A    
C43   H3    S    
C89   C138  A    
C159  H60   S    
O59   H69   S    
C56   H16   S    
C41   H1    S    
C160  H63   S    
C38   O41   S    
C107  C116  A    
N3    C19   A    
C21   O34   S    
C105  C114  A    
C19   O32   S    
C52   C60   A    
C82   C146  A    
C119  C127  A    
C162  H78   S    
C154  H44   S    
C86   C150  A    
O9    V1    S    
C10   C74   A    
C107  C123  A    
C22   C94   A    
O20   V2    S    
C25   C57   A    
C29   H30   S    
O74   C166  S    
O5    C8    A    
C27   H28   S    
C108  C124  A    
O6    C7    A    
C109  C125  A    
O76   C168  S    
C48   C104  A    
C45   H5    S    
C108  C132  A    
O42   C158  S    
C74   C82   A    
C44   C100  A    
C87   H23   S    
S7    O65   S    
C88   H24   S    
C78   C86   A    
C47   C103  A    
C50   C58   A    
C151  O75   S    
C95   C144  A    
