data_mof_unit_17176.cif
_audit_creation_date              2012-12-11T15:21:28-0500
_audit_creation_method            fapswitch 2.2
_symmetry_space_group_name_H-M    P1
_symmetry_Int_Tables_number       1
_space_group_crystal_system       triclinic
_cell_length_a                    8.233567
_cell_length_b                    12.736844
_cell_length_c                    19.140232
_cell_angle_alpha                 94.539228
_cell_angle_beta                  94.702438
_cell_angle_gamma                 98.026317
_cell_volume                      1972.51334598

loop_
_atom_site_label
_atom_site_type_symbol
_atom_type_description
_atom_site_fract_x
_atom_site_fract_y
_atom_site_fract_z
_atom_type_partial_charge
Ba1   Ba    Ba6+2 0.160910 0.552960 0.466220 1.753990
Ba2   Ba    Ba6+2 0.649260 0.447030 0.533730 1.753203
C1    C     C_3   0.430982 0.835258 0.203872 -0.350048
C2    C     C_3   0.429487 0.794164 0.276256 0.410839
C3    C     C_3   0.590295 0.773251 0.639604 0.300179
C4    C     C_3   0.534317 0.879482 0.626427 -0.331298
C5    C     C_3   0.868897 0.158940 0.693440 0.399161
C6    C     C_3   0.857010 0.050330 0.721795 -0.311427
C7    C     C_3   0.326460 0.153786 0.733430 0.193114
C8    C     C_3   0.392583 0.135578 0.808646 0.282465
C9    C     C_R   0.058423 0.185192 0.542240 -0.152579
C10   C     C_R   0.732087 0.817411 0.475769 -0.256541
C11   C     C_R   0.703025 0.997025 0.449805 -0.067565
C12   C     C_3   0.897204 0.825252 0.241556 0.308859
C13   C     C_R   0.637847 0.888911 0.447377 -0.038983
C14   C     C_R   0.885217 0.851741 0.513039 0.079559
C15   C     C_R   0.947241 0.963952 0.521749 -0.003704
C16   C     C_R   0.855007 0.037799 0.488519 -0.015301
C17   C     C_R   0.915993 0.150125 0.496463 0.114910
C18   C     C_R   0.158725 0.113658 0.568292 0.017003
C19   C     C_R   0.100333 0.004243 0.560217 -0.076882
C20   C     C_R   0.609946 0.549284 0.299914 -0.278569
C21   C     C_R   0.452248 0.496223 0.278489 0.042280
C22   C     C_R   0.391349 0.490520 0.207331 -0.066649
C23   C     C_3   0.942612 0.895299 0.183022 -0.347223
C24   C     C_R   0.494231 0.527974 0.156132 0.019005
C25   C     C_R   0.657544 0.574372 0.178738 -0.132665
C26   C     C_R   0.713903 0.585823 0.250374 -0.010948
C27   C     C_R   0.481014 0.601091 0.037950 -0.086224
C28   C     C_R   0.430011 0.594192 0.965820 -0.041880
C29   C     C_R   0.325323 0.504353 0.932953 0.065460
C30   C     C_R   0.271743 0.422701 0.974649 -0.077642
C31   C     C_R   0.331865 0.424515 0.045653 -0.046978
C32   C     C_R   0.434752 0.516680 0.079203 0.047115
C33   C     C_R   0.118313 0.441024 0.828119 -0.041018
C34   C     C_3   0.795795 0.323392 0.321489 0.252513
C35   C     C_R   0.076085 0.422708 0.755356 0.013683
C36   C     C_R   0.341557 0.515241 0.734072 0.056207
C37   C     C_R   0.387961 0.530084 0.806976 0.025483
C38   C     C_R   0.276705 0.492367 0.855152 0.048251
C39   C     C_R   0.189221 0.457395 0.708893 -0.317527
C40   C     C_3   0.773967 0.300994 0.241343 -0.252345
C41   C     C_3   0.033519 0.676658 0.678496 0.282031
C42   C     C_3   0.997998 0.692451 0.755300 0.383247
C43   C     C_3   0.372104 0.213071 0.331838 0.655404
C44   C     C_3   0.382017 0.124627 0.274201 -0.333982
H1    H     H_    0.341509 0.718881 0.272369 0.080000
H2    H     H_    0.662102 0.242643 0.225505 0.134139
H3    H     H_    0.757235 0.375163 0.216867 0.031928
H4    H     H_    0.160200 0.659559 0.675246 0.008726
H5    H     H_    0.945551 0.606981 0.654323 -0.008915
H6    H     H_    0.998123 0.617305 0.780345 -0.092283
H7    H     H_    0.873749 0.716133 0.758090 0.011029
H8    H     H_    0.496054 0.250215 0.352179 -0.013614
H9    H     H_    0.468603 0.774826 0.165936 0.068572
H10   H     H_    0.406150 0.158699 0.223971 0.127086
H11   H     H_    0.264816 0.068959 0.264395 0.142293
H12   H     H_    0.482623 0.079045 0.289805 0.102637
H13   H     H_    0.555343 0.777614 0.292631 -0.162006
H14   H     H_    0.519741 0.909868 0.206116 0.108434
H15   H     H_    0.719996 0.788600 0.662605 0.020300
H16   H     H_    0.582954 0.725125 0.588109 -0.001958
H17   H     H_    0.507626 0.921213 0.676354 0.153310
H18   H     H_    0.630693 0.930623 0.602374 0.034961
H19   H     H_    0.420994 0.866483 0.589947 0.132231
H20   H     H_    0.306298 0.851129 0.185303 0.143763
H21   H     H_    0.847437 0.947499 0.172918 0.124632
H22   H     H_    0.787214 0.151797 0.643592 0.050325
H23   H     H_    0.998523 0.184048 0.683123 -0.132190
H24   H     H_    0.886243 0.990352 0.681259 0.057305
H25   H     H_    0.945346 0.053380 0.768861 0.212600
H26   H     H_    0.731428 0.026302 0.737315 0.102879
H27   H     H_    0.218037 0.092185 0.716727 0.036795
H28   H     H_    0.289654 0.234632 0.733234 0.038304
H29   H     H_    0.426237 0.053984 0.807797 0.027488
H30   H     H_    0.633956 0.048471 0.421725 0.124742
H31   H     H_    0.177155 0.951708 0.583258 0.086847
H32   H     H_    0.101552 0.269776 0.551486 0.067404
H33   H     H_    0.682418 0.733644 0.471000 0.049089
H34   H     H_    0.508658 0.572735 0.825732 0.068167
H35   H     H_    0.470687 0.660203 0.936076 0.100550
H36   H     H_    0.557990 0.673131 0.061490 0.072325
H37   H     H_    0.266141 0.453203 0.191788 0.076479
H38   H     H_    0.189433 0.353585 0.950874 0.156481
H39   H     H_    0.772848 0.781812 0.224156 -0.106886
H40   H     H_    0.026922 0.415875 0.863290 0.089863
H41   H     H_    0.742062 0.599997 0.140884 0.074469
H42   H     H_    0.154053 0.446068 0.652764 0.053021
H43   H     H_    0.656593 0.554645 0.354801 0.061608
H44   H     H_    0.063774 0.945522 0.197383 0.133288
H45   H     H_    0.949474 0.844495 0.133741 0.125694
H46   H     H_    0.698058 0.367880 0.338630 -0.076299
H47   H     H_    0.912103 0.375428 0.336958 0.099749
O1    O     O_2   0.160820 0.763040 0.533820 -0.460305
O2    O     O_3   0.276345 0.285073 0.305973 -0.663968
O3    O     O_3   0.016761 0.757079 0.251013 -0.562995
O4    O     O_2   0.649470 0.236890 0.466160 -0.445732
O5    O     O_3   0.919320 0.371390 0.464540 -0.494110
O6    O     O_3   0.424350 0.301430 0.591880 -0.420154
O7    O     O_3   0.791072 0.227335 0.353258 -0.634617
O8    O     O_3   0.382770 0.553920 0.582990 -0.472604
O9    O     O_3   0.848220 0.355290 0.626830 -0.513721
O10   O     O_2   0.735662 0.421051 0.747134 -0.443454
O11   O     O_3   0.818095 0.231260 0.743227 -0.568294
O12   O     O_3   0.890970 0.628600 0.535400 -0.506528
O13   O     O_3   0.427530 0.446070 0.416950 -0.458410
O14   O     O_2   0.637430 0.550200 0.669460 -0.491163
O15   O     O_3   0.493602 0.724685 0.688625 -0.593622
O16   O     O_2   0.496088 0.113244 0.556393 -0.438030
O17   O     O_3   0.449667 0.143406 0.687700 -0.643156
O18   O     O_3   0.385950 0.698560 0.408070 -0.505755
O19   O     O_2   0.296216 0.880285 0.452329 -0.370302
O20   O     O_3   0.017037 0.770410 0.646487 -0.633268
O21   O     O_3   0.379623 0.870509 0.323784 -0.557495
O22   O     O_2   0.172860 0.449730 0.330520 -0.466440
O23   O     O_3   0.962080 0.644700 0.373110 -0.450627
O24   O     O_2   0.036359 0.556838 0.251132 -0.512279
P1    P     P_3+3 0.986780 0.745970 0.554690 0.980979
P2    P     P_3+3 0.341450 0.417130 0.341310 1.030373
P3    P     P_3+3 0.929591 0.636907 0.280854 0.978303
P4    P     P_3+3 0.823520 0.254020 0.445250 1.049954
P5    P     P_3+3 0.869487 0.360009 0.718657 1.013008
P6    P     P_3+3 0.426180 0.836557 0.409114 1.069711
P7    P     P_3+3 0.463083 0.586017 0.670890 0.986428
P8    P     P_3+3 0.377358 0.165489 0.602065 1.046243
C45   C     C_2   0.920527 0.260110 0.213720 0.529794
H48   H     H_    0.036605 0.312565 0.215904 0.032209
O25   O     O_2   0.909431 0.168695 0.187321 -0.586749
S1    S     S_3+6 0.146064 0.791961 0.804336 -0.054094
O26   O     O_2   0.156083 0.892544 0.767909 -0.276317
O27   O     O_2   0.091935 0.810826 0.876765 -0.259441
O28   O     O_3   0.332322 0.752631 0.811140 -0.556477
H49   H     H_    0.406915 0.814230 0.836250 0.365144
S2    S     S_3+6 0.270017 0.160896 0.400228 -0.066117
O29   O     O_2   0.354715 0.075128 0.428202 -0.291370
O30   O     O_2   0.279860 0.252242 0.455206 -0.334201
O31   O     O_3   0.073235 0.111714 0.372545 -0.533741
H50   H     H_    0.052055 0.134201 0.324795 0.331529
S3    S     S_3+6 0.242252 0.145559 0.870949 -0.099131
O32   O     O_2   0.328495 0.188289 0.941818 -0.311518
O33   O     O_2   0.124436 0.218236 0.847245 -0.375438
O34   O     O_3   0.134907 0.026473 0.879696 -0.422778
H51   H     H_    0.050853 0.041304 0.911851 0.366807
C46   C     C_2   0.544230 0.213394 0.833984 0.618897
H52   H     H_    0.657947 0.184283 0.850104 0.005402
O35   O     O_2   0.539489 0.309049 0.839100 -0.555502
C47   C     C_2   0.889945 0.893986 0.308258 0.541108
H53   H     H_    0.801223 0.949417 0.310146 -0.066115
O36   O     O_2   0.983029 0.888472 0.360392 -0.499773
C48   C     C_2   0.293747 0.324596 0.079745 0.537362
H54   H     H_    0.178473 0.272336 0.064145 0.039772
O37   O     O_2   0.394138 0.296278 0.122090 -0.588578

loop_
_geom_bond_atom_site_label_1
_geom_bond_atom_site_label_2
_ccdc_geom_bond_type
O5    P4    S    
C45   H48   S    
O13   P2    S    
S3    O33   D    
C34   C40   S    
C47   H53   S    
C23   H21   S    
S2    O31   S    
C5    C6    S    
O6    P8    S    
C43   C44   S    
C9    C17   A    
C23   H44   S    
C13   P6    S    
C11   C16   A    
O20   P1    S    
C2    O21   S    
C47   O36   D    
C22   H37   S    
C22   C24   A    
C16   C17   A    
C31   C48   S    
C21   P2    S    
C36   C37   A    
S3    O34   S    
O11   P5    S    
Ba2   O9    S    
C10   H33   S    
Ba2   O14   S    
C29   C38   S    
Ba1   Ba2   S    
Ba1   P2    S    
C4    H18   S    
O4    P4    D    
C5    H22   S    
C1    H9    S    
C42   H7    S    
C24   C32   S    
C4    H19   S    
C10   C14   A    
Ba2   O4    S    
O28   H49   S    
C21   C22   A    
C11   H30   S    
Ba1   O23   S    
C7    C8    S    
Ba1   O13   S    
S1    O28   S    
C1    H14   S    
C34   H46   S    
C20   C26   A    
C44   H12   S    
C7    H27   S    
O14   P7    D    
O15   P7    S    
C34   H47   S    
C12   O3    S    
C31   C32   A    
C30   H38   S    
C9    C18   A    
C23   H45   S    
O8    P7    S    
C6    H26   S    
O18   P6    S    
C37   H34   S    
O19   P6    D    
C46   O35   D    
C26   P3    S    
O24   P3    D    
C37   C38   A    
C14   C15   A    
C8    C46   S    
C40   H3    S    
Ba2   O8    S    
O2    P2    S    
C42   S1    S    
C27   C32   A    
Ba2   O13   S    
C15   C19   A    
O23   P3    S    
C4    H17   S    
Ba1   O5    S    
C41   C42   S    
C5    H23   S    
C27   C28   A    
C9    H32   S    
C14   P1    S    
C8    H29   S    
C29   C30   A    
C10   C13   A    
C28   C29   A    
C15   C16   A    
C43   S2    S    
C3    H15   S    
C34   O7    S    
C40   H2    S    
C25   H41   S    
C36   C39   A    
O21   P6    S    
O16   P8    D    
Ba2   O6    S    
O22   P2    D    
C5    O11   S    
C11   C13   A    
C44   H11   S    
C24   C25   A    
C48   O37   D    
O12   P1    S    
C1    H20   S    
C7    H28   S    
C19   H31   S    
C1    C2    S    
C43   O2    S    
Ba1   O8    S    
S1    O26   D    
Ba2   P4    S    
C7    O17   S    
C39   H42   S    
C17   P4    S    
C6    H25   S    
C45   O25   D    
C33   C35   A    
O34   H51   S    
O3    P3    S    
C12   H39   S    
C46   H52   S    
C43   H8    S    
Ba1   O1    S    
S2    O30   D    
S3    O32   D    
C41   H4    S    
S2    O29   D    
C42   H6    S    
O31   H50   S    
Ba2   O12   S    
C6    H24   S    
C48   H54   S    
C30   C31   A    
C28   H35   S    
C33   C38   A    
C27   H36   S    
Ba1   O18   S    
O1    P1    D    
C41   H5    S    
C3    C4    S    
C12   C47   S    
C2    H13   S    
C33   H40   S    
C20   H43   S    
C3    H16   S    
Ba1   P1    S    
C12   C23   S    
C35   C39   A    
C36   P7    S    
C40   C45   S    
O17   P8    S    
C35   P5    S    
C18   P8    S    
C18   C19   A    
Ba2   O5    S    
C8    S3    S    
C44   H10   S    
C25   C26   A    
C20   C21   A    
Ba1   O22   S    
O9    P5    S    
O10   P5    D    
C3    O15   S    
C41   O20   S    
Ba1   O12   S    
S1    O27   D    
C2    H1    S    
O7    P4    S    
