data_mof_unit_32033.cif
_audit_creation_date              2012-12-10T17:53:20-0500
_audit_creation_method            fapswitch 2.2
_symmetry_space_group_name_H-M    P1
_symmetry_Int_Tables_number       1
_space_group_crystal_system       triclinic
_cell_length_a                    23.417986
_cell_length_b                    10.623955
_cell_length_c                    9.911736
_cell_angle_alpha                 89.920695
_cell_angle_beta                  89.908944
_cell_angle_gamma                 91.612003
_cell_volume                      2464.97540123

loop_
_atom_site_label
_atom_site_type_symbol
_atom_type_description
_atom_site_fract_x
_atom_site_fract_y
_atom_site_fract_z
_atom_type_partial_charge
C1    C     C_R   0.501384 0.260713 0.500122 0.871046
C2    C     C_R   0.966458 0.265268 0.441843 -0.155451
C3    C     C_R   0.025897 0.263917 0.442315 -0.151189
C4    C     C_R   0.057958 0.373835 0.472719 -0.021361
C5    C     C_R   0.029889 0.485942 0.503196 -0.020487
C6    C     C_R   0.061652 0.596762 0.534007 -0.016024
C7    C     C_R   0.033333 0.708020 0.564068 -0.150072
C8    C     C_R   0.973930 0.709379 0.563550 -0.158217
C9    C     C_R   0.117626 0.375001 0.473564 0.519456
C10   C     C_R   0.121187 0.593226 0.533388 0.506318
C11   C     C_R   0.238057 0.488144 0.624656 -0.052283
C12   C     C_R   0.389383 0.498516 0.500184 0.878579
C13   C     C_R   0.297317 0.493013 0.623961 -0.144111
C14   C     C_R   0.327102 0.493167 0.500860 -0.052273
C15   C     C_R   0.296886 0.486677 0.378698 -0.208796
C16   C     C_R   0.237592 0.481700 0.379821 -0.086684
C17   C     C_R   0.208307 0.483131 0.502684 0.298167
C18   C     C_R   0.762161 0.488834 0.378331 -0.102789
C19   C     C_R   0.702945 0.491969 0.377708 -0.208424
C20   C     C_R   0.672855 0.497984 0.500068 -0.038226
C21   C     C_R   0.702710 0.500896 0.622839 -0.239217
C22   C     C_R   0.761902 0.497917 0.623047 -0.105351
C23   C     C_R   0.501572 0.739449 0.499884 0.879515
C24   C     C_R   0.791518 0.491878 0.500908 0.323956
C25   C     C_R   0.597368 0.137078 0.622988 -0.171468
C26   C     C_R   0.642344 0.074083 0.682408 -0.111556
C27   C     C_R   0.642409 0.943103 0.682172 -0.118603
C28   C     C_R   0.597514 0.874668 0.622446 -0.186335
C29   C     C_R   0.551207 0.937133 0.563068 0.097405
C30   C     C_R   0.551120 0.069066 0.563360 0.094669
C31   C     C_R   0.505209 0.128669 0.500027 -0.086467
C32   C     C_R   0.461800 0.062002 0.433501 -0.142779
C33   C     C_R   0.461887 0.933423 0.433244 -0.160205
C34   C     C_R   0.610616 0.500035 0.499915 0.837696
C35   C     C_R   0.505387 0.871989 0.499480 -0.107635
C36   C     C_R   0.425277 0.334647 0.140308 -0.258364
C37   C     C_R   0.388661 0.252741 0.070360 -0.274450
C38   C     C_R   0.388797 0.251953 0.930326 0.479430
C39   C     C_R   0.425452 0.334605 0.860362 -0.271874
C40   C     C_R   0.463229 0.418462 0.927978 0.105901
C41   C     C_R   0.463212 0.418485 0.072478 0.187380
C42   C     C_R   0.535247 0.577902 0.071244 -0.105518
C43   C     C_R   0.535230 0.577882 0.928105 -0.093937
C44   C     C_R   0.882275 0.598620 0.531531 0.504071
C45   C     C_R   0.878542 0.380366 0.471838 0.502968
C46   C     C_R   0.938117 0.376562 0.471752 -0.015461
C47   C     C_R   0.969918 0.487314 0.502684 -0.020269
C48   C     C_R   0.941892 0.599497 0.532983 -0.015315
H1    H     H_    0.942856 0.179043 0.417940 0.195320
H2    H     H_    0.680857 0.489490 0.281789 0.162795
H3    H     H_    0.680463 0.505500 0.718513 0.161610
H4    H     H_    0.784865 0.500251 0.717805 0.139497
H5    H     H_    0.427195 0.109788 0.384202 0.152722
H6    H     H_    0.599757 0.238793 0.622596 0.151728
H7    H     H_    0.677520 0.127114 0.727553 0.150084
H8    H     H_    0.677630 0.894353 0.727157 0.151400
H9    H     H_    0.600008 0.773204 0.621551 0.141945
H10   H     H_    0.427341 0.881418 0.383794 0.165480
H11   H     H_    0.564048 0.641554 0.124782 0.146173
H12   H     H_    0.046581 0.176698 0.418745 0.196192
H13   H     H_    0.422521 0.329391 0.247282 0.224456
H14   H     H_    0.360061 0.189890 0.126132 0.210894
H15   H     H_    0.423127 0.330610 0.753442 0.235118
H16   H     H_    0.564009 0.641545 0.874073 0.140056
H17   H     H_    0.056924 0.794268 0.587939 0.198932
H18   H     H_    0.953259 0.796630 0.587054 0.194218
H19   H     H_    0.215146 0.489096 0.719630 0.149138
H20   H     H_    0.319663 0.497093 0.719524 0.171949
H21   H     H_    0.318922 0.485861 0.282551 0.172733
H22   H     H_    0.214309 0.478120 0.285526 0.148801
H23   H     H_    0.785340 0.484532 0.283893 0.139539
N1    N     N_R   0.852206 0.490198 0.501369 -0.360252
N2    N     N_R   0.147607 0.483583 0.503480 -0.362436
N3    N     N_R   0.499460 0.498800 0.142780 -0.112101
N4    N     N_R   0.499440 0.498720 0.857170 -0.107583
O1    O     O_R   0.500000 0.316780 0.614690 -0.628033
O2    O     O_2   0.847042 0.275390 0.443498 -0.551302
O3    O     O_2   0.145601 0.268801 0.445402 -0.523975
O4    O     O_2   0.152604 0.698407 0.561458 -0.536608
O5    O     O_R   0.500000 0.316750 0.385360 -0.634308
O6    O     O_R   0.416160 0.499970 0.614690 -0.631399
O7    O     O_R   0.416150 0.499950 0.385360 -0.638243
O8    O     O_R   0.500000 0.683250 0.614640 -0.606240
O9    O     O_R   0.500000 0.683220 0.385310 -0.612052
O10   O     O_R   0.583850 0.500050 0.614640 -0.638026
O11   O     O_R   0.583840 0.500030 0.385310 -0.616148
O12   O     O_2   0.854404 0.705096 0.559181 -0.553373
Zn1   Zn    Zn3+2 0.500000 0.500020 0.653130 0.951210
Zn2   Zn    Zn3+2 0.500000 0.499980 0.346870 0.949817
S1    S     S_3+6 0.342408 0.148597 0.841395 0.024077
O13   O     O_2   0.289361 0.217257 0.804860 -0.293075
O14   O     O_2   0.371098 0.105116 0.714598 -0.307762
O15   O     O_3   0.324603 0.023371 0.938198 -0.544966
H24   H     H_    0.298575 0.970769 0.881606 0.396635

loop_
_geom_bond_atom_site_label_1
_geom_bond_atom_site_label_2
_ccdc_geom_bond_type
C8    H18   S    
O15   H24   S    
C19   C20   A    
C1    C31   S    
C26   H7    S    
C37   H14   S    
C7    C8    A    
C28   H9    S    
C2    C46   A    
C5    C47   A    
C26   C27   A    
C33   H10   S    
O7    Zn2   S    
C23   O8    A    
C18   C24   A    
N3    Zn2   S    
C36   C37   A    
C5    C6    A    
C10   N2    A    
C15   C16   A    
C18   H23   S    
C18   C19   A    
C34   O11   A    
O5    Zn2   S    
C41   N3    A    
C11   C17   A    
C31   C32   A    
C16   C17   A    
C44   O12   S    
O1    Zn1   S    
C20   C34   S    
C3    H12   S    
O8    Zn1   S    
C21   C22   A    
C45   N1    A    
C17   N2    S    
C36   C41   A    
C9    N2    A    
C11   H19   S    
C43   H16   S    
C43   N4    A    
C38   C39   A    
C15   H21   S    
C42   N3    A    
C23   O9    A    
C16   H22   S    
C25   H6    S    
C39   C40   A    
C27   H8    S    
C25   C26   A    
C45   C46   A    
C3    C4    A    
C34   O10   A    
C8    C48   A    
C37   C38   A    
C2    H1    S    
C7    H17   S    
S1    O14   D    
C47   C48   A    
C12   O7    A    
C40   C41   A    
C12   C14   S    
C23   C35   S    
C22   C24   A    
C42   C43   A    
C36   H13   S    
C32   H5    S    
C21   H3    S    
C24   N1    S    
S1    O15   S    
C22   H4    S    
O10   Zn1   S    
C25   C30   A    
C29   C35   A    
C46   C47   A    
C28   C29   A    
C1    O1    A    
C4    C5    A    
O11   Zn2   S    
C42   H11   S    
C6    C10   A    
C10   O4    S    
C6    C7    A    
C39   H15   S    
C38   S1    S    
C40   N4    A    
C32   C33   A    
C2    C3    A    
C11   C13   A    
C19   H2    S    
S1    O13   D    
C30   C31   A    
C33   C35   A    
C12   O6    A    
C44   N1    A    
C9    O3    S    
O6    Zn1   S    
C29   C30   A    
N4    Zn1   S    
C20   C21   A    
O9    Zn2   S    
C27   C28   A    
C1    O5    A    
C14   C15   A    
C45   O2    S    
C4    C9    A    
C13   C14   A    
C44   C48   A    
C13   H20   S    
