data_mof_unit_19201.cif
_audit_creation_date              2012-12-11T14:47:57-0500
_audit_creation_method            fapswitch 2.2
_symmetry_space_group_name_H-M    P1
_symmetry_Int_Tables_number       1
_space_group_crystal_system       triclinic
_cell_length_a                    11.535292
_cell_length_b                    11.543525
_cell_length_c                    19.546702
_cell_angle_alpha                 90.899366
_cell_angle_beta                  90.600215
_cell_angle_gamma                 59.838604
_cell_volume                      2250.12737472

loop_
_atom_site_label
_atom_site_type_symbol
_atom_type_description
_atom_site_fract_x
_atom_site_fract_y
_atom_site_fract_z
_atom_type_partial_charge
C1    C     C_R   0.642072 0.118786 0.598462 0.546579
C2    C     C_1   0.663709 0.159741 0.664657 0.003106
C3    C     C_R   0.515406 0.757964 0.283730 -0.008962
C4    C     C_R   0.612995 0.745859 0.598600 0.542856
C5    C     C_R   0.535767 0.757579 0.213535 -0.042694
C6    C     C_R   0.667286 0.682301 0.189346 -0.060997
C7    C     C_R   0.779780 0.637782 0.234176 -0.029040
C8    C     C_R   0.757404 0.653280 0.303612 -0.144685
C9    C     C_R   0.628583 0.709599 0.328771 -0.028611
C10   C     C_R   0.284089 0.179371 0.284448 -0.145845
C11   C     C_R   0.249994 0.201177 0.215640 0.022035
C12   C     C_1   0.642413 0.703817 0.667977 0.005525
C13   C     C_R   0.135342 0.198261 0.193487 0.085586
C14   C     C_R   0.058991 0.171084 0.239627 -0.104053
C15   C     C_R   0.093107 0.151441 0.308318 -0.134568
C16   C     C_R   0.241286 0.145474 0.598220 0.547566
C17   C     C_R   0.204853 0.157041 0.330577 0.011376
C18   C     C_R   0.749970 0.037165 0.287726 -0.009015
C19   C     C_R   0.727991 0.055776 0.217152 -0.020101
C20   C     C_R   0.668414 0.187660 0.192936 0.005705
C21   C     C_R   0.602308 0.296893 0.238109 -0.160700
C22   C     C_R   0.596823 0.277214 0.307944 -0.047727
C23   C     C_1   0.126121 0.198411 0.859196 0.005950
C24   C     C_R   0.671037 0.145515 0.333508 0.024880
C25   C     C_R   0.081483 0.231156 0.928530 0.556234
C26   C     C_R   0.683495 0.604479 0.929454 0.532296
C27   C     C_R   0.740699 0.231693 0.923134 0.551329
C28   C     C_R   0.646484 0.112535 0.402480 0.536542
C29   C     C_R   0.081819 0.236559 0.125326 0.613733
C30   C     C_R   0.683989 0.614367 0.124455 0.521102
C31   C     C_R   0.706828 0.211352 0.126263 0.553277
C32   C     C_R   0.610905 0.745886 0.400290 0.531826
C33   C     C_R   0.244598 0.140389 0.401349 0.539650
C34   C     C_1   0.171279 0.170811 0.727598 -0.028376
C35   C     C_1   0.669402 0.646396 0.860105 0.007041
C36   C     C_1   0.655424 0.683560 0.728433 -0.029265
C37   C     C_1   0.663016 0.666534 0.799695 -0.028833
C38   C     C_2   0.376349 0.808739 0.307673 0.338543
C39   C     C_3   0.774286 0.935969 0.168357 -0.270505
C40   C     C_3   0.664977 0.953272 0.117690 -0.406954
C41   C     C_3   0.522007 0.399748 0.353575 -0.260470
C42   C     C_3   0.370647 0.458121 0.347293 -0.352420
C43   C     C_2   0.423490 0.828913 0.163107 0.229350
C44   C     C_2   0.921212 0.580557 0.211177 0.238073
C45   C     C_1   0.149607 0.182230 0.798830 -0.029303
C46   C     C_2   0.335605 0.227219 0.169730 0.216858
C47   C     C_2   0.869422 0.911848 0.311790 0.274324
C48   C     C_1   0.195363 0.161650 0.667330 0.006111
C49   C     C_1   0.714504 0.219377 0.852346 0.003154
C50   C     C_1   0.679320 0.185077 0.722867 -0.027387
C51   C     C_1   0.697113 0.206244 0.792509 -0.028426
Cr1   Cr    Cr6+3 0.404720 0.198220 0.499960 1.021938
Cr2   Cr    Cr6+3 0.698290 0.897110 0.500380 1.058523
Cr3   Cr    Cr6+3 0.396970 0.904720 0.499610 1.072869
Cr4   Cr    Cr6+3 0.926180 0.152240 0.028110 1.049578
Cr5   Cr    Cr6+3 0.921340 0.452070 0.027460 1.040429
Cr6   Cr    Cr6+3 0.626260 0.447120 0.028700 1.061873
H1    H     H_    0.557579 0.398371 0.219260 0.160589
H2    H     H_    0.867485 0.912549 0.141133 0.191775
H3    H     H_    0.798689 0.845792 0.197078 0.102530
H4    H     H_    0.335849 0.497125 0.294968 0.185724
H5    H     H_    0.343283 0.381005 0.358011 0.182267
H6    H     H_    0.318198 0.541223 0.384918 0.195925
H7    H     H_    0.552959 0.377391 0.407913 0.160071
H8    H     H_    0.547600 0.476780 0.338735 0.182177
H9    H     H_    0.443402 0.862371 0.115350 0.122652
H10   H     H_    0.944060 0.607700 0.162407 0.145289
H11   H     H_    0.401408 0.259402 0.191514 0.114377
H12   H     H_    0.840977 0.623108 0.338743 0.175196
H13   H     H_    0.885663 0.813990 0.297454 0.108548
H14   H     H_    0.373607 0.178947 0.302405 0.105901
H15   H     H_    0.969343 0.170554 0.222890 0.141735
H16   H     H_    0.032404 0.133588 0.343806 0.157350
H17   H     H_    0.298207 0.907076 0.293477 0.147430
H18   H     H_    0.573301 0.974596 0.145898 0.152044
H19   H     H_    0.640152 0.035301 0.081360 0.195616
H20   H     H_    0.700127 0.859431 0.087376 0.134604
O1    O     O_R   0.267740 0.231990 0.575440 -0.501682
O2    O     O_R   0.596140 0.579600 0.952720 -0.508129
O3    O     O_R   0.639070 0.321380 0.958660 -0.481023
O4    O     O_R   0.527280 0.186680 0.570530 -0.494835
O5    O     O_R   0.821240 0.124490 0.104360 -0.518304
O6    O     O_R   0.036900 0.167320 0.097830 -0.497969
O7    O     O_R   0.056190 0.349890 0.102870 -0.468980
O8    O     O_R   0.797670 0.565150 0.097930 -0.534150
O9    O     O_R   0.595880 0.584540 0.104260 -0.488879
O10   O     O_R   0.638830 0.325960 0.099140 -0.490084
O11   O     O_3   0.824590 0.350480 0.028090 -0.290783
O12   O     O_R   0.685970 0.784630 0.430010 -0.512472
O13   O     O_R   0.728090 0.003480 0.576380 -0.497283
O14   O     O_R   0.682970 0.789220 0.570490 -0.492605
O15   O     O_R   0.499290 0.771920 0.575530 -0.502066
O16   O     O_R   0.285330 0.030900 0.569730 -0.490274
O17   O     O_R   0.270980 0.227040 0.423900 -0.515924
O18   O     O_R   0.530280 0.182090 0.430050 -0.521850
O19   O     O_R   0.731330 0.998530 0.424830 -0.474702
O20   O     O_2   0.346635 0.737017 0.339116 -0.489778
O21   O     O_2   0.311732 0.845005 0.171980 -0.504016
O22   O     O_2   0.014771 0.506405 0.248069 -0.524254
O23   O     O_R   0.502530 0.766960 0.423990 -0.474707
O24   O     O_2   0.336514 0.210126 0.107904 -0.507846
O25   O     O_2   0.953412 0.918140 0.347701 -0.472215
O26   O     O_R   0.288330 0.026310 0.429250 -0.493631
O27   O     O_3   0.499990 0.000020 0.499980 -0.269220
O28   O     O_R   0.821500 0.119550 0.952820 -0.501841
O29   O     O_R   0.037130 0.162750 0.957360 -0.508199
O30   O     O_R   0.056440 0.344950 0.951330 -0.488923
O31   O     O_R   0.797900 0.560570 0.957460 -0.502056

loop_
_geom_bond_atom_site_label_1
_geom_bond_atom_site_label_2
_ccdc_geom_bond_type
C1    O13   A    
C23   C45   T    
C41   C42   S    
Cr6   O2    S    
C19   C20   A    
C43   O21   D    
C18   C47   S    
C16   C48   S    
C7    C8    A    
Cr5   O30   S    
C46   H11   S    
C16   O16   A    
C31   O5    A    
Cr4   O28   S    
C28   O18   A    
C18   C24   A    
C13   C29   S    
C36   C37   S    
C35   C37   T    
C29   O6    A    
C5    C6    A    
C44   O22   D    
Cr5   O11   S    
C22   C41   S    
C27   O28   A    
C10   C17   A    
C1    O4    A    
Cr6   O9    S    
Cr1   O18   S    
C18   C19   A    
Cr4   O11   S    
Cr5   O31   S    
Cr3   O16   S    
C2    C50   T    
C9    C32   S    
C3    C38   S    
C8    C9    A    
C49   C51   T    
Cr2   O14   S    
Cr1   O17   S    
C12   C36   T    
C4    C12   S    
C42   H5    S    
C11   C46   S    
C4    O14   A    
C10   H14   S    
C5    C43   S    
C47   O25   D    
C13   C14   A    
C33   O17   A    
Cr2   O19   S    
Cr6   O3    S    
Cr3   O23   S    
C17   C33   S    
C38   O20   D    
Cr1   O1    S    
C25   O29   A    
Cr5   O7    S    
C46   O24   D    
C32   O23   A    
C31   O10   A    
Cr4   O29   S    
Cr3   O26   S    
C29   O7    A    
C27   O3    A    
C26   O31   A    
C39   C40   S    
C41   H8    S    
Cr6   O10   S    
C30   O8    A    
C47   H13   S    
Cr3   O15   S    
C3    C9    A    
C32   O12   A    
C14   C15   A    
C39   H2    S    
C50   C51   S    
C8    H12   S    
C34   C45   S    
C7    C44   S    
Cr4   O5    S    
C42   H4    S    
C19   C39   S    
C15   H16   S    
Cr2   O12   S    
C22   C24   A    
C30   O9    A    
Cr4   O6    S    
C25   O30   A    
C38   H17   S    
Cr3   O27   S    
C15   C17   A    
Cr1   O27   S    
C6    C30   S    
C33   O26   A    
C14   H15   S    
C24   C28   S    
C3    C5    A    
C40   H18   S    
C6    C7    A    
C26   O2    A    
Cr6   O11   S    
C28   O19   A    
C21   H1    S    
C11   C13   A    
Cr5   O8    S    
C43   H9    S    
C39   H3    S    
C1    C2    S    
C16   O1    A    
C23   C25   S    
Cr1   O4    S    
C10   C11   A    
C40   H19   S    
C26   C35   S    
C34   C48   T    
C20   C21   A    
Cr2   O13   S    
C40   H20   S    
C44   H10   S    
Cr2   O27   S    
C41   H7    S    
C21   C22   A    
C42   H6    S    
C27   C49   S    
C4    O15   A    
C20   C31   S    
