data_mof_unit_54002.cif
_audit_creation_date              2012-12-10T17:48:39-0500
_audit_creation_method            fapswitch 2.2
_symmetry_space_group_name_H-M    P1
_symmetry_Int_Tables_number       1
_space_group_crystal_system       triclinic
_cell_length_a                    15.800669
_cell_length_b                    10.684961
_cell_length_c                    10.02828
_cell_angle_alpha                 91.89805
_cell_angle_beta                  88.66538
_cell_angle_gamma                 94.786373
_cell_volume                      1685.88175559

loop_
_atom_site_label
_atom_site_type_symbol
_atom_type_description
_atom_site_fract_x
_atom_site_fract_y
_atom_site_fract_z
_atom_type_partial_charge
C1    C     C_R   0.499612 0.260821 0.498046 0.976051
C2    C     C_3   0.946309 0.476958 0.623905 -0.489855
C3    C     C_3   0.919423 0.510137 0.481479 -0.223052
C4    C     C_3   0.965651 0.645289 0.441073 0.469872
C5    C     C_3   0.063897 0.640778 0.467941 0.039150
C6    C     C_1   0.827090 0.509782 0.485538 0.238914
C7    C     C_1   0.175009 0.493850 0.500774 0.186165
C8    C     C_1   0.249952 0.492851 0.503686 -0.033663
C9    C     C_R   0.641309 0.158577 0.614672 -0.124255
C10   C     C_R   0.703607 0.109385 0.686637 -0.128338
C11   C     C_R   0.701783 0.980712 0.702767 0.509270
C12   C     C_R   0.338713 0.496867 0.501366 0.954072
C13   C     C_R   0.638326 0.899578 0.641934 -0.178735
C14   C     C_R   0.573227 0.949023 0.569727 -0.036697
C15   C     C_R   0.573833 0.079940 0.559749 0.016892
C16   C     C_R   0.506845 0.129377 0.494120 -0.336485
C17   C     C_R   0.443153 0.052721 0.431704 0.570639
C18   C     C_R   0.444655 0.925095 0.434590 0.558185
C19   C     C_R   0.507711 0.873138 0.504948 -0.307690
C20   C     C_R   0.377035 0.336826 0.130662 0.589763
C21   C     C_R   0.316942 0.263654 0.056108 0.667894
C22   C     C_R   0.318698 0.267062 0.918951 -0.393147
C23   C     C_R   0.504517 0.739671 0.501883 0.984517
C24   C     C_R   0.380524 0.343661 0.854845 -0.218347
C25   C     C_R   0.440097 0.423561 0.926004 0.102226
C26   C     C_R   0.439233 0.422643 0.070027 -0.145874
C27   C     C_R   0.560395 0.569018 0.068737 0.447620
C28   C     C_R   0.557848 0.571230 0.927299 -0.127274
C29   C     C_R   0.661741 0.502375 0.498283 0.842468
C30   C     C_3   0.042314 0.462175 0.626413 -0.442825
C31   C     C_3   0.048144 0.411694 0.378241 0.413543
C32   C     C_3   0.948885 0.401606 0.383075 0.759206
C33   C     C_1   0.751382 0.506733 0.492614 0.010924
C34   C     C_3   0.084505 0.502106 0.491771 -0.171075
H1    H     H_    0.910727 0.389576 0.658202 0.249981
H2    H     H_    0.070727 0.520649 0.710595 0.223358
H3    H     H_    0.928763 0.547020 0.700271 0.288558
H4    H     H_    0.646989 0.258825 0.602781 0.165089
H5    H     H_    0.753294 0.172365 0.730858 0.192878
H6    H     H_    0.640001 0.799511 0.652602 0.174304
H7    H     H_    0.053587 0.363121 0.645871 0.280054
H8    H     H_    0.273325 0.207289 0.861436 0.230854
H9    H     H_    0.380923 0.335785 0.748893 0.246074
H10   H     H_    0.606086 0.626270 0.871382 0.209300
H11   H     H_    0.071028 0.449071 0.280836 0.178982
H12   H     H_    0.076536 0.690258 0.565525 0.156149
N1    N     N_R   0.499210 0.498800 0.142780 -0.145192
N2    N     N_R   0.499180 0.498720 0.857170 -0.126869
O1    O     O_R   0.500000 0.316780 0.614690 -0.661827
O2    O     O_R   0.499990 0.316750 0.385360 -0.527511
O3    O     O_R   0.377150 0.500020 0.614720 -0.657674
O4    O     O_R   0.377140 0.499990 0.385380 -0.525423
O5    O     O_R   0.500010 0.683250 0.614640 -0.633826
O6    O     O_R   0.500000 0.683220 0.385310 -0.537409
O7    O     O_R   0.622860 0.500010 0.614620 -0.643872
O8    O     O_R   0.622850 0.499980 0.385280 -0.533838
Zn1   Zn    Zn3+2 0.500010 0.500020 0.653130 0.970586
Zn2   Zn    Zn3+2 0.499990 0.499980 0.346870 1.139078
S1    S     S_3+6 0.942112 0.682083 0.268461 0.162929
O9    O     O_2   0.999666 0.622325 0.168409 -0.191247
O10   O     O_2   0.852734 0.633445 0.238974 -0.233889
O11   O     O_3   0.949407 0.837549 0.242342 -0.398224
H13   H     H_    0.890782 0.863458 0.252547 0.397295
F1    F     F_    0.377346 0.101202 0.372686 -0.535668
S2    S     S_3+6 0.778467 0.926060 0.804380 0.100973
O12   O     O_2   0.758024 0.963377 0.946563 -0.295358
O13   O     O_2   0.778712 0.785762 0.789640 -0.207592
O14   O     O_3   0.874207 0.995604 0.761606 -0.448585
H14   H     H_    0.909879 0.988845 0.840551 0.396895
F2    F     F_    0.382792 0.851323 0.371371 -0.564608
S3    S     S_3+6 0.656741 0.632674 0.136914 0.088135
O15   O     O_2   0.644581 0.711328 0.261404 -0.280756
O16   O     O_2   0.707218 0.523643 0.164335 -0.229416
O17   O     O_3   0.711797 0.722770 0.026506 -0.492472
H15   H     H_    0.767492 0.745300 0.067979 0.434945
F3    F     F_    0.374368 0.312388 0.259972 -0.563728
F4    F     F_    0.258312 0.184166 0.118076 -0.540262
F5    F     F_    0.080051 0.294916 0.385741 -0.544257
S4    S     S_3+6 0.905452 0.243248 0.422763 0.152048
O18   O     O_2   0.945339 0.195539 0.543689 -0.197054
O19   O     O_2   0.810992 0.238957 0.445720 -0.352100
O20   O     O_3   0.925483 0.145955 0.292586 -0.386727
H16   H     H_    0.884187 0.163129 0.224046 0.391048
F6    F     F_    0.920430 0.416700 0.255830 -0.607034
S5    S     S_3+6 0.140796 0.729568 0.361359 0.123770
O21   O     O_2   0.220080 0.760166 0.439900 -0.246477
O22   O     O_2   0.162892 0.653718 0.238478 -0.253488
O23   O     O_3   0.106801 0.866644 0.317107 -0.368055
H17   H     H_    0.154425 0.907721 0.264286 0.430870
S6    S     S_3+6 0.928036 0.775067 0.543061 0.103040
O24   O     O_2   0.973156 0.897326 0.500948 -0.137430
O25   O     O_2   0.834590 0.782089 0.523499 -0.245782
O26   O     O_3   0.946357 0.761376 0.706382 -0.527920
H18   H     H_    0.000717 0.811715 0.723600 0.374320

loop_
_geom_bond_atom_site_label_1
_geom_bond_atom_site_label_2
_ccdc_geom_bond_type
C2    H1    S    
C18   F2    S    
O26   H18   S    
C3    C6    S    
N2    Zn1   S    
S5    O21   D    
S6    O26   S    
C17   F1    S    
C15   C16   A    
C29   C33   S    
O1    Zn1   S    
C20   F3    S    
C18   C19   A    
C13   H6    S    
C16   C17   A    
S2    O13   D    
C30   H7    S    
O3    Zn1   S    
C1    O2    A    
C5    S5    S    
S1    O9    D    
C21   C22   A    
C9    C10   A    
C12   O4    A    
C23   O5    A    
C4    S6    S    
S5    O22   D    
C32   F6    S    
S1    O10   D    
O17   H15   S    
C30   C34   S    
O2    Zn2   S    
C7    C8    T    
C24   C25   A    
S4    O19   D    
O5    Zn1   S    
O14   H14   S    
C29   O7    A    
C25   C26   A    
C28   H10   S    
C10   H5    S    
C19   C23   S    
O11   H13   S    
S3    O17   S    
S6    O25   D    
C31   C32   S    
C8    C12   S    
S2    O14   S    
C5    C34   S    
C17   C18   A    
C31   C34   S    
C1    C16   S    
C20   C21   A    
C25   N2    A    
O4    Zn2   S    
C26   N1    A    
S2    O12   D    
O7    Zn1   S    
C7    C34   S    
C22   C24   A    
C3    C4    S    
C12   O3    A    
C27   S3    S    
C23   O6    A    
S3    O16   D    
O6    Zn2   S    
S5    O23   S    
C27   N1    A    
C28   N2    A    
S1    O11   S    
C14   C19   A    
C4    C5    S    
S4    O20   S    
C29   O8    A    
C5    H12   S    
C6    C33   T    
C30   H2    S    
C2    C30   S    
C2    C3    S    
C9    C15   A    
S3    O15   D    
N1    Zn2   S    
C11   C13   A    
C2    H3    S    
S6    O24   D    
C22   H8    S    
C20   C26   A    
C4    S1    S    
C9    H4    S    
O8    Zn2   S    
C3    C32   S    
C10   C11   A    
S4    O18   D    
O23   H17   S    
O20   H16   S    
C31   H11   S    
C21   F4    S    
C27   C28   A    
C24   H9    S    
C14   C15   A    
C13   C14   A    
C1    O1    A    
C31   F5    S    
C11   S2    S    
C32   S4    S    
