data_mof_unit_52761.cif
_audit_creation_date              2013-03-05T15:41:03-0500
_audit_creation_method            fapswitch 2.2
_symmetry_space_group_name_H-M    P1
_symmetry_Int_Tables_number       1
_space_group_crystal_system       triclinic
_cell_length_a                    11.165811
_cell_length_b                    11.105371
_cell_length_c                    18.787767
_cell_angle_alpha                 89.299187
_cell_angle_beta                  89.454377
_cell_angle_gamma                 60.172243
_cell_volume                      2020.89804297

loop_
_atom_site_label
_atom_site_type_symbol
_atom_site_description
_atom_site_fract_x
_atom_site_fract_y
_atom_site_fract_z
_atom_type_partial_charge
O1    O     O_R   0.507110 0.256280 0.580300 -0.458223
O2    O     O_R   0.280830 0.527190 0.577940 -0.477425
C1    C     C_R   0.233330 0.645040 0.607557 0.647018
O3    O     O_R   0.261360 0.738990 0.584270 -0.462572
O4    O     O_R   0.532590 0.694780 0.574370 -0.470981
C2    C     C_R   0.654247 0.624769 0.599017 0.622358
O5    O     O_R   0.744470 0.503750 0.577000 -0.501514
O6    O     O_R   0.698520 0.277230 0.571620 -0.489971
C3    C     C_R   0.632756 0.220020 0.598417 0.624224
O7    O     O_R   0.498530 0.256920 0.419280 -0.480849
O8    O     O_R   0.272880 0.527780 0.428680 -0.463144
C4    C     C_R   0.213780 0.654228 0.405988 0.588458
O9    O     O_R   0.252780 0.739630 0.423250 -0.467313
O10   O     O_R   0.524640 0.695370 0.425100 -0.480255
C5    C     C_R   0.618179 0.591573 0.387122 0.561887
O11   O     O_R   0.735890 0.504390 0.415980 -0.478466
O12   O     O_R   0.690560 0.277820 0.422350 -0.498049
C6    C     C_R   0.615957 0.229171 0.396485 0.601134
Cr1   Cr    Cr6+3 0.393010 0.398050 0.501480 1.170402
Cr2   Cr    Cr6+3 0.398820 0.707980 0.501630 1.164786
Cr3   Cr    Cr6+3 0.708140 0.393940 0.496850 1.143733
O13   O     O_3   0.499990 0.499990 0.499980 -0.310586
C7    C     C_3   0.592516 0.833629 0.774326 0.017299
H1    H     H_    0.638293 0.902287 0.773426 0.149429
C8    C     C_3   0.564285 0.809511 0.696091 -0.132190
H2    H     H_    0.459512 0.825005 0.694567 0.223271
C9    C     C_3   0.845508 0.631498 0.764381 0.091492
C10   C     C_3   0.638263 0.591466 0.800271 -0.132929
C11   C     C_3   0.703065 0.685172 0.809061 -0.083314
H3    H     H_    0.528285 0.652876 0.814423 0.204407
C12   C     C_3   0.669903 0.657667 0.672778 -0.079953
C13   C     C_3   0.818053 0.626928 0.683234 0.042541
C14   C     C_3   0.648211 0.552630 0.721508 0.043237
H4    H     H_    0.737057 0.446138 0.714816 0.137507
H5    H     H_    0.880263 0.517309 0.665983 0.199797
C15   C     C_2   0.688284 0.146402 0.666268 -0.018678
C16   C     C_2   0.695117 0.160929 0.825515 0.192270
C17   C     C_2   0.801301 0.145428 0.781907 0.144483
C18   C     C_2   0.774772 0.172915 0.704148 -0.085845
H6    H     H_    0.823576 0.225147 0.678165 0.180197
H7    H     H_    0.645579 0.086886 0.689551 0.165679
C19   C     C_2   0.173653 0.656750 0.679406 -0.026746
C20   C     C_2   0.193279 0.673701 0.840673 -0.022621
C21   C     C_2   0.221557 0.556633 0.806370 0.201825
C22   C     C_2   0.232980 0.546918 0.726075 -0.003802
H8    H     H_    0.302052 0.444454 0.705011 0.236779
H9    H     H_    0.100951 0.760381 0.696597 0.144259
C23   C     C_2   0.626535 0.619525 0.311041 -0.000717
C24   C     C_2   0.627674 0.646356 0.149436 -0.106824
C25   C     C_2   0.701398 0.525506 0.185237 -0.053853
C26   C     C_2   0.692554 0.511764 0.264131 -0.052055
H10   H     H_    0.529139 0.727219 0.168658 0.134413
C27   C     C_2   0.641864 0.168411 0.326960 0.212805
C28   C     C_2   0.641707 0.188378 0.165037 -0.088259
C29   C     C_2   0.546950 0.190108 0.207989 -0.059864
C30   C     C_2   0.540628 0.239964 0.278079 0.173270
H11   H     H_    0.477906 0.151934 0.193346 0.194772
H12   H     H_    0.710502 0.224333 0.183099 0.112229
C31   C     C_2   0.112449 0.695861 0.349147 0.031907
C32   C     C_2   0.116151 0.688310 0.189448 -0.109901
C33   C     C_2   0.048930 0.799653 0.231486 -0.077949
C34   C     C_2   0.091614 0.799865 0.303806 0.211213
H13   H     H_    0.975948 0.900818 0.209337 0.205715
H14   H     H_    0.191872 0.586981 0.209107 0.175141
O14   O     O_R   0.089190 0.825870 0.932320 -0.474937
O15   O     O_R   0.819070 0.053960 0.931440 -0.465691
C35   C     C_R   0.707803 0.095280 0.895726 0.571112
O16   O     O_R   0.607070 0.076440 0.916460 -0.434554
O17   O     O_R   0.647110 0.806550 0.917690 -0.461983
C36   C     C_R   0.730586 0.695065 0.885851 0.552164
O18   O     O_R   0.837080 0.593860 0.915300 -0.450248
O19   O     O_R   0.064770 0.636080 0.932550 -0.463478
C37   C     C_R   0.120105 0.707386 0.908876 0.566725
O20   O     O_R   0.068250 0.829200 0.092940 -0.497344
O21   O     O_R   0.799650 0.057040 0.080330 -0.490898
C38   C     C_R   0.674845 0.109471 0.101574 0.571255
O22   O     O_R   0.586130 0.079760 0.077080 -0.496196
O23   O     O_R   0.627700 0.809630 0.066580 -0.484232
C39   C     C_R   0.691314 0.684602 0.091540 0.556437
O24   O     O_R   0.816140 0.597180 0.075920 -0.489856
O25   O     O_R   0.045360 0.639170 0.081440 -0.479874
C40   C     C_R   0.086857 0.712430 0.114632 0.550634
Cr4   Cr    Cr6+3 0.937950 0.938450 0.008940 1.149097
Cr5   Cr    Cr6+3 0.626180 0.937030 0.994750 1.159893
Cr6   Cr    Cr6+3 0.937790 0.625760 0.001410 1.156210
O26   O     O_3   0.833980 0.833750 0.001700 -0.331751
N1    N     N_R   0.959955 0.490477 0.782484 0.069489
O27   O     O_R   0.063513 0.432652 0.738314 -0.304070
O28   O     O_R   0.945684 0.407820 0.826658 -0.215712
N2    N     N_R   0.931792 0.128417 0.806741 0.090048
O29   O     O_R   0.015451 0.134963 0.760138 -0.250867
O30   O     O_R   0.953542 0.143050 0.873008 -0.226145
N3    N     N_R   0.558068 0.239906 0.799909 0.053020
O31   O     O_R   0.507853 0.371195 0.788292 -0.334573
O32   O     O_R   0.486633 0.180543 0.785132 -0.272067
N4    N     N_R   0.261808 0.433623 0.850171 0.147650
O33   O     O_R   0.240315 0.334365 0.830758 -0.123615
O34   O     O_R   0.329049 0.416819 0.909181 -0.296392
C41   C     C_1   0.204659 0.785870 0.807727 0.280861
N5    N     N_1   0.212174 0.876727 0.781903 -0.074879
N6    N     N_R   0.457522 0.913059 0.811545 0.102768
O35   O     O_R   0.364612 0.030783 0.784288 -0.182378
O36   O     O_R   0.422223 0.866115 0.866955 -0.307379
C42   C     C_1   0.801174 0.402387 0.146289 0.253218
N7    N     N_1   0.880332 0.305004 0.115474 -0.221358
C43   C     C_1   0.782187 0.371611 0.291040 0.239085
N8    N     N_1   0.857950 0.259939 0.310496 -0.169411
C44   C     C_1   0.563677 0.765011 0.291266 0.260012
N9    N     N_1   0.513089 0.881660 0.276481 -0.187736
N10   N     N_R   0.422075 0.371390 0.292995 0.059258
O37   O     O_R   0.433523 0.482126 0.295770 -0.425673
O38   O     O_R   0.300705 0.382917 0.289141 -0.337969
N11   N     N_R   0.746071 0.024061 0.320010 0.045661
O39   O     O_R   0.744977 0.949859 0.267250 -0.382243
O40   O     O_R   0.821124 0.959280 0.375172 -0.304084
N12   N     N_R   0.118622 0.909882 0.322063 0.113577
O41   O     O_R   0.063240 0.983054 0.378976 -0.247096
O42   O     O_R   0.174048 0.954668 0.275093 -0.297113
C45   C     C_1   0.044536 0.614799 0.338439 0.285851
N13   N     N_1   0.989867 0.550768 0.329982 -0.197553
C46   C     C_1   0.549155 0.916302 0.644354 0.281348
N14   N     N_1   0.533756 0.998070 0.601417 -0.205855
C47   C     C_1   0.890821 0.733253 0.778255 0.226148
N15   N     N_1   0.916055 0.820301 0.789331 -0.362959
N16   N     N_R   0.861557 0.703694 0.634389 0.062061
O43   O     O_R   0.824333 0.833514 0.643363 -0.373198
O44   O     O_R   0.942421 0.638760 0.580993 -0.309597
C48   C     C_1   0.681952 0.476013 0.851530 0.307925
N17   N     N_1   0.712515 0.390691 0.894661 -0.182299
N18   N     N_R   0.522741 0.553332 0.701198 0.073246
O45   O     O_R   0.405134 0.662012 0.712195 -0.416427
O46   O     O_R   0.527419 0.463085 0.657398 -0.330151

loop_
_geom_bond_atom_site_label_1
_geom_bond_atom_site_label_2
_geom_bond_distance
_ccdc_geom_bond_type
C14   N18   1.451777 S    
C8    C12   1.567202 S    
N1    O27   1.301601 A    
C1    C19   1.477860 S    
C25   C42   1.462776 S    
N3    O31   1.291946 A    
C9    C11   1.622752 S    
O20   Cr4   2.078530 S    
O21   C38   1.276016 A    
C48   N17   1.155739 T    
O19   Cr6   1.954536 S    
C47   N15   1.155077 T    
O4    Cr2   1.984009 S    
C23   C44   1.450258 S    
C22   H8    1.085560 S    
N12   O41   1.301872 A    
O8    Cr1   1.951898 S    
C16   C17   1.374229 D    
C7    C11   1.622415 S    
C10   C11   1.545715 S    
C20   C41   1.445026 S    
C11   C36   1.494608 S    
O4    C2    1.271494 A    
O14   Cr4   2.093924 S    
C43   N8    1.156891 T    
C5    O11   1.301411 A    
O14   C37   1.266474 A    
C44   N9    1.157853 T    
C33   H13   1.087977 S    
N10   O37   1.299794 A    
C6    C27   1.437160 S    
O15   Cr4   1.955715 S    
O18   Cr6   2.110049 S    
C4    C31   1.457707 S    
C32   C40   1.437677 S    
C20   C37   1.461898 S    
C23   C26   1.374100 D    
C12   C13   1.527863 S    
N12   O42   1.301611 A    
O6    C3    1.282794 A    
N4    O34   1.303495 A    
C3    C15   1.470776 S    
C7    H1    1.109107 S    
C12   C14   1.583739 S    
C36   O18   1.284948 A    
C2    C12   1.471397 S    
C9    C13   1.564342 S    
N3    O32   1.296029 A    
Cr3   O13   2.017018 S    
C15   H7    1.076122 S    
O17   C36   1.272382 A    
C5    C23   1.470933 S    
O20   C40   1.269468 A    
C30   N10   1.428999 S    
C42   N7    1.157865 T    
N6    O35   1.300856 A    
C27   N11   1.444791 S    
O12   C6    1.297589 A    
C17   C18   1.490842 S    
O1    Cr1   2.068413 S    
C35   O16   1.297834 A    
O16   Cr5   2.056116 S    
C13   H5    1.110710 S    
O10   Cr2   1.957395 S    
Cr1   O13   2.013231 S    
O1    C3    1.300000 A    
C38   O22   1.280403 A    
C18   H6    1.083594 S    
C9    C47   1.476270 S    
O23   C39   1.289049 A    
O22   Cr5   2.108715 S    
C25   C26   1.495581 S    
C8    H2    1.095134 S    
Cr6   O26   2.003894 S    
O25   C40   1.287789 A    
C24   C39   1.463805 S    
C32   C33   1.343664 D    
C19   C22   1.369846 D    
C13   N16   1.479599 S    
N18   O46   1.285157 A    
C20   C21   1.346675 D    
C34   N12   1.442248 S    
O24   Cr6   2.070559 S    
C21   N4    1.453999 S    
N2    O30   1.298223 A    
C41   N5    1.154122 T    
O7    Cr1   2.101718 S    
C45   N13   1.157539 T    
C24   H10   1.079277 S    
N4    O33   1.296279 A    
C29   C30   1.422245 S    
O6    Cr3   1.938005 S    
C16   N3    1.418067 S    
C9    N1    1.485161 S    
C46   N14   1.155123 T    
C28   C38   1.421628 S    
Cr2   O13   2.004416 S    
C10   C14   1.533928 S    
C29   H11   1.087081 S    
N16   O43   1.299298 A    
C1    O3    1.299620 A    
C21   C22   1.513372 S    
N11   O39   1.300758 A    
C28   H12   1.085380 S    
C27   C30   1.364161 D    
C28   C29   1.317168 D    
C31   C34   1.351373 D    
C31   C45   1.453391 S    
O9    Cr2   2.100950 S    
O2    Cr1   1.979498 S    
C15   C18   1.351598 D    
Cr5   O26   2.017644 S    
O19   C37   1.295968 A    
O8    C4    1.287645 A    
O11   Cr3   2.057312 S    
C2    O5    1.284917 A    
C17   N2    1.453730 S    
C32   H14   1.080220 S    
C10   H3    1.099497 S    
O2    C1    1.274942 A    
O17   Cr5   1.989569 S    
O5    Cr3   2.113742 S    
O21   Cr4   1.974513 S    
N2    O29   1.301881 A    
C7    N6    1.487079 S    
O7    C6    1.260206 A    
C26   C43   1.456210 S    
C16   C35   1.472736 S    
C14   H4    1.110284 S    
O15   C35   1.282787 A    
C19   H9    1.078193 S    
C7    C8    1.560145 S    
C33   C34   1.444592 S    
N10   O38   1.298933 A    
C39   O24   1.274515 A    
O3    Cr2   2.080116 S    
O23   Cr5   1.937288 S    
Cr4   O26   2.016887 S    
C4    O9    1.270973 A    
N6    O36   1.301613 A    
C24   C25   1.349323 D    
N18   O45   1.283775 A    
N16   O44   1.301671 A    
N1    O28   1.296594 A    
O10   C5    1.317941 A    
C8    C46   1.468149 S    
O25   Cr6   1.985803 S    
C10   C48   1.471692 S    
N11   O40   1.300952 A    
O12   Cr3   1.990432 S    
