data_mof_unit_62842.cif
_audit_creation_date              2012-12-10T19:53:41-0500
_audit_creation_method            fapswitch 2.2
_symmetry_space_group_name_H-M    P1
_symmetry_Int_Tables_number       1
_space_group_crystal_system       triclinic
_cell_length_a                    18.259228
_cell_length_b                    18.259409
_cell_length_c                    47.122504
_cell_angle_alpha                 90.0
_cell_angle_beta                  90.000076
_cell_angle_gamma                 89.99996
_cell_volume                      15710.7706334

loop_
_atom_site_label
_atom_site_type_symbol
_atom_type_description
_atom_site_fract_x
_atom_site_fract_y
_atom_site_fract_z
_atom_type_partial_charge
C1    C     C_R   1.000000 0.858989 0.000000 0.918687
C2    C     C_R   0.141010 1.000000 0.000000 0.918694
C3    C     C_R   0.000000 0.141010 0.000000 0.918687
C4    C     C_R   0.858989 1.000000 1.000000 0.918694
C5    C     C_R   0.500000 0.358990 0.500000 0.918685
C6    C     C_R   0.641010 0.500000 0.500000 0.918692
C7    C     C_R   0.500000 0.641010 0.500000 0.918684
C8    C     C_R   0.358990 0.500000 0.500000 0.918692
C9    C     C_R   0.445323 0.039330 0.868908 -0.019636
C10   C     C_R   0.960221 0.445644 0.868897 -0.019769
C11   C     C_R   0.554677 0.960671 0.868908 -0.019638
C12   C     C_R   0.039777 0.554354 0.868897 -0.019769
C13   C     C_R   0.445320 0.960674 0.131091 -0.019642
C14   C     C_R   0.960509 0.554558 0.131096 -0.019681
C15   C     C_R   0.554680 0.039326 0.131091 -0.019643
C16   C     C_R   0.039494 0.445443 0.131096 -0.019681
C17   C     C_R   0.945339 0.539351 0.368908 -0.019646
C18   C     C_R   0.460439 0.945495 0.368902 -0.019686
C19   C     C_R   0.054661 0.460649 0.368908 -0.019644
C20   C     C_R   0.539560 0.054504 0.368902 -0.019685
C21   C     C_R   0.945114 0.460951 0.631084 -0.019602
C22   C     C_R   0.460466 0.054526 0.631097 -0.019687
C23   C     C_R   0.054885 0.539048 0.631085 -0.019604
C24   C     C_R   0.539537 0.945480 0.631097 -0.019687
C25   C     C_R   0.445798 0.039359 0.898842 -0.042558
C26   C     C_R   0.960208 0.446107 0.898830 -0.042428
C27   C     C_R   0.554202 0.960641 0.898842 -0.042558
C28   C     C_R   0.039791 0.553892 0.898830 -0.042429
C29   C     C_R   0.445796 0.960644 0.101158 -0.042564
C30   C     C_R   0.960485 0.554088 0.101163 -0.042537
C31   C     C_R   0.554204 0.039356 0.101158 -0.042564
C32   C     C_R   0.039516 0.445913 0.101163 -0.042535
C33   C     C_R   0.945813 0.539379 0.398841 -0.042564
C34   C     C_R   0.460417 0.945965 0.398836 -0.042530
C35   C     C_R   0.054187 0.460621 0.398841 -0.042564
C36   C     C_R   0.539583 0.054034 0.398836 -0.042531
C37   C     C_R   0.945597 0.460913 0.601151 -0.042599
C38   C     C_R   0.460442 0.054055 0.601163 -0.042543
C39   C     C_R   0.054403 0.539087 0.601151 -0.042600
C40   C     C_R   0.539561 0.945949 0.601164 -0.042537
C41   C     C_R   0.500000 0.000000 0.913526 -0.034265
C42   C     C_R   1.000000 0.499999 0.913519 -0.034640
C43   C     C_R   0.500000 1.000000 0.086473 -0.034264
C44   C     C_R   0.000000 0.500000 0.086476 -0.034391
C45   C     C_R   1.000000 0.500000 0.413526 -0.034272
C46   C     C_R   0.500000 1.000000 0.413522 -0.034420
C47   C     C_R   1.000000 0.500000 0.586469 -0.034082
C48   C     C_R   0.500000 0.000000 0.586477 -0.034409
C49   C     C_R   0.500000 0.000001 0.854139 0.132495
C50   C     C_R   0.999999 0.499999 0.854127 0.132575
C51   C     C_R   0.500000 1.000000 0.145861 0.132495
C52   C     C_R   0.000001 0.500001 0.145866 0.132518
C53   C     C_R   0.000000 0.500000 0.354138 0.132498
C54   C     C_R   0.500000 1.000000 0.354133 0.132513
C55   C     C_R   1.000000 0.499999 0.645854 0.132460
C56   C     C_R   0.500001 0.000003 0.645867 0.132511
C57   C     C_1   0.782504 1.000000 1.000000 -0.164145
C58   C     C_1   1.000000 0.782504 0.000000 -0.164126
C59   C     C_1   0.217496 0.000000 0.000000 -0.164145
C60   C     C_1   0.000000 0.217496 0.000000 -0.164126
C61   C     C_1   0.282504 0.500000 0.500000 -0.164153
C62   C     C_1   0.500000 0.282504 0.500000 -0.164130
C63   C     C_1   0.717496 0.500000 0.500000 -0.164153
C64   C     C_1   0.500000 0.717496 0.500000 -0.164130
C65   C     C_1   0.717707 1.000000 1.000000 -0.168558
C66   C     C_1   1.000000 0.717707 0.000000 -0.168567
C67   C     C_1   0.282293 0.000000 0.000000 -0.168558
C68   C     C_1   0.000000 0.282293 0.000000 -0.168566
C69   C     C_1   0.217707 0.500000 0.500000 -0.168556
C70   C     C_1   0.500000 0.217707 0.500000 -0.168565
C71   C     C_1   0.782293 0.500000 0.500000 -0.168556
C72   C     C_1   0.500000 0.782293 0.500000 -0.168563
C73   C     C_R   0.500000 0.000000 0.944582 0.945977
C74   C     C_R   1.000000 0.500000 0.944579 0.945682
C75   C     C_R   0.500000 0.000000 0.055418 0.945977
C76   C     C_R   0.000000 0.500000 0.055419 0.945887
C77   C     C_R   0.000000 0.500000 0.444582 0.945952
C78   C     C_R   0.500000 0.000000 0.444580 0.945833
C79   C     C_R   1.000000 0.500000 0.555416 0.946152
C80   C     C_R   0.500000 1.000000 0.555420 0.945847
C81   C     C_R   0.641231 1.000000 1.000000 0.934769
C82   C     C_R   1.000000 0.641231 0.000000 0.934683
C83   C     C_R   0.358769 0.000000 0.000000 0.934769
C84   C     C_R   0.000000 0.358769 0.000000 0.934683
C85   C     C_R   0.141231 0.500000 0.500000 0.934804
C86   C     C_R   0.500000 0.141231 0.500000 0.934702
C87   C     C_R   0.858769 0.500000 0.500000 0.934804
C88   C     C_R   0.500000 0.858769 0.500000 0.934702
C89   C     C_R   0.954358 0.453021 0.190430 0.604356
C90   C     C_R   0.546816 0.954190 0.190425 0.604368
C91   C     C_R   0.045644 0.546979 0.190431 0.604357
C92   C     C_R   0.453184 0.045809 0.190425 0.604369
C93   C     C_R   0.954632 0.547254 0.809562 0.604300
C94   C     C_R   0.546825 0.045802 0.809574 0.604361
C95   C     C_R   0.045365 0.452744 0.809562 0.604300
C96   C     C_R   0.453174 0.954201 0.809574 0.604363
C97   C     C_R   0.454390 0.952994 0.690431 0.604366
C98   C     C_R   0.046577 0.453937 0.690419 0.604341
C99   C     C_R   0.545611 0.047013 0.690432 0.604374
C100  C     C_R   0.953422 0.546061 0.690419 0.604340
C101  C     C_R   0.454404 0.047023 0.309568 0.604379
C102  C     C_R   0.046853 0.545772 0.309573 0.604360
C103  C     C_R   0.545596 0.952977 0.309568 0.604379
C104  C     C_R   0.953148 0.454227 0.309573 0.604360
C105  C     C_R   0.046899 0.547682 0.220139 -0.024423
C106  C     C_R   0.452488 0.047069 0.220134 -0.024426
C107  C     C_R   0.953103 0.452318 0.220139 -0.024422
C108  C     C_R   0.547512 0.952930 0.220134 -0.024426
C109  C     C_R   0.046613 0.452029 0.779853 -0.024398
C110  C     C_R   0.452477 0.952943 0.779865 -0.024428
C111  C     C_R   0.953385 0.547968 0.779853 -0.024399
C112  C     C_R   0.547523 0.047061 0.779865 -0.024428
C113  C     C_R   0.546866 0.047716 0.720140 -0.024422
C114  C     C_R   0.952730 0.547323 0.720128 -0.024398
C115  C     C_R   0.453134 0.952290 0.720140 -0.024422
C116  C     C_R   0.047268 0.452675 0.720128 -0.024399
C117  C     C_R   0.546852 0.952274 0.279859 -0.024428
C118  C     C_R   0.952448 0.452970 0.279864 -0.024424
C119  C     C_R   0.453147 0.047725 0.279859 -0.024428
C120  C     C_R   0.047553 0.547030 0.279865 -0.024424
C121  C     C_R   0.000001 0.500000 0.235051 -0.014374
C122  C     C_R   0.500000 1.000000 0.235046 -0.014378
C123  C     C_R   0.999999 0.499999 0.764941 -0.014386
C124  C     C_R   0.500000 0.000003 0.764953 -0.014376
C125  C     C_R   0.500000 0.000003 0.735052 -0.014379
C126  C     C_R   0.999999 0.499999 0.735040 -0.014415
C127  C     C_R   0.500000 1.000000 0.264947 -0.014381
C128  C     C_R   0.000001 0.500000 0.264952 -0.014376
C129  C     C_R   0.093837 0.594572 0.235211 -0.134912
C130  C     C_R   0.405771 0.094178 0.235206 -0.134906
C131  C     C_R   0.906165 0.405428 0.235210 -0.134911
C132  C     C_R   0.594228 0.905822 0.235206 -0.134906
C133  C     C_R   0.093267 0.404848 0.764782 -0.134898
C134  C     C_R   0.405748 0.905846 0.764794 -0.134901
C135  C     C_R   0.906730 0.595149 0.764782 -0.134898
C136  C     C_R   0.594251 0.094159 0.764794 -0.134901
C137  C     C_R   0.593773 0.094635 0.735212 -0.134915
C138  C     C_R   0.906254 0.594680 0.735199 -0.134878
C139  C     C_R   0.406226 0.905371 0.735211 -0.134914
C140  C     C_R   0.093744 0.405318 0.735199 -0.134879
C141  C     C_R   0.593748 0.905344 0.264788 -0.134910
C142  C     C_R   0.905689 0.405903 0.264793 -0.134906
C143  C     C_R   0.406251 0.094655 0.264788 -0.134910
C144  C     C_R   0.094313 0.594097 0.264793 -0.134906
H1    H     H_    0.130444 0.631626 0.224214 0.198861
H2    H     H_    0.368851 0.130919 0.224209 0.198862
H3    H     H_    0.869558 0.368375 0.224214 0.198861
H4    H     H_    0.631148 0.869080 0.224209 0.198862
H5    H     H_    0.129652 0.367568 0.775779 0.198858
H6    H     H_    0.368820 0.869113 0.775790 0.198869
H7    H     H_    0.870346 0.632429 0.775778 0.198858
H8    H     H_    0.631180 0.130892 0.775791 0.198869
H9    H     H_    0.630356 0.131712 0.724215 0.198855
H10   H     H_    0.869524 0.631620 0.724202 0.198849
H11   H     H_    0.369644 0.868294 0.724214 0.198855
H12   H     H_    0.130474 0.368378 0.724203 0.198849
H13   H     H_    0.630321 0.868258 0.275785 0.198862
H14   H     H_    0.868737 0.369193 0.275790 0.198864
H15   H     H_    0.369679 0.131742 0.275785 0.198862
H16   H     H_    0.131264 0.630807 0.275790 0.198864
N1    N     N_R   0.000001 0.500000 0.176305 -0.332141
N2    N     N_R   0.500000 0.000000 0.176301 -0.332162
N3    N     N_R   0.999999 0.499999 0.823687 -0.332138
N4    N     N_R   0.500000 0.000001 0.823699 -0.332161
N5    N     N_R   0.500000 0.000003 0.676307 -0.332143
N6    N     N_R   0.999999 0.499999 0.676294 -0.332186
N7    N     N_R   0.500000 1.000000 0.323693 -0.332147
N8    N     N_R   0.000000 0.500000 0.323698 -0.332151
O1    O     O_R   0.999960 0.892740 0.023680 -0.612222
O2    O     O_R   0.107260 0.999960 0.023680 -0.612223
O3    O     O_R   0.000040 0.107260 0.023680 -0.612222
O4    O     O_R   0.892740 0.000040 0.023680 -0.612222
O5    O     O_R   0.999960 0.107260 0.976320 -0.612223
O6    O     O_R   0.107260 0.000040 0.976320 -0.612223
O7    O     O_R   0.000040 0.892740 0.976320 -0.612223
O8    O     O_R   0.892740 0.999960 0.976320 -0.612223
O9    O     O_R   0.499960 0.392740 0.523680 -0.612221
O10   O     O_R   0.607260 0.499960 0.523680 -0.612221
O11   O     O_R   0.500040 0.607260 0.523680 -0.612221
O12   O     O_R   0.392740 0.500040 0.523680 -0.612221
O13   O     O_R   0.499960 0.607260 0.476320 -0.612222
O14   O     O_R   0.607260 0.500040 0.476320 -0.612222
O15   O     O_R   0.500040 0.392740 0.476320 -0.612222
O16   O     O_R   0.392740 0.499960 0.476320 -0.612222
O17   O     O_R   0.500020 0.060670 0.958090 -0.608886
O18   O     O_R   0.939330 0.500020 0.958090 -0.608781
O19   O     O_R   0.499980 0.939330 0.958090 -0.608886
O20   O     O_R   0.060670 0.499980 0.958090 -0.608781
O21   O     O_R   0.500020 0.939330 0.041910 -0.608888
O22   O     O_R   0.939330 0.499980 0.041910 -0.608842
O23   O     O_R   0.499980 0.060670 0.041910 -0.608889
O24   O     O_R   0.060670 0.500020 0.041910 -0.608843
O25   O     O_R   0.000020 0.560670 0.458090 -0.608887
O26   O     O_R   0.439330 0.000020 0.458090 -0.608828
O27   O     O_R   0.999980 0.439330 0.458090 -0.608886
O28   O     O_R   0.560670 0.999980 0.458090 -0.608828
O29   O     O_R   0.000020 0.439330 0.541910 -0.608951
O30   O     O_R   0.439330 0.999980 0.541910 -0.608833
O31   O     O_R   0.999980 0.560670 0.541910 -0.608952
O32   O     O_R   0.560670 0.000020 0.541910 -0.608835
O33   O     O_R   0.607320 0.060650 0.000010 -0.615376
O34   O     O_R   0.939350 0.607320 0.000010 -0.615374
O35   O     O_R   0.392680 0.939350 0.000010 -0.615376
O36   O     O_R   0.060650 0.392680 0.000010 -0.615375
O37   O     O_R   0.607320 0.939350 0.999990 -0.615381
O38   O     O_R   0.939350 0.392680 0.999990 -0.615381
O39   O     O_R   0.392680 0.060650 0.999990 -0.615381
O40   O     O_R   0.060650 0.607320 0.999990 -0.615381
O41   O     O_R   0.107320 0.560650 0.500010 -0.615375
O42   O     O_R   0.439350 0.107320 0.500010 -0.615374
O43   O     O_R   0.892680 0.439350 0.500010 -0.615375
O44   O     O_R   0.560650 0.892680 0.500010 -0.615375
O45   O     O_R   0.107320 0.439350 0.499990 -0.615382
O46   O     O_R   0.439350 0.892680 0.499990 -0.615380
O47   O     O_R   0.892680 0.560650 0.499990 -0.615382
O48   O     O_R   0.560650 0.107320 0.499990 -0.615380
O49   O     O_2   0.910083 0.407674 0.175698 -0.529242
O50   O     O_2   0.592006 0.909756 0.175693 -0.529218
O51   O     O_2   0.089920 0.592327 0.175699 -0.529241
O52   O     O_2   0.407993 0.090244 0.175693 -0.529217
O53   O     O_2   0.910621 0.592867 0.824294 -0.529234
O54   O     O_2   0.592023 0.090230 0.824307 -0.529196
O55   O     O_2   0.089376 0.407130 0.824294 -0.529236
O56   O     O_2   0.407976 0.909773 0.824306 -0.529196
O57   O     O_2   0.410146 0.907617 0.675699 -0.529259
O58   O     O_2   0.091534 0.409256 0.675687 -0.529191
O59   O     O_2   0.589855 0.092389 0.675700 -0.529260
O60   O     O_2   0.908465 0.590742 0.675687 -0.529191
O61   O     O_2   0.410175 0.092413 0.324300 -0.529234
O62   O     O_2   0.092078 0.590173 0.324306 -0.529220
O63   O     O_2   0.589824 0.907586 0.324300 -0.529234
O64   O     O_2   0.907923 0.409826 0.324305 -0.529219
Zn1   Zn    Zn3+2 0.000000 0.000000 0.031620 1.031537
Zn2   Zn    Zn3+2 0.000000 1.000000 0.968380 1.031519
Zn3   Zn    Zn3+2 0.500000 0.500000 0.531620 1.031556
Zn4   Zn    Zn3+2 0.500000 0.500000 0.468380 1.031532
Zn5   Zn    Zn3+2 0.500000 0.080980 0.000000 1.012538
Zn6   Zn    Zn3+2 0.919020 0.500000 0.000000 1.012505
Zn7   Zn    Zn3+2 0.500000 0.919020 0.000000 1.012538
Zn8   Zn    Zn3+2 0.080980 0.500000 0.000000 1.012504
Zn9   Zn    Zn3+2 0.000000 0.580980 0.500000 1.012561
Zn10  Zn    Zn3+2 0.419020 0.000000 0.500000 1.012525
Zn11  Zn    Zn3+2 0.000000 0.419020 0.500000 1.012561
Zn12  Zn    Zn3+2 0.580980 0.000000 0.500000 1.012522
C145  C     C_2   0.388839 0.081045 0.852853 0.932846
O65   O     O_2   0.324431 0.077700 0.859812 -0.607162
O66   O     O_R   0.409270 0.123759 0.829538 -0.791827
H17   H     H_    0.365993 0.148880 0.820218 0.357721
C146  C     C_2   0.918021 0.389518 0.852839 0.932810
O67   O     O_2   0.920827 0.325076 0.859792 -0.607127
O68   O     O_R   0.875466 0.410326 0.829529 -0.791824
H18   H     H_    0.849972 0.367266 0.820207 0.357712
C147  C     C_2   0.611160 0.918955 0.852852 0.932848
O69   O     O_2   0.675568 0.922298 0.859812 -0.607163
O70   O     O_R   0.590728 0.876244 0.829537 -0.791828
H19   H     H_    0.634005 0.851122 0.820217 0.357720
C148  C     C_2   0.081976 0.610480 0.852839 0.932806
O71   O     O_2   0.079167 0.674923 0.859791 -0.607123
O72   O     O_R   0.124532 0.589672 0.829529 -0.791823
H20   H     H_    0.150024 0.632733 0.820207 0.357711
C149  C     C_2   0.388833 0.918964 0.147147 0.932849
O73   O     O_2   0.324427 0.922313 0.140187 -0.607163
O74   O     O_R   0.409262 0.876250 0.170462 -0.791822
H21   H     H_    0.365983 0.851132 0.179782 0.357724
C150  C     C_2   0.918619 0.610910 0.147153 0.932863
O75   O     O_2   0.921764 0.675327 0.140194 -0.607159
O76   O     O_R   0.875968 0.590343 0.170467 -0.791840
H22   H     H_    0.850713 0.633540 0.179788 0.357726
C151  C     C_2   0.611166 0.081036 0.147147 0.932849
O77   O     O_2   0.675573 0.077689 0.140187 -0.607164
O78   O     O_R   0.590738 0.123749 0.170463 -0.791823
H23   H     H_    0.634017 0.148868 0.179783 0.357725
C152  C     C_2   0.081387 0.389094 0.147153 0.932864
O79   O     O_2   0.078241 0.324677 0.140195 -0.607160
O80   O     O_R   0.124040 0.409663 0.170466 -0.791838
H24   H     H_    0.149299 0.366468 0.179786 0.357726
C153  C     C_2   0.888874 0.581090 0.352851 0.932863
O81   O     O_2   0.824466 0.577774 0.359811 -0.607159
O82   O     O_R   0.909326 0.623793 0.329536 -0.791835
H25   H     H_    0.866060 0.648933 0.320216 0.357724
C154  C     C_2   0.418478 0.889200 0.352845 0.932863
O83   O     O_2   0.421538 0.824782 0.359803 -0.607179
O84   O     O_R   0.375854 0.909822 0.329531 -0.791846
H26   H     H_    0.350540 0.866661 0.320211 0.357731
C155  C     C_2   0.111126 0.418909 0.352852 0.932861
O85   O     O_2   0.175535 0.422227 0.359811 -0.607158
O86   O     O_R   0.090674 0.376204 0.329537 -0.791833
H27   H     H_    0.133940 0.351065 0.320217 0.357723
C156  C     C_2   0.581522 0.110799 0.352845 0.932860
O87   O     O_2   0.578460 0.175217 0.359803 -0.607177
O88   O     O_R   0.624147 0.090176 0.329532 -0.791845
H28   H     H_    0.649461 0.133337 0.320212 0.357731
C157  C     C_2   0.888401 0.419538 0.647139 0.932831
O89   O     O_2   0.824010 0.423224 0.640176 -0.607139
O90   O     O_R   0.908598 0.376719 0.670457 -0.791787
H29   H     H_    0.865181 0.351831 0.679776 0.357717
C158  C     C_2   0.418534 0.110844 0.647154 0.932878
O91   O     O_2   0.421630 0.175260 0.640195 -0.607166
O92   O     O_R   0.375900 0.090245 0.670468 -0.791846
H30   H     H_    0.350613 0.133421 0.679788 0.357735
C159  C     C_2   0.111599 0.580461 0.647139 0.932833
O93   O     O_2   0.175990 0.576777 0.640175 -0.607141
O94   O     O_R   0.091402 0.623276 0.670458 -0.791790
H31   H     H_    0.134820 0.648163 0.679778 0.357718
C160  C     C_2   0.581475 0.889168 0.647155 0.932874
O95   O     O_2   0.578382 0.824750 0.640198 -0.607166
O96   O     O_R   0.624112 0.909772 0.670467 -0.791842
H32   H     H_    0.649405 0.866600 0.679788 0.357734
N9    N     N_3   0.391988 0.079368 0.914797 -0.435382
H33   H     H_    0.391587 0.133807 0.907923 0.217191
H34   H     H_    0.340538 0.056018 0.911319 0.237231
N10   N     N_3   0.919790 0.392591 0.914781 -0.434969
H35   H     H_    0.865341 0.392621 0.907913 0.217163
H36   H     H_    0.942740 0.340962 0.911293 0.237210
N11   N     N_3   0.608011 0.920631 0.914797 -0.435382
H37   H     H_    0.608412 0.866193 0.907922 0.217193
H38   H     H_    0.659462 0.943981 0.911319 0.237232
N12   N     N_3   0.080209 0.607408 0.914781 -0.434969
H39   H     H_    0.134658 0.607377 0.907912 0.217161
H40   H     H_    0.057260 0.659037 0.911293 0.237209
N13   N     N_3   0.391984 0.920638 0.085203 -0.435383
H41   H     H_    0.391580 0.866200 0.092077 0.217201
H42   H     H_    0.340535 0.943992 0.088681 0.237229
N14   N     N_3   0.920330 0.607790 0.085209 -0.435239
H43   H     H_    0.865890 0.608037 0.092081 0.217196
H44   H     H_    0.943537 0.659301 0.088690 0.237223
N15   N     N_3   0.608016 0.079361 0.085203 -0.435383
H45   H     H_    0.608421 0.133799 0.092077 0.217202
H46   H     H_    0.659465 0.056008 0.088681 0.237230
N16   N     N_3   0.079675 0.392213 0.085209 -0.435238
H47   H     H_    0.134117 0.391974 0.092080 0.217191
H48   H     H_    0.056476 0.340699 0.088692 0.237226
N17   N     N_3   0.892016 0.579405 0.414796 -0.435364
H49   H     H_    0.891635 0.633844 0.407922 0.217199
H50   H     H_    0.840559 0.556073 0.411317 0.237230
N18   N     N_3   0.420191 0.892317 0.414789 -0.435183
H51   H     H_    0.365752 0.892147 0.407917 0.217192
H52   H     H_    0.443326 0.840776 0.411306 0.237224
N19   N     N_3   0.107985 0.420596 0.414796 -0.435365
H53   H     H_    0.108367 0.366158 0.407922 0.217199
H54   H     H_    0.159441 0.443929 0.411317 0.237229
N20   N     N_3   0.579808 0.107682 0.414789 -0.435183
H55   H     H_    0.634247 0.107853 0.407917 0.217191
H56   H     H_    0.556674 0.159223 0.411306 0.237223
N21   N     N_3   0.891595 0.421164 0.585193 -0.435618
H57   H     H_    0.890918 0.366728 0.592071 0.217214
H58   H     H_    0.840257 0.444774 0.588665 0.237238
N22   N     N_3   0.420244 0.107723 0.585210 -0.435202
H59   H     H_    0.365806 0.107925 0.592083 0.217202
H60   H     H_    0.443408 0.159251 0.588691 0.237220
N23   N     N_3   0.108405 0.578834 0.585193 -0.435617
H61   H     H_    0.109085 0.633270 0.592071 0.217217
H62   H     H_    0.159743 0.555223 0.588665 0.237238
N24   N     N_3   0.579769 0.892287 0.585211 -0.435199
H63   H     H_    0.634210 0.892102 0.592082 0.217192
H64   H     H_    0.556621 0.840751 0.588695 0.237226

loop_
_geom_bond_atom_site_label_1
_geom_bond_atom_site_label_2
_ccdc_geom_bond_type
O23   Zn5   S    
C94   N4    A    
C130  H2    S    
C119  C143  A    
O88   H28   S    
C120  C144  A    
C54   N7    S    
O9    Zn3   S    
N17   H49   S    
O30   Zn10  S    
C39   N23   S    
C29   N13   S    
C39   C47   A    
C112  C124  A    
O78   H23   S    
C22   C38   A    
C33   C45   A    
C62   C70   T    
C106  C130  A    
C77   O25   A    
C49   N4    S    
C13   C51   A    
C14   C52   A    
N14   H43   S    
C15   C51   A    
C144  H16   S    
C129  H1    S    
O14   Zn4   S    
O15   Zn4   S    
C84   O36   A    
C145  O65   D    
C103  C117  A    
C142  H14   S    
O6    Zn2   S    
C136  H8    S    
C43   C75   S    
O47   Zn9   S    
N16   H47   S    
C109  C133  A    
C86   O42   A    
O74   H21   S    
O42   Zn10  S    
C121  C128  A    
C20   C54   A    
C95   C109  A    
C38   N22   S    
C25   C41   A    
C82   O34   A    
C2    C59   S    
C123  C126  A    
C22   C56   A    
C159  O93   D    
C132  H4    S    
C6    C63   S    
C11   C49   A    
C95   N3    A    
C66   C82   S    
C8    O12   A    
O94   H31   S    
C11   C27   A    
C120  C128  A    
C10   C26   A    
C100  C114  A    
O38   Zn6   S    
C140  H12   S    
C141  H13   S    
C63   C71   T    
C151  O78   S    
C113  C137  A    
C22   C158  S    
O21   Zn7   S    
O25   Zn9   S    
O5    Zn2   S    
C147  O70   S    
C40   C48   A    
C102  N8    A    
C34   N18   S    
C92   C106  A    
N18   H51   S    
C85   O41   A    
C23   C55   A    
C24   C56   A    
C101  N7    A    
O46   Zn10  S    
C77   O27   A    
C155  O86   S    
C19   C35   A    
N22   H59   S    
C30   N14   S    
C76   O22   A    
C84   O38   A    
N13   H41   S    
C88   O44   A    
C102  O62   S    
C55   N6    S    
C99   N5    A    
C19   C155  S    
C103  N7    A    
C91   C105  A    
N23   H61   S    
C82   O40   A    
C8    O16   A    
C129  C144  A    
C146  O67   D    
O1    Zn1   S    
C90   N2    A    
C147  O69   D    
C114  C126  A    
C97   N5    A    
O24   Zn8   S    
C93   N3    A    
N10   H35   S    
C51   N2    S    
C148  O71   D    
C122  C127  A    
C44   C76   S    
C83   O39   A    
C59   C67   T    
O17   Zn5   S    
C160  O96   S    
C56   N5    S    
C131  H3    S    
C34   C46   A    
C37   C47   A    
O32   Zn12  S    
O35   Zn7   S    
C37   N21   S    
C27   N11   S    
C153  O81   D    
C158  O92   S    
C112  C136  A    
C73   O17   A    
C86   O48   A    
N9    H34   S    
C103  O63   S    
O2    Zn1   S    
C7    O13   A    
C7    O11   A    
C9    C49   A    
O41   Zn9   S    
C134  C139  A    
N15   H46   S    
C109  C123  A    
C95   O55   S    
C96   N4    A    
C75   O23   A    
C157  O89   D    
C76   O24   A    
C53   N8    S    
C139  H11   S    
C106  C122  A    
C156  O87   D    
C78   O28   A    
C150  O76   S    
C98   N6    A    
C25   N9    S    
C110  C134  A    
C97   C115  A    
C12   C148  S    
C69   C85   S    
C26   C42   A    
O3    Zn1   S    
C132  C141  A    
O27   Zn11  S    
C1    O7    A    
C4    O4    A    
C87   O43   A    
C136  C137  A    
O34   Zn6   S    
C12   C50   A    
O76   H22   S    
C15   C31   A    
C16   C32   A    
C52   N1    S    
O20   Zn8   S    
C90   C108  A    
O13   Zn4   S    
C138  H10   S    
C18   C154  S    
C94   C112  A    
C152  O80   S    
C114  C138  A    
C108  C132  A    
C41   C73   S    
N14   H44   S    
N24   H63   S    
O84   H26   S    
C94   O54   S    
C45   C77   S    
C36   N20   S    
C17   C153  S    
O70   H19   S    
C119  C127  A    
O48   Zn12  S    
N11   H38   S    
C97   O57   S    
O80   H24   S    
O22   Zn6   S    
O36   Zn8   S    
C9    C25   A    
O68   H18   S    
O4    Zn1   S    
C67   C83   S    
N16   H48   S    
C12   C28   A    
C13   C29   A    
C75   O21   A    
N20   H56   S    
C78   O26   A    
C100  O60   S    
O16   Zn4   S    
C110  C124  A    
C26   N10   S    
O82   H25   S    
N21   H58   S    
C9    C145  S    
C104  C118  A    
C14   C150  S    
C3    C60   S    
N17   H50   S    
N11   H37   S    
C151  O77   D    
C29   C43   A    
C30   C44   A    
C17   C33   A    
C89   N1    A    
C73   O19   A    
C74   O20   A    
C159  O94   S    
C42   C74   S    
C79   O31   A    
C111  C123  A    
O96   H32   S    
C68   C84   S    
O43   Zn11  S    
C83   O35   A    
C108  C122  A    
O90   H29   S    
C46   C78   S    
C81   O33   A    
C96   C110  A    
C117  C141  A    
O92   H30   S    
C155  O85   D    
C65   C81   S    
N19   H53   S    
C80   O30   A    
C89   C107  A    
N22   H60   S    
C117  C127  A    
C31   C43   A    
C93   C111  A    
C71   C87   S    
N18   H52   S    
C6    O14   A    
C145  O66   S    
C40   N24   S    
C154  O84   S    
C107  C121  A    
C10   C50   A    
C17   C53   A    
C102  C120  A    
O31   Zn9   S    
C21   C55   A    
C92   N2    A    
O29   Zn11  S    
C50   N3    S    
N20   H55   S    
C16   C52   A    
C57   C65   T    
C99   C113  A    
O19   Zn7   S    
N23   H62   S    
C143  H15   S    
N15   H45   S    
C111  C135  A    
C149  O73   D    
C135  H7    S    
C11   C147  S    
N10   H36   S    
O39   Zn5   S    
C20   C36   A    
C21   C37   A    
C60   C68   T    
C133  C140  A    
C157  O90   S    
C160  O95   D    
C4    O8    A    
C87   O47   A    
C91   N1    A    
C101  O61   S    
C5    O15   A    
C74   O18   A    
C134  H6    S    
C135  C138  A    
C79   O29   A    
C92   O52   S    
C158  O91   D    
C47   C79   S    
O40   Zn8   S    
N9    H33   S    
C88   O46   A    
O28   Zn12  S    
C23   C159  S    
C20   C156  S    
O10   Zn3   S    
C104  O64   S    
C113  C125  A    
C80   O32   A    
C24   C160  S    
C100  N6    A    
C1    O1    A    
O37   Zn7   S    
C24   C40   A    
O18   Zn6   S    
C58   C66   T    
O8    Zn2   S    
O86   H27   S    
O12   Zn3   S    
N13   H42   S    
C4    C57   S    
N12   H40   S    
C150  O75   D    
C8    C61   S    
C19   C53   A    
C116  C126  A    
C33   N17   S    
C118  C128  A    
C14   C30   A    
C72   C88   S    
C3    O5    A    
C146  O68   S    
C90   O50   S    
C137  H9    S    
C101  C119  A    
O45   Zn11  S    
C133  H5    S    
O11   Zn3   S    
C149  O74   S    
C105  C129  A    
C96   O56   S    
C154  O83   D    
C148  O72   S    
C28   N12   S    
N12   H39   S    
C85   O45   A    
C104  N8    A    
C27   C41   A    
C98   C116  A    
O7    Zn2   S    
C152  O79   D    
C32   C44   A    
C105  C121  A    
C36   C46   A    
C130  C143  A    
C18   C34   A    
C5    O9    A    
C131  C142  A    
N19   H54   S    
C2    O2    A    
N24   H64   S    
C153  O82   S    
C21   C157  S    
C32   N16   S    
O72   H20   S    
C70   C86   S    
C81   O37   A    
C61   C69   T    
O26   Zn10  S    
C38   C48   A    
C115  C139  A    
C16   C152  S    
C118  C142  A    
O66   H17   S    
O33   Zn5   S    
C115  C125  A    
C10   C146  S    
C48   C80   S    
C107  C131  A    
C31   N15   S    
O44   Zn12  S    
C1    C58   S    
C2    O6    A    
C3    O3    A    
C23   C39   A    
C28   C42   A    
C156  O88   S    
C5    C62   S    
C64   C72   T    
C91   O51   S    
C99   O59   S    
C7    C64   S    
C18   C54   A    
C89   O49   S    
C35   N19   S    
C93   O53   S    
C98   O58   S    
N21   H57   S    
C15   C151  S    
C13   C149  S    
C6    O10   A    
C124  C125  A    
C116  C140  A    
C35   C45   A    
