data_mof_unit_13660.cif
_audit_creation_date              2012-12-10T17:16:37-0500
_audit_creation_method            fapswitch 2.2
_symmetry_space_group_name_H-M    P1
_symmetry_Int_Tables_number       1
_space_group_crystal_system       triclinic
_cell_length_a                    10.205726
_cell_length_b                    10.703191
_cell_length_c                    10.873953
_cell_angle_alpha                 90.529226
_cell_angle_beta                  95.050758
_cell_angle_gamma                 81.610012
_cell_volume                      1170.5209088

loop_
_atom_site_label
_atom_site_type_symbol
_atom_type_description
_atom_site_fract_x
_atom_site_fract_y
_atom_site_fract_z
_atom_type_partial_charge
C1    C     C_R   0.444329 0.508202 0.268057 0.903227
C2    C     C_R   0.555671 0.491798 0.731943 0.903227
C3    C     C_2   0.412892 0.512932 0.136736 -0.275144
C4    C     C_2   0.587108 0.487068 0.863264 -0.275144
C5    C     C_2   0.513261 0.497707 0.065428 -0.037798
C6    C     C_2   0.486739 0.502292 0.934572 -0.037798
C7    C     C_2   0.072484 0.490248 0.489165 0.342533
C8    C     C_2   0.927516 0.509752 0.510835 0.342533
C9    C     C_R   0.499525 0.261002 0.500381 0.861202
C10   C     C_R   0.500475 0.738998 0.499619 0.861202
C11   C     C_R   0.571507 0.118382 0.287686 -0.217269
C12   C     C_R   0.428492 0.881617 0.712314 -0.217282
C13   C     C_R   0.614694 0.047465 0.187315 -0.134314
C14   C     C_R   0.385306 0.952535 0.812685 -0.134322
C15   C     C_R   0.616342 0.917523 0.186681 0.515619
C16   C     C_R   0.383658 0.082477 0.813319 0.515622
C17   C     C_R   0.575221 0.858854 0.287758 -0.236223
C18   C     C_R   0.424779 0.141146 0.712242 -0.236224
C19   C     C_R   0.538666 0.928711 0.394430 0.006187
C20   C     C_R   0.461334 0.071289 0.605570 0.006187
C21   C     C_R   0.536766 0.059522 0.394336 0.068537
C22   C     C_R   0.463234 0.940478 0.605664 0.068537
C23   C     C_R   0.501622 0.871377 0.500099 -0.102311
C24   C     C_R   0.498378 0.128623 0.499901 -0.102312
H1    H     H_    0.566043 0.219542 0.279706 0.184734
H2    H     H_    0.433957 0.780458 0.720294 0.184736
H3    H     H_    0.645439 0.094596 0.109512 0.225553
H4    H     H_    0.354561 0.905404 0.890488 0.225556
H5    H     H_    0.572642 0.758515 0.280915 0.177716
H6    H     H_    0.427358 0.241485 0.719085 0.177716
H7    H     H_    0.383279 0.518042 0.896839 0.196905
H8    H     H_    0.616721 0.481957 0.103161 0.196904
H9    H     H_    0.690278 0.471499 0.901581 0.191430
H10   H     H_    0.309722 0.528501 0.098419 0.191430
H11   H     H_    0.876076 0.385210 0.382959 0.197023
H12   H     H_    0.123924 0.614790 0.617041 0.197024
N1    N     N_2   0.157300 0.551390 0.551120 -0.202690
N2    N     N_2   0.842700 0.448610 0.448880 -0.202690
O1    O     O_R   0.568940 0.489660 0.307530 -0.638376
O2    O     O_R   0.431060 0.510340 0.692470 -0.638376
O3    O     O_R   0.348880 0.522640 0.340350 -0.545818
O4    O     O_R   0.651120 0.477360 0.659650 -0.545818
O5    O     O_R   0.610030 0.300280 0.483580 -0.621564
O6    O     O_R   0.389970 0.699720 0.516420 -0.621563
O7    O     O_R   0.389970 0.333270 0.516400 -0.562764
O8    O     O_R   0.610030 0.666730 0.483600 -0.562765
Zn1   Zn    Zn3+2 0.646940 0.477980 0.478080 1.032391
Zn2   Zn    Zn3+2 0.353060 0.522020 0.521920 1.032392
S1    S     S_3+6 0.332041 0.172525 0.941118 0.016527
O9    O     O_2   0.445411 0.236421 0.994564 -0.365692
O10   O     O_2   0.216842 0.271263 0.899282 -0.268611
O11   O     O_3   0.286514 0.080114 0.049326 -0.541152
H13   H     H_    0.280589 0.133410 0.124175 0.400346
S2    S     S_3+6 0.667959 0.827475 0.058882 0.016531
O12   O     O_2   0.783158 0.728737 0.100717 -0.268602
O13   O     O_2   0.554589 0.763578 0.005437 -0.365697
O14   O     O_3   0.713485 0.919887 0.950673 -0.541149
H14   H     H_    0.719388 0.866598 0.875818 0.400341
Cl1   Cl    Cl    0.870641 0.618746 0.623914 -0.570198
Cl2   Cl    Cl    0.129359 0.381254 0.376086 -0.570202

loop_
_geom_bond_atom_site_label_1
_geom_bond_atom_site_label_2
_ccdc_geom_bond_type
C10   O8    A    
C19   C23   A    
C9    C24   S    
C9    O7    A    
C19   C21   A    
C18   H6    S    
C12   C22   A    
C10   C23   S    
C17   H5    S    
S2    O12   D    
C2    C4    S    
C20   C22   A    
S1    O11   S    
C14   H4    S    
C5    H8    S    
C6    H7    S    
N2    Zn1   S    
C7    C8    S    
C16   C18   A    
O11   H13   S    
N1    Zn2   S    
C11   C13   A    
O14   H14   S    
C8    N2    D    
C2    O4    A    
C4    C6    D    
H12   N1    S    
C17   C19   A    
O3    Zn2   S    
C12   C14   A    
C18   C20   A    
O4    Zn1   S    
C13   C15   A    
C8    Cl1   S    
C7    N1    D    
C5    C6    S    
C20   C24   A    
C14   C16   A    
C9    O5    A    
C1    O1    A    
C10   O6    A    
C15   S2    S    
C2    O2    A    
C7    Cl2   S    
H11   N2    S    
C16   S1    S    
O1    Zn1   S    
S1    O9    D    
C21   C24   A    
C1    O3    A    
C1    C3    S    
C15   C17   A    
C4    H9    S    
C11   H1    S    
C22   C23   A    
C13   H3    S    
O7    Zn2   S    
C3    H10   S    
C3    C5    D    
O8    Zn1   S    
O5    Zn1   S    
O2    Zn2   S    
C11   C21   A    
O6    Zn2   S    
C12   H2    S    
S2    O13   D    
S1    O10   D    
S2    O14   S    
