data_mof_unit_57495.cif
_audit_creation_date              2012-12-11T14:49:47-0500
_audit_creation_method            fapswitch 2.2
_symmetry_space_group_name_H-M    P1
_symmetry_Int_Tables_number       1
_space_group_crystal_system       triclinic
_cell_length_a                    11.233218
_cell_length_b                    11.245552
_cell_length_c                    19.021909
_cell_angle_alpha                 90.031287
_cell_angle_beta                  90.1899
_cell_angle_gamma                 119.988772
_cell_volume                      2081.20582212

loop_
_atom_site_label
_atom_site_type_symbol
_atom_type_description
_atom_site_fract_x
_atom_site_fract_y
_atom_site_fract_z
_atom_type_partial_charge
C1    C     C_R   0.531912 0.462792 0.645337 0.540416
C2    C     C_R   0.460381 0.529200 0.355067 0.563048
C3    C     C_R   0.468071 0.931246 0.145279 0.540982
C4    C     C_R   0.069633 0.540152 0.355314 0.550688
C5    C     C_R   0.431173 0.060357 0.528319 -0.062419
C6    C     C_R   0.553960 0.613330 0.955472 -0.085352
C7    C     C_R   0.944970 0.370227 0.529934 -0.057343
C8    C     C_R   0.387092 0.946314 0.955489 -0.069682
C9    C     C_R   0.632300 0.561681 0.528261 -0.087081
C10   C     C_R   0.054842 0.441737 0.955906 -0.075815
C11   C     C_R   0.062000 0.431266 0.028909 -0.065943
C12   C     C_R   0.932559 0.471295 0.854544 0.561129
C13   C     C_R   0.613413 0.551646 0.455183 -0.082264
C14   C     C_R   0.369737 0.939104 0.028431 -0.063697
C15   C     C_R   0.951190 0.387619 0.456895 -0.070182
C16   C     C_R   0.564891 0.631459 0.028596 -0.082418
C17   C     C_R   0.442007 0.054193 0.455435 -0.074820
C18   C     C_R   0.496451 0.977230 0.427941 0.013717
C19   C     C_R   0.497564 0.515853 0.073563 -0.014398
C20   C     C_R   0.025889 0.519483 0.429429 -0.000147
C21   C     C_R   0.484871 0.982677 0.073486 -0.018183
C22   C     C_R   0.481731 0.503142 0.428422 -0.001574
C23   C     C_R   0.536663 0.068152 0.645227 0.543785
C24   C     C_R   0.014176 0.499322 0.073841 -0.018433
C25   C     C_R   0.976189 0.494478 0.928345 0.007011
C26   C     C_R   0.516627 0.496897 0.573494 -0.030044
C27   C     C_R   0.518958 0.022409 0.928396 -0.001193
C28   C     C_R   0.988262 0.485565 0.574855 -0.011569
C29   C     C_R   0.503281 0.481622 0.928403 0.006279
C30   C     C_R   0.502116 0.016047 0.573173 -0.010802
C31   C     C_R   0.560495 0.924536 0.472929 0.118254
C32   C     C_R   0.436279 0.382678 0.046050 0.146649
C33   C     C_R   0.075063 0.635255 0.475273 0.122193
C34   C     C_R   0.529212 0.460388 0.855041 0.567900
C35   C     C_R   0.618143 0.052013 0.046105 0.152057
C36   C     C_R   0.366582 0.439205 0.474515 0.137875
C37   C     C_R   0.937886 0.556077 0.045843 0.123436
C38   C     C_R   0.920119 0.554275 0.973568 0.135192
C39   C     C_R   0.383609 0.439688 0.546094 0.148854
C40   C     C_R   0.634953 0.070413 0.974192 0.122507
C41   C     C_R   0.058836 0.618707 0.547448 0.153802
C42   C     C_R   0.437364 0.365901 0.974088 0.119166
C43   C     C_R   0.564999 0.945390 0.545313 0.122777
C44   C     C_1   0.325942 0.083526 0.556281 0.210904
C45   C     C_R   0.932719 0.468514 0.645744 0.535717
C46   C     C_1   0.595908 0.726684 0.907293 0.192768
C47   C     C_1   0.915682 0.239542 0.558362 0.242827
C48   C     C_1   0.272893 0.873915 0.907364 0.189245
C49   C     C_1   0.763965 0.662866 0.556017 0.209212
C50   C     C_1   0.131268 0.405207 0.908059 0.186919
C51   C     C_1   0.093557 0.331258 0.056972 0.215707
C52   C     C_1   0.725730 0.589959 0.406759 0.195090
C53   C     C_1   0.241990 0.917779 0.056347 0.209605
C54   C     C_1   0.877386 0.273574 0.408994 0.186765
C55   C     C_1   0.666838 0.762238 0.056923 0.231437
C56   C     C_R   0.539648 0.068415 0.854869 0.549219
C57   C     C_1   0.401646 0.127907 0.407651 0.186840
C58   C     C_3   0.756841 0.906659 0.432565 -0.236654
C59   C     C_3   0.449376 0.237428 0.139495 -0.280360
C60   C     C_3   0.086786 0.846273 0.431174 -0.238139
C61   C     C_3   0.759700 0.213044 0.138390 -0.285142
C62   C     C_3   0.153271 0.238410 0.434698 -0.215441
C63   C     C_3   0.774399 0.529683 0.138697 -0.310548
C64   C     C_3   0.909607 0.755833 0.937578 -0.218374
C65   C     C_3   0.250887 0.475305 0.638518 -0.301277
C66   C     C_3   0.849866 0.088746 0.931511 -0.238623
C67   C     C_R   0.462803 0.531953 0.145284 0.541928
C68   C     C_3   0.213350 0.762963 0.642921 -0.278071
C69   C     C_3   0.239913 0.152417 0.930168 -0.235933
C70   C     C_3   0.554194 0.789059 0.637647 -0.287525
C71   C     C_R   0.471568 0.932500 0.354467 0.565057
C72   C     C_R   0.067190 0.535999 0.145552 0.538701
Cr1   Cr    Cr6+3 0.776430 0.541680 0.750000 1.058881
Cr2   Cr    Cr6+3 0.765250 0.223570 0.750000 1.044588
Cr3   Cr    Cr6+3 0.458320 0.234750 0.750000 1.032630
Cr4   Cr    Cr6+3 0.541680 0.776430 0.250000 1.056887
Cr5   Cr    Cr6+3 0.223570 0.765250 0.250000 1.032637
Cr6   Cr    Cr6+3 0.234750 0.458320 0.250000 1.046722
H1    H     H_    0.573714 0.751250 0.474886 0.238522
H2    H     H_    0.085351 0.856868 0.373294 0.190102
H3    H     H_    0.141919 0.950122 0.454034 0.128654
H4    H     H_    0.981212 0.796662 0.452074 0.169370
H5    H     H_    0.826297 0.118452 0.068691 0.297009
H6    H     H_    0.855485 0.245734 0.168938 0.174088
H7    H     H_    0.674728 0.180444 0.176511 0.155356
H8    H     H_    0.769503 0.299208 0.106930 0.124171
H9    H     H_    0.211499 0.450424 0.424399 0.271408
H10   H     H_    0.140707 0.221989 0.377032 0.178653
H11   H     H_    0.050541 0.191785 0.458502 0.136608
H12   H     H_    0.775655 0.910390 0.375226 0.197155
H13   H     H_    0.203573 0.184134 0.457095 0.170549
H14   H     H_    0.939111 0.713760 0.106580 0.321289
H15   H     H_    0.816466 0.489023 0.178774 0.160288
H16   H     H_    0.689672 0.446001 0.109451 0.133613
H17   H     H_    0.735239 0.589708 0.166539 0.173544
H18   H     H_    0.749216 0.570735 0.974308 0.256496
H19   H     H_    0.911441 0.780562 0.881025 0.183201
H20   H     H_    0.015705 0.805910 0.958373 0.169779
H21   H     H_    0.856548 0.801117 0.966060 0.123094
H22   H     H_    0.222551 0.286653 0.606952 0.317465
H23   H     H_    0.801824 0.849197 0.457145 0.104932
H24   H     H_    0.151542 0.418763 0.666488 0.166853
H25   H     H_    0.252893 0.559686 0.608629 0.139363
H26   H     H_    0.333588 0.514875 0.678696 0.154021
H27   H     H_    0.788229 0.240972 0.925859 0.274683
H28   H     H_    0.953440 0.146873 0.954674 0.123902
H29   H     H_    0.860627 0.086919 0.873666 0.190870
H30   H     H_    0.803176 0.983680 0.952968 0.166892
H31   H     H_    0.121113 0.825661 0.569015 0.303154
H32   H     H_    0.238721 0.856692 0.673635 0.178471
H33   H     H_    0.305729 0.778696 0.615019 0.113053
H34   H     H_    0.812258 0.011484 0.454919 0.160973
H35   H     H_    0.179367 0.677349 0.680764 0.156068
H36   H     H_    0.453771 0.211506 0.926157 0.273809
H37   H     H_    0.227570 0.142396 0.872259 0.191499
H38   H     H_    0.182484 0.199918 0.951853 0.166364
H39   H     H_    0.192730 0.048464 0.952560 0.129121
H40   H     H_    0.712671 0.886446 0.567042 0.282048
H41   H     H_    0.500395 0.819656 0.675988 0.160592
H42   H     H_    0.620721 0.760383 0.667864 0.178011
H43   H     H_    0.479310 0.700858 0.606628 0.113275
H44   H     H_    0.291725 0.175959 0.067318 0.303822
H45   H     H_    0.382337 0.142363 0.169345 0.177787
H46   H     H_    0.500880 0.321558 0.178388 0.157386
H47   H     H_    0.525929 0.223818 0.110043 0.114287
H48   H     H_    0.242363 0.789326 0.425793 0.275480
N1    N     N_1   0.236977 0.094062 0.579522 -0.328669
N2    N     N_1   0.818950 0.185876 0.368797 -0.307915
N3    N     N_1   0.752247 0.863956 0.080736 -0.273023
N4    N     N_1   0.372322 0.186191 0.367483 -0.307718
N5    N     N_2   0.610129 0.839523 0.446173 -0.477116
N6    N     N_2   0.367378 0.263931 0.090383 -0.447477
N7    N     N_2   0.155489 0.771102 0.450902 -0.516718
N8    N     N_2   0.736783 0.103548 0.091065 -0.448281
N9    N     N_2   0.229933 0.383549 0.451100 -0.479993
N10   N     N_2   0.876991 0.616080 0.088748 -0.510537
N11   N     N_2   0.838783 0.608001 0.946813 -0.462620
N12   N     N_1   0.626630 0.813844 0.866836 -0.304553
N13   N     N_2   0.263233 0.385078 0.589303 -0.474825
N14   N     N_2   0.770873 0.153736 0.950360 -0.515328
N15   N     N_2   0.107562 0.737372 0.592048 -0.449757
N16   N     N_2   0.383917 0.229949 0.949855 -0.514041
N17   N     N_2   0.636732 0.898684 0.589805 -0.463365
N18   N     N_1   0.898110 0.137555 0.582166 -0.275921
N19   N     N_1   0.184944 0.816742 0.867045 -0.309790
N20   N     N_1   0.866456 0.748031 0.579296 -0.278081
N21   N     N_1   0.191680 0.379023 0.867809 -0.305606
N22   N     N_1   0.112093 0.247253 0.080508 -0.279312
N23   N     N_1   0.812080 0.617833 0.366171 -0.304889
N24   N     N_1   0.143131 0.908916 0.079491 -0.332700
O1    O     O_R   0.916700 0.566820 0.669930 -0.458798
O2    O     O_R   0.566820 0.916700 0.330070 -0.471236
O3    O     O_R   0.083300 0.650120 0.169930 -0.495073
O4    O     O_R   0.349880 0.433180 0.330070 -0.503687
O5    O     O_R   0.649840 0.534790 0.674920 -0.505003
O6    O     O_R   0.884950 0.350160 0.825080 -0.532780
O7    O     O_R   0.465210 0.115050 0.674920 -0.506630
O8    O     O_R   0.649840 0.534790 0.825080 -0.495850
O9    O     O_R   0.884950 0.350160 0.674920 -0.509559
O10   O     O_R   0.465210 0.115050 0.825080 -0.527371
O11   O     O_R   0.534790 0.649840 0.174920 -0.511744
O12   O     O_R   0.650120 0.083300 0.830070 -0.493496
O13   O     O_R   0.350160 0.884950 0.325080 -0.532927
O14   O     O_R   0.115050 0.465210 0.174920 -0.501855
O15   O     O_R   0.534790 0.649840 0.325080 -0.494841
O16   O     O_R   0.350160 0.884950 0.174920 -0.507046
O17   O     O_R   0.115050 0.465210 0.325080 -0.528320
O18   O     O_3   0.666667 0.333333 0.750000 -0.298080
O19   O     O_3   0.333333 0.666667 0.250000 -0.298300
O20   O     O_R   0.433180 0.349880 0.669930 -0.496847
O21   O     O_R   0.916700 0.566820 0.830070 -0.470708
O22   O     O_R   0.650120 0.083300 0.669930 -0.456582
O23   O     O_R   0.433180 0.349880 0.830070 -0.499369
O24   O     O_R   0.566820 0.916700 0.169930 -0.460006
O25   O     O_R   0.083300 0.650120 0.330070 -0.493710
O26   O     O_R   0.349880 0.433180 0.169930 -0.457633

loop_
_geom_bond_atom_site_label_1
_geom_bond_atom_site_label_2
_ccdc_geom_bond_type
Cr3   O10   S    
Cr5   O13   S    
C44   N1    T    
Cr6   O14   S    
C56   O12   A    
C29   C42   A    
Cr3   O23   S    
C1    O20   A    
C43   N17   S    
C45   O9    A    
C66   H29   S    
Cr2   O18   S    
C69   H38   S    
C63   H16   S    
Cr6   O17   S    
C71   O13   A    
Cr2   O9    S    
C58   H34   S    
H36   N16   S    
C14   C21   A    
C12   O6    A    
C26   C39   A    
C72   O14   A    
C5    C17   A    
Cr4   O2    S    
C62   H11   S    
C63   H17   S    
C11   C24   A    
C59   H46   S    
C6    C29   A    
C1    O5    A    
C9    C13   A    
H5    N8    S    
C31   N5    S    
Cr5   O3    S    
C60   H4    S    
C64   H21   S    
C31   C43   A    
C23   O22   A    
H48   N7    S    
C70   H42   S    
C52   N23   T    
C55   N3    T    
C4    O25   A    
C9    C26   A    
C19   C67   S    
Cr3   O18   S    
Cr1   O21   S    
C67   O26   A    
Cr2   O22   S    
C68   H35   S    
C46   N12   T    
Cr3   O7    S    
C64   H20   S    
Cr5   O25   S    
C62   H13   S    
Cr1   O1    S    
Cr6   O26   S    
Cr4   O11   S    
H14   N10   S    
C65   H24   S    
C66   H28   S    
Cr1   O18   S    
C19   C32   A    
C35   N8    S    
H44   N6    S    
C61   N8    S    
C17   C18   A    
C12   O21   A    
C64   N11   S    
C59   H45   S    
C15   C20   A    
C28   C45   S    
C39   N13   S    
C59   N6    S    
C23   C30   S    
H9    N9    S    
C57   N4    T    
Cr4   O15   S    
C9    C49   S    
H40   N17   S    
C61   H8    S    
H18   N11   S    
Cr2   O12   S    
C27   C56   S    
Cr6   O4    S    
C7    C15   A    
Cr5   O16   S    
C62   H10   S    
C47   N18   T    
Cr6   O19   S    
C7    C28   A    
C45   O1    A    
C68   H33   S    
C7    C47   S    
C62   N9    S    
C8    C48   S    
C50   N21   T    
C41   N15   S    
C37   C38   A    
H22   N13   S    
C25   C38   A    
C13   C52   S    
C60   H3    S    
C67   O11   A    
C3    O24   A    
C71   O2    A    
C58   N5    S    
H1    N5    S    
C48   N19   T    
Cr1   O5    S    
Cr3   O20   S    
C24   C37   A    
C70   N17   S    
C37   N10   S    
Cr2   O6    S    
C68   N15   S    
C58   H23   S    
C68   H32   S    
C58   H12   S    
C2    O15   A    
C15   C54   S    
C61   H7    S    
C20   C33   A    
C34   O8    A    
C10   C25   A    
C64   H19   S    
C5    C44   S    
C53   N24   T    
C30   C43   A    
C3    C21   S    
C70   H41   S    
C65   H25   S    
C10   C50   S    
C36   N9    S    
C32   N6    S    
C24   C72   S    
C5    C30   A    
C18   C71   S    
C69   H37   S    
C8    C14   A    
C72   O3    A    
C6    C46   S    
C27   C40   A    
C60   H2    S    
Cr1   O8    S    
C36   C39   A    
C66   H30   S    
C29   C34   S    
C61   H6    S    
C42   N16   S    
C21   C35   A    
C59   H47   S    
C22   C36   A    
C63   H15   S    
C49   N20   T    
C4    O17   A    
C12   C25   S    
C33   C41   A    
C63   N10   S    
Cr4   O24   S    
C35   C40   A    
C69   N16   S    
C16   C55   S    
C56   O10   A    
C34   O23   A    
C2    C22   S    
H27   N14   S    
C70   H43   S    
C1    C26   S    
C54   N2    T    
C51   N22   T    
C16   C19   A    
C23   O7    A    
C69   H39   S    
C38   N11   S    
C13   C22   A    
C40   N14   S    
Cr4   O19   S    
C65   N13   S    
C11   C51   S    
C10   C11   A    
C6    C16   A    
C4    C20   S    
C33   N7    S    
C14   C53   S    
C66   N14   S    
Cr5   O19   S    
C2    O4    A    
C8    C27   A    
C32   C42   A    
H31   N15   S    
C18   C31   A    
C65   H26   S    
C60   N7    S    
C28   C41   A    
C3    O16   A    
C17   C57   S    
