data_mof_unit_25798.cif
_audit_creation_date              2012-10-26T20:01:54-0400
_audit_creation_method            fapswitch 2.2
_symmetry_space_group_name_H-M    P1
_symmetry_Int_Tables_number       1
_space_group_crystal_system       triclinic
_cell_length_a                    11.697666
_cell_length_b                    10.86241
_cell_length_c                    9.618628
_cell_angle_alpha                 91.161901
_cell_angle_beta                  89.59504
_cell_angle_gamma                 93.255939
_cell_volume                      1219.94427671

loop_
_atom_site_label
_atom_site_type_symbol
_atom_type_description
_atom_site_fract_x
_atom_site_fract_y
_atom_site_fract_z
_atom_type_partial_charge
C1    C     C_R   0.508615 0.263589 0.498643 0.548288
C2    C     C_R   0.497229 0.873551 0.509413 -0.009112
C3    C     C_R   0.659367 0.657619 0.145689 -0.084324
C4    C     C_R   0.284176 0.499631 0.500335 0.560786
C5    C     C_R   0.740714 0.730406 0.074516 -0.178204
C6    C     C_R   0.741636 0.729090 0.931182 -0.170223
C7    C     C_R   0.660337 0.656095 0.858258 -0.094578
C8    C     C_R   0.579194 0.576256 0.926191 0.131918
C9    C     C_R   0.578814 0.576714 0.075597 0.150521
C10   C     C_R   0.424558 0.427922 0.074530 -0.012179
C11   C     C_R   0.422887 0.428242 0.927258 0.078720
C12   C     C_R   0.639184 0.082489 0.849131 -0.141416
C13   C     C_R   0.497552 0.738113 0.502610 0.531933
C14   C     C_R   0.715836 0.500352 0.499649 0.529564
C15   C     C_1   0.162445 0.500005 0.500765 -0.024045
C16   C     C_1   0.059933 0.500226 0.500349 -0.052032
C17   C     C_1   0.940103 0.500337 0.499575 -0.051449
C18   C     C_1   0.837581 0.500376 0.499148 -0.030399
C19   C     C_R   0.625298 0.135342 0.720221 -0.106520
C20   C     C_R   0.330961 0.350174 0.860589 0.070088
C21   C     C_R   0.346497 0.225169 0.831784 -0.079102
C22   C     C_R   0.256812 0.148618 0.777715 -0.116478
C23   C     C_R   0.586981 0.967238 0.875059 -0.142863
C24   C     C_R   0.149349 0.195265 0.757866 -0.110549
C25   C     C_R   0.131208 0.317918 0.794084 -0.115521
C26   C     C_R   0.221250 0.394806 0.847063 -0.077706
C27   C     C_R   0.533214 0.898634 0.767350 -0.118202
C28   C     C_R   0.530208 0.945083 0.630726 0.021571
C29   C     C_R   0.560355 0.071502 0.615051 0.022312
C30   C     C_R   0.521774 0.130841 0.496465 -0.006467
C31   C     C_R   0.481632 0.061079 0.381392 -0.161456
C32   C     C_R   0.474649 0.933739 0.385805 -0.164005
Cu1   Cu    Cu3+1 0.499990 0.499990 0.640660 0.919850
Cu2   Cu    Cu3+1 0.500010 0.500010 0.359340 0.921875
H1    H     H_    0.454305 0.104926 0.288033 0.133915
H2    H     H_    0.662779 0.669875 0.255377 0.184130
H3    H     H_    0.801796 0.790512 0.131262 0.121023
H4    H     H_    0.427592 0.187028 0.852562 0.128247
H5    H     H_    0.270272 0.052820 0.753062 0.114763
H6    H     H_    0.079692 0.135900 0.716659 0.111333
H7    H     H_    0.047349 0.353343 0.781452 0.116044
H8    H     H_    0.205951 0.489343 0.876185 0.107351
H9    H     H_    0.802849 0.788863 0.875895 0.127501
H10   H     H_    0.661823 0.669965 0.749254 0.186418
H11   H     H_    0.664130 0.226807 0.704394 0.143469
H12   H     H_    0.685164 0.133629 0.930960 0.118912
H13   H     H_    0.589163 0.930177 0.978567 0.127075
H14   H     H_    0.489466 0.813354 0.796736 0.152779
H15   H     H_    0.447650 0.882326 0.292886 0.138858
H16   H     H_    0.362858 0.369437 0.130759 0.120577
N1    N     N_R   0.501070 0.501210 0.147910 -0.252071
N2    N     N_R   0.501110 0.501290 0.852040 -0.250906
O1    O     O_R   0.499990 0.319640 0.618810 -0.499460
O2    O     O_R   0.500000 0.319660 0.381240 -0.502224
O3    O     O_R   0.337190 0.500000 0.618790 -0.484235
O4    O     O_R   0.337200 0.500030 0.381210 -0.494489
O5    O     O_R   0.500000 0.680340 0.618760 -0.536072
O6    O     O_R   0.500010 0.680360 0.381190 -0.521587
O7    O     O_R   0.662800 0.499970 0.618790 -0.522230
O8    O     O_R   0.662810 0.500000 0.381210 -0.509716

loop_
_geom_bond_atom_site_label_1
_geom_bond_atom_site_label_2
_ccdc_geom_bond_type
C27   H14   S    
Cu1   O3    S    
Cu1   O5    S    
C1    O2    A    
C19   H11   S    
Cu2   O4    S    
C6    C7    A    
C3    C9    A    
C1    C30   S    
C23   C27   A    
C14   O8    A    
C14   C18   S    
C31   C32   A    
C9    N1    A    
C4    C15   S    
C17   C18   T    
C7    C8    A    
Cu1   O7    S    
C13   O6    A    
C21   C22   A    
C24   C25   A    
Cu1   N2    S    
Cu2   O8    S    
C14   O7    A    
C12   C23   A    
Cu2   N1    S    
C29   C30   A    
C20   C26   A    
C3    H2    S    
C5    C6    A    
C22   H5    S    
C12   C19   A    
C2    C32   A    
C28   C29   A    
C24   H6    S    
Cu1   Cu2   S    
C22   C24   A    
C6    H9    S    
C4    O3    A    
Cu1   O1    S    
C30   C31   A    
C32   H15   S    
C31   H1    S    
C11   C20   S    
C13   O5    A    
C10   C11   A    
C10   N1    A    
C15   C16   T    
C19   C29   A    
C8    N2    A    
C4    O4    A    
C23   H13   S    
C20   C21   A    
C26   H8    S    
C12   H12   S    
C25   H7    S    
C27   C28   A    
Cu2   O6    S    
C2    C13   S    
C1    O1    A    
C5    H3    S    
C2    C28   A    
C11   N2    A    
C25   C26   A    
C7    H10   S    
Cu2   O2    S    
C21   H4    S    
C16   C17   S    
C8    C9    A    
C3    C5    A    
C10   H16   S    
