data_mof_unit_11609.cif
_audit_creation_date              2012-12-11T14:03:25-0500
_audit_creation_method            fapswitch 2.2
_symmetry_space_group_name_H-M    P1
_symmetry_Int_Tables_number       1
_space_group_crystal_system       triclinic
_cell_length_a                    6.932212
_cell_length_b                    11.441212
_cell_length_c                    18.677701
_cell_angle_alpha                 90.000251
_cell_angle_beta                  92.677069
_cell_angle_gamma                 89.999661
_cell_volume                      1479.76605453

loop_
_atom_site_label
_atom_site_type_symbol
_atom_type_description
_atom_site_fract_x
_atom_site_fract_y
_atom_site_fract_z
_atom_type_partial_charge
O1    O     O_R   0.330540 0.606360 0.598870 -0.529677
O2    O     O_R   0.669460 0.106360 0.401130 -0.529674
O3    O     O_R   0.026770 0.620470 0.750430 -0.545329
O4    O     O_R   0.973230 0.120470 0.249570 -0.545333
O5    O     O_R   0.856460 0.393640 0.750930 -0.546164
O6    O     O_R   0.143540 0.893640 0.249070 -0.546162
C1    C     C_R   0.198356 0.648149 0.774684 0.689151
C2    C     C_R   0.801643 0.148148 0.225316 0.689146
O7    O     O_R   0.000920 0.620350 0.599420 -0.529823
O8    O     O_R   0.999080 0.120350 0.400580 -0.529848
O9    O     O_R   0.830430 0.393520 0.598850 -0.539548
O10   O     O_R   0.169570 0.893520 0.401150 -0.539529
C3    C     C_R   0.167036 0.645726 0.573485 0.811630
C4    C     C_R   0.832964 0.145725 0.426515 0.811701
O11   O     O_R   0.356570 0.606480 0.750960 -0.544944
O12   O     O_R   0.643430 0.106480 0.249040 -0.544943
O13   O     O_3   0.176990 0.425580 0.674890 -0.376300
O14   O     O_3   0.823010 0.925580 0.325110 -0.376312
V1    V     V_3+5 0.902170 0.513810 0.674910 1.467269
V2    V     V_3+5 0.097830 0.013810 0.325090 1.467236
O15   O     O_R   0.500800 0.379530 0.599380 -0.518333
O16   O     O_R   0.499200 0.879530 0.400620 -0.518365
C5    C     C_R   0.667193 0.348845 0.576458 0.718596
C6    C     C_R   0.332809 0.848852 0.423546 0.718613
O17   O     O_R   0.526650 0.379650 0.750390 -0.551532
O18   O     O_R   0.473350 0.879650 0.249610 -0.551533
C7    C     C_R   0.698222 0.351693 0.774454 0.678420
C8    C     C_R   0.301778 0.851693 0.225546 0.678430
V3    V     V_3+5 0.402160 0.486190 0.674900 1.476813
V4    V     V_3+5 0.597840 0.986190 0.325100 1.476762
O19   O     O_3   0.677210 0.574420 0.674910 -0.367713
O20   O     O_3   0.322790 0.074420 0.325090 -0.367732
C9    C     C_R   0.686225 0.073228 0.880108 -0.104572
C10   C     C_R   0.313770 0.573227 0.119891 -0.104570
H1    H     H_    0.665702 0.116889 0.768366 0.097749
H2    H     H_    0.334295 0.616888 0.231633 0.097744
H3    H     H_    0.689871 0.942971 0.997289 0.135041
H4    H     H_    0.310118 0.442970 0.002709 0.135041
H5    H     H_    0.666337 0.980732 0.869562 0.119744
H6    H     H_    0.333655 0.480731 0.130436 0.119742
C11   C     C_R   0.711902 0.269668 0.834480 -0.038244
C12   C     C_R   0.288100 0.769668 0.165520 -0.038245
C13   C     C_R   0.814578 0.350039 0.180875 -0.202869
C14   C     C_R   0.185420 0.850040 0.819125 -0.202866
C15   C     C_R   0.809036 0.433841 0.125933 0.351345
C16   C     C_R   0.190961 0.933842 0.874068 0.351338
C17   C     C_R   0.781690 0.396361 0.054711 -0.244166
C18   C     C_R   0.218306 0.896361 0.945290 -0.244163
C19   C     C_R   0.758160 0.276649 0.036758 0.031432
C20   C     C_R   0.241838 0.776649 0.963242 0.031433
C21   C     C_R   0.758504 0.193576 0.093594 0.061712
C22   C     C_R   0.241493 0.693576 0.906405 0.061710
C23   C     C_R   0.735703 0.236553 0.964225 0.084038
C24   C     C_R   0.264295 0.736553 0.035774 0.084037
C25   C     C_R   0.710429 0.114964 0.950628 0.131516
C26   C     C_R   0.289566 0.614964 0.049371 0.131515
C27   C     C_R   0.709163 0.035683 0.007346 -0.218086
C28   C     C_R   0.290829 0.535683 0.992653 -0.218086
C29   C     C_R   0.733509 0.074047 0.077637 -0.192715
C30   C     C_R   0.266484 0.574047 0.922362 -0.192716
C31   C     C_R   0.737269 0.312586 0.904417 -0.224528
C32   C     C_R   0.262734 0.812586 0.095583 -0.224526
C33   C     C_R   0.686172 0.150278 0.822457 -0.156982
C34   C     C_R   0.313826 0.650277 0.177542 -0.156983
C35   C     C_R   0.787330 0.231476 0.165444 -0.131806
C36   C     C_R   0.212667 0.731477 0.834556 -0.131809
H7    H     H_    0.754835 0.405739 0.909918 0.105574
H8    H     H_    0.245172 0.905740 0.090083 0.105574
H9    H     H_    0.839596 0.375758 0.236275 0.112329
H10   H     H_    0.160402 0.875759 0.763725 0.112342
H11   H     H_    0.780982 0.463679 0.014470 0.121779
H12   H     H_    0.219013 0.963679 0.985531 0.121778
H13   H     H_    0.732774 0.008638 0.119502 0.124481
H14   H     H_    0.267216 0.508638 0.880496 0.124478
C37   C     C_2   0.826811 0.233382 0.484612 -0.393004
C38   C     C_2   0.173184 0.733375 0.515384 -0.393099
H15   H     H_    0.952343 0.289652 0.492206 0.183170
H16   H     H_    0.047613 0.789607 0.507766 0.183304
C39   C     C_2   0.670038 0.251621 0.524374 -0.210484
C40   C     C_2   0.329983 0.751647 0.475642 -0.210574
C41   C     C_2   0.504061 0.169281 0.523468 0.799006
O21   O     O_2   0.339110 0.205994 0.514332 -0.559572
O22   O     O_R   0.537072 0.050345 0.535984 -0.662155
H17   H     H_    0.412640 0.004257 0.538117 0.272722
C42   C     C_2   0.496059 0.669380 0.476597 0.799136
O23   O     O_2   0.660942 0.706158 0.485824 -0.559566
O24   O     O_R   0.463229 0.550440 0.464032 -0.662211
H18   H     H_    0.587731 0.504408 0.461948 0.272677
N1    N     N_2   0.836682 0.556006 0.139853 -0.515476
H19   H     H_    0.784291 0.612125 0.100298 0.257163
C43   C     C_3   0.827707 0.600474 0.212212 -0.508884
H20   H     H_    0.840958 0.697235 0.211761 0.203841
H21   H     H_    0.949503 0.565380 0.246426 0.193547
H22   H     H_    0.688111 0.576714 0.235046 0.184857
N2    N     N_2   0.163312 0.056006 0.860149 -0.515485
H23   H     H_    0.215698 0.112126 0.899705 0.257161
C44   C     C_3   0.172293 0.100475 0.787790 -0.508843
H24   H     H_    0.159042 0.197236 0.788242 0.203839
H25   H     H_    0.050498 0.065382 0.753575 0.193560
H26   H     H_    0.311890 0.076713 0.764957 0.184858

loop_
_geom_bond_atom_site_label_1
_geom_bond_atom_site_label_2
_ccdc_geom_bond_type
C9    C25   A    
O24   H18   S    
C10   C26   A    
O13   V3    S    
C14   C36   A    
N2    H23   S    
C11   C31   A    
O4    C2    A    
V1    O19   S    
C44   H24   S    
C17   C19   A    
C42   O23   D    
O9    V1    S    
C9    H5    S    
C10   H6    S    
C38   H16   S    
O3    C1    A    
C27   C29   A    
C28   C30   A    
C21   C35   A    
C15   C17   A    
C30   H14   S    
C31   H7    S    
O7    C3    A    
C22   C30   A    
C44   H25   S    
O5    C7    A    
C23   C31   A    
C6    C40   S    
O6    C8    A    
C16   N2    S    
C14   C16   A    
C19   C21   A    
C20   C22   A    
O3    V1    S    
O14   V4    S    
N1    C43   S    
C15   N1    S    
C12   C32   A    
C9    C33   A    
C18   C20   A    
C2    C35   S    
C2    O12   A    
H4    C28   S    
C8    C12   S    
C18   H12   S    
C10   C34   A    
C41   O22   S    
O7    V1    S    
O11   V3    S    
C16   C18   A    
C23   C25   A    
O17   V3    S    
C24   C26   A    
C42   O24   S    
O8    C4    A    
O8    V2    S    
C43   H20   S    
C39   C41   S    
C1    O11   A    
C24   C32   A    
O15   V3    S    
C41   O21   D    
C40   C42   S    
C43   H21   S    
C37   H15   S    
C7    C11   S    
O22   H17   S    
C3    C38   S    
C13   C35   A    
O10   V2    S    
O1    V3    S    
C20   C24   A    
C14   H10   S    
C13   C15   A    
C17   H11   S    
O18   V4    S    
O15   C5    A    
O16   C6    A    
O1    C3    A    
C11   C33   A    
C12   C34   A    
C44   H26   S    
C22   C36   A    
V2    O20   S    
C29   H13   S    
O16   V4    S    
C38   C40   D    
N2    C44   S    
O5    V1    S    
O17   C7    A    
O6    V2    S    
O10   C6    A    
O18   C8    A    
C32   H8    S    
O2    V4    S    
C4    C37   S    
C25   C27   A    
V3    O19   S    
C1    C36   S    
V4    O20   S    
C37   C39   D    
C19   C23   A    
O9    C5    A    
O13   V1    S    
C26   C28   A    
O14   V2    S    
O2    C4    A    
O4    V2    S    
C21   C29   A    
C13   H9    S    
H1    C33   S    
C5    C39   S    
N1    H19   S    
H2    C34   S    
O12   V4    S    
H3    C27   S    
C43   H22   S    
