data_mof_unit_35324.cif
_audit_creation_date              2012-10-26T19:02:34-0400
_audit_creation_method            fapswitch 2.2
_symmetry_space_group_name_H-M    P1
_symmetry_Int_Tables_number       1
_space_group_crystal_system       triclinic
_cell_length_a                    17.181861
_cell_length_b                    8.738077
_cell_length_c                    7.431382
_cell_angle_alpha                 102.572903
_cell_angle_beta                  90.501201
_cell_angle_gamma                 92.957638
_cell_volume                      1087.28689543

loop_
_atom_site_label
_atom_site_type_symbol
_atom_type_description
_atom_site_fract_x
_atom_site_fract_y
_atom_site_fract_z
_atom_type_partial_charge
C1    C     C_R   0.494990 0.200269 0.455273 0.570639
C2    C     C_R   0.777822 0.590073 0.622897 -0.111764
C3    C     C_R   0.140939 0.394754 0.381551 0.283716
C4    C     C_R   0.859120 0.604621 0.618212 0.283630
C5    C     C_R   0.103759 0.453193 0.548024 0.087451
C6    C     C_R   0.896252 0.545682 0.451820 0.087524
C7    C     C_R   0.147496 0.516216 0.709593 -0.167743
C8    C     C_R   0.852474 0.482516 0.290357 -0.167746
C9    C     C_R   0.228530 0.528963 0.704267 -0.146654
C10   C     C_R   0.771439 0.470164 0.295723 -0.146593
C11   C     C_2   0.018301 0.457228 0.551916 0.346116
C12   C     C_R   0.505010 0.799731 0.544727 0.570678
C13   C     C_2   0.981699 0.541560 0.447852 0.346270
C14   C     C_2   0.483940 0.033166 0.436022 0.232720
C15   C     C_2   0.516060 0.966834 0.563978 0.232719
C16   C     C_R   0.350823 0.496882 0.524912 0.546808
C17   C     C_R   0.649176 0.503050 0.475077 0.546781
C18   C     C_R   0.266085 0.479412 0.536758 -0.012275
C19   C     C_R   0.733918 0.520228 0.463172 -0.012279
C20   C     C_R   0.222227 0.409670 0.376924 -0.111682
Cu1   Cu    Cu3+1 0.508700 0.517250 0.683000 1.005756
Cu2   Cu    Cu3+1 0.491300 0.482750 0.317000 1.005727
H1    H     H_    0.251121 0.366638 0.248176 0.114031
H2    H     H_    0.131814 0.292726 0.121076 0.320672
H3    H     H_    0.413589 0.014901 0.222648 0.332953
H4    H     H_    0.586410 0.985099 0.777353 0.332936
H5    H     H_    0.439307 0.378970 0.957941 0.241440
H6    H     H_    0.560693 0.621030 0.042059 0.241460
H7    H     H_    0.748956 0.633461 0.751588 0.114017
H8    H     H_    0.738391 0.417943 0.170702 0.154719
H9    H     H_    0.261545 0.581073 0.829376 0.154662
H10   H     H_    0.987564 0.678957 0.275084 0.330337
H11   H     H_    0.012398 0.319500 0.724297 0.330297
H12   H     H_    0.118688 0.559972 0.838264 0.164300
H13   H     H_    0.881251 0.438397 0.161731 0.164255
H14   H     H_    0.868317 0.707547 0.878381 0.320711
N1    N     N_2   0.478180 0.456750 0.041980 -0.238790
N2    N     N_2   0.521820 0.543250 0.958020 -0.238775
O1    O     O_R   0.505650 0.286040 0.618880 -0.457039
O2    O     O_3   0.975735 0.376590 0.662497 -0.685203
O3    O     O_3   0.903403 0.674113 0.773493 -0.668670
O4    O     O_3   0.096710 0.325426 0.226121 -0.668642
O5    O     O_3   0.437506 0.944569 0.292990 -0.706113
O6    O     O_3   0.562494 0.055431 0.707010 -0.706137
O7    O     O_R   0.494350 0.713960 0.381120 -0.457022
O8    O     O_R   0.490960 0.256910 0.309800 -0.520150
O9    O     O_R   0.509040 0.743090 0.690200 -0.520124
O10   O     O_R   0.394600 0.516230 0.672450 -0.513427
O11   O     O_R   0.605400 0.483770 0.327550 -0.513446
O12   O     O_R   0.379910 0.487100 0.363380 -0.504024
O13   O     O_R   0.620090 0.512900 0.636620 -0.503992
O14   O     O_3   0.024255 0.622218 0.337274 -0.685036

loop_
_geom_bond_atom_site_label_1
_geom_bond_atom_site_label_2
_ccdc_geom_bond_type
C2    C4    A    
C20   H1    S    
C3    O4    S    
N1    N2    D    
C13   O14   S    
H2    O4    S    
C10   H8    S    
Cu1   O1    S    
C12   C15   S    
H6    N2    S    
C10   C19   A    
Cu2   O12   S    
Cu1   O10   S    
C17   O13   A    
C3    C5    A    
H4    O6    S    
C3    C20   A    
Cu1   Cu2   S    
C6    C13   S    
C11   C13   D    
C16   O10   A    
H14   O3    S    
H5    N1    S    
C12   O9    A    
C8    C10   A    
H3    O5    S    
Cu2   O8    S    
C16   O12   A    
C15   O6    S    
C5    C11   S    
C18   C20   A    
C2    H7    S    
C11   O2    S    
C7    H12   S    
C1    O8    A    
H11   O2    S    
C4    O3    S    
C1    O1    A    
C17   O11   A    
C7    C9    A    
C9    C18   A    
Cu1   O13   S    
Cu2   O7    S    
C14   O5    S    
C16   C18   S    
C4    C6    A    
Cu2   O11   S    
C5    C7    A    
C9    H9    S    
C14   C15   D    
H10   O14   S    
C6    C8    A    
C1    C14   S    
C17   C19   S    
C2    C19   A    
Cu2   N1    S    
Cu1   N2    S    
C12   O7    A    
Cu1   O9    S    
C8    H13   S    
