data_mof_unit_14154.cif
_audit_creation_date              2012-10-26T21:17:55-0400
_audit_creation_method            fapswitch 2.2
_symmetry_space_group_name_H-M    P1
_symmetry_Int_Tables_number       1
_space_group_crystal_system       triclinic
_cell_length_a                    14.720475
_cell_length_b                    14.701516
_cell_length_c                    27.654115
_cell_angle_alpha                 76.153419
_cell_angle_beta                  102.785384
_cell_angle_gamma                 114.84725
_cell_volume                      5223.16049002

loop_
_atom_site_label
_atom_site_type_symbol
_atom_type_description
_atom_site_fract_x
_atom_site_fract_y
_atom_site_fract_z
_atom_type_partial_charge
C1    C     C_R   0.880279 0.311743 0.508117 0.566558
C2    C     C_R   0.935216 0.441580 0.123300 0.002028
C3    C     C_R   0.006803 0.509584 0.644512 -0.046674
C4    C     C_R   0.000004 0.499578 0.354155 -0.075941
C5    C     C_R   0.921637 0.465229 0.017703 0.005156
C6    C     C_R   0.078607 0.624706 0.968604 0.005381
C7    C     C_R   0.069486 0.626211 0.018543 0.010248
C8    C     C_R   0.911380 0.485463 0.964298 0.012411
C9    C     C_R   0.997364 0.540656 0.044358 -0.095380
C10   C     C_R   0.995272 0.557335 0.940748 -0.094183
C11   C     C_R   0.862111 0.371329 0.044972 0.309121
C12   C     C_R   0.119714 0.688285 0.491983 0.580847
C13   C     C_R   0.168358 0.685591 0.946377 0.309213
C14   C     C_R   0.871316 0.360053 0.097845 0.382151
C15   C     C_R   0.167758 0.686915 0.894995 0.376831
C16   C     C_R   0.000396 0.500742 0.592280 0.569711
C17   C     C_R   0.999766 0.499120 0.407481 0.547700
C18   C     C_R   0.819181 0.440985 0.933345 0.306098
C19   C     C_R   0.125870 0.711819 0.042841 0.307669
C20   C     C_R   0.812737 0.202988 0.510390 -0.043847
C21   C     C_R   0.187161 0.797091 0.489953 -0.048913
C22   C     C_R   0.777900 0.033011 0.496749 0.274736
C23   C     C_R   0.994706 0.562954 0.889051 -0.163054
C24   C     C_R   0.221626 0.966940 0.503766 0.267204
C25   C     C_R   0.847873 0.129780 0.505985 0.212149
C26   C     C_R   0.151772 0.870234 0.494252 0.202864
C27   C     C_R   0.709642 0.173845 0.512914 0.379581
C28   C     C_R   0.290464 0.826279 0.488016 0.382370
C29   C     C_R   0.640005 0.074405 0.508354 -0.022935
C30   C     C_R   0.359839 0.925733 0.492588 -0.022158
C31   C     C_R   0.673430 0.009614 0.493149 -0.123055
C32   C     C_R   0.326189 0.990410 0.507658 -0.129953
C33   C     C_R   0.535517 0.042509 0.511663 0.003778
C34   C     C_R   0.000012 0.531563 0.096651 -0.159995
C35   C     C_R   0.464299 0.957684 0.489347 0.007067
C36   C     C_R   0.499995 0.909495 0.463586 0.443702
C37   C     C_R   0.499635 0.090718 0.537349 0.444342
C38   C     C_R   0.602340 0.929682 0.469085 -0.078163
C39   C     C_R   0.397163 0.070347 0.531785 -0.082115
C40   C     C_R   0.911021 0.513200 0.808130 0.474254
C41   C     C_R   0.068709 0.600376 0.174483 0.437383
C42   C     C_R   0.702680 0.645025 0.405885 -0.101499
C43   C     C_R   0.299381 0.355391 0.592439 -0.098579
C44   C     C_R   0.790820 0.627921 0.424500 0.435706
C45   C     C_R   0.906877 0.506597 0.859464 -0.009057
C46   C     C_R   0.210297 0.371027 0.574791 0.441827
C47   C     C_R   0.717391 0.515772 0.495372 0.550943
C48   C     C_R   0.282160 0.487276 0.504424 0.563272
C49   C     C_R   0.629424 0.539461 0.480957 -0.051106
C50   C     C_R   0.371036 0.465598 0.517481 -0.052235
C51   C     C_R   0.619796 0.597003 0.432812 -0.098045
C52   C     C_R   0.381966 0.406777 0.565307 -0.100904
C53   C     C_R   0.548383 0.502135 0.510524 -0.045844
C54   C     C_R   0.452131 0.506020 0.487461 -0.047628
C55   C     C_R   0.439820 0.547351 0.435260 0.345346
C56   C     C_R   0.068218 0.612001 0.122335 -0.004765
C57   C     C_R   0.562795 0.465743 0.562911 0.359084
C58   C     C_R   0.525822 0.598808 0.409929 0.373241
C59   C     C_R   0.477319 0.408988 0.588232 0.383905
C60   C     C_R   0.076997 0.633498 0.814443 0.451748
C61   C     C_R   0.937834 0.434759 0.175237 0.488664
C62   C     C_R   0.099481 0.589151 0.717256 0.272894
C63   C     C_R   0.043093 0.446087 0.288334 0.270842
C64   C     C_R   0.090516 0.585057 0.666213 0.242746
C65   C     C_R   0.040439 0.439980 0.339637 0.223365
C66   C     C_R   0.938152 0.434067 0.674718 -0.207612
C67   C     C_R   0.818030 0.446775 0.881767 0.292025
C68   C     C_R   0.957583 0.559726 0.317168 -0.192844
C69   C     C_R   0.943561 0.441375 0.725555 0.273327
C70   C     C_R   0.959414 0.565681 0.265962 0.265999
C71   C     C_R   0.014216 0.532196 0.743748 0.150727
C72   C     C_R   0.000896 0.507365 0.251754 0.215108
C73   C     C_3   0.002613 0.873333 0.450672 -0.035845
C74   C     C_3   0.996812 0.126016 0.549532 -0.039656
C75   C     C_3   0.798931 0.882936 0.525276 -0.112075
C76   C     C_3   0.200417 0.116868 0.475237 -0.112332
C77   C     C_3   0.327310 0.601740 0.373895 0.048069
C78   C     C_R   0.131158 0.702628 0.094960 0.289284
C79   C     C_3   0.683511 0.438055 0.629484 0.029083
C80   C     C_3   0.808393 0.282415 0.739530 -0.069039
C81   C     C_3   0.950723 0.722845 0.236615 -0.071842
C82   C     C_3   0.712337 0.293591 0.860027 -0.049922
C83   C     C_3   0.292079 0.795989 0.125558 -0.042555
C84   C     C_3   0.002397 0.280682 0.384068 -0.042463
C85   C     C_3   0.168096 0.743629 0.624350 -0.062659
C86   C     C_3   0.185721 0.434710 0.276948 -0.084768
C87   C     C_3   0.233163 0.564729 0.769148 -0.035839
C88   C     C_3   0.713715 0.228179 0.033306 -0.005214
C89   C     C_R   0.080203 0.629092 0.866078 -0.001755
C90   C     C_3   0.319932 0.825752 0.957923 -0.006228
C91   C     C_3   0.697516 0.474152 0.954877 -0.111546
C92   C     C_3   0.096037 0.847422 0.994629 -0.112142
Cu1   Cu    Cu3+1 0.081740 0.475690 0.513040 1.192070
Cu2   Cu    Cu3+1 0.918260 0.524310 0.486960 1.146285
F1    F     F_    0.325639 0.753504 0.490016 -0.523895
F2    F     F_    0.869718 0.673796 0.397753 -0.651240
F3    F     F_    0.822134 0.267875 0.124700 -0.597969
F4    F     F_    0.254833 0.736851 0.874215 -0.609939
F5    F     F_    0.675012 0.246735 0.511602 -0.524983
F6    F     F_    0.438048 0.849321 0.429510 -0.582300
F7    F     F_    0.561403 0.151058 0.571404 -0.569687
F8    F     F_    0.516428 0.640621 0.360568 -0.656855
F9    F     F_    0.487444 0.365918 0.637359 -0.653196
F10   F     F_    0.278199 0.566438 0.468671 -0.541145
F11   F     F_    0.720645 0.439162 0.533283 -0.547519
F12   F     F_    0.132236 0.323966 0.602091 -0.629925
H1    H     H_    0.883372 0.368888 0.658358 0.125191
H2    H     H_    0.977970 0.146537 0.581266 0.153818
H3    H     H_    0.079684 0.165006 0.549591 0.167598
H4    H     H_    0.978491 0.043205 0.555674 0.149780
H5    H     H_    0.819616 0.905238 0.563250 0.111174
H6    H     H_    0.848604 0.844968 0.523049 0.166210
H7    H     H_    0.719961 0.826214 0.521341 0.130701
H8    H     H_    0.152194 0.155955 0.478038 0.156266
H9    H     H_    0.177998 0.094326 0.437280 0.108875
H10   H     H_    0.279816 0.172762 0.478625 0.130380
H11   H     H_    0.341525 0.603235 0.335910 0.148843
H12   H     H_    0.923122 0.602330 0.328209 0.197543
H13   H     H_    0.372907 0.676530 0.386550 0.225892
H14   H     H_    0.246666 0.589714 0.370300 0.166329
H15   H     H_    0.648861 0.358299 0.622130 0.209217
H16   H     H_    0.663562 0.444070 0.664701 0.194610
H17   H     H_    0.766340 0.460957 0.635203 0.141087
H18   H     H_    0.831519 0.236879 0.721612 0.128670
H19   H     H_    0.756616 0.314534 0.712859 0.128044
H20   H     H_    0.765516 0.229625 0.770172 0.139966
H21   H     H_    0.033757 0.754550 0.249182 0.151864
H22   H     H_    0.909106 0.728993 0.263831 0.135474
H23   H     H_    0.698644 0.693227 0.369765 0.206405
H24   H     H_    0.936308 0.770518 0.200488 0.161766
H25   H     H_    0.695676 0.254850 0.898720 0.147034
H26   H     H_    0.778155 0.283658 0.851929 0.129545
H27   H     H_    0.645807 0.255796 0.833376 0.150510
H28   H     H_    0.321808 0.813967 0.089297 0.147159
H29   H     H_    0.300741 0.726053 0.148647 0.125004
H30   H     H_    0.338980 0.859781 0.146496 0.157455
H31   H     H_    0.971643 0.246073 0.349247 0.159887
H32   H     H_    0.940553 0.283687 0.399832 0.127161
H33   H     H_    0.034400 0.230315 0.412150 0.165831
H34   H     H_    0.304775 0.306666 0.628252 0.209381
H35   H     H_    0.178933 0.780008 0.657289 0.175865
H36   H     H_    0.096450 0.740990 0.599647 0.131902
H37   H     H_    0.231371 0.792169 0.602382 0.147781
H38   H     H_    0.220891 0.431925 0.316902 0.180884
H39   H     H_    0.210424 0.514622 0.256726 0.120041
H40   H     H_    0.213603 0.393141 0.259109 0.157000
H41   H     H_    0.234677 0.515074 0.744837 0.130947
H42   H     H_    0.188642 0.517943 0.800420 0.118801
H43   H     H_    0.312008 0.604545 0.786159 0.174011
H44   H     H_    0.678660 0.272838 0.044429 0.143709
H45   H     H_    0.626140 0.888015 0.450482 0.180867
H46   H     H_    0.714671 0.163038 0.063299 0.186158
H47   H     H_    0.664410 0.195679 0.999917 0.130250
H48   H     H_    0.275803 0.869092 0.932957 0.145640
H49   H     H_    0.377286 0.824795 0.938119 0.183489
H50   H     H_    0.361947 0.867482 0.989721 0.130212
H51   H     H_    0.689263 0.520913 0.917289 0.146601
H52   H     H_    0.750976 0.523354 0.982310 0.103636
H53   H     H_    0.622583 0.438252 0.968258 0.147792
H54   H     H_    0.058306 0.852115 0.024161 0.145193
H55   H     H_    0.039062 0.802040 0.966621 0.102848
H56   H     H_    0.373166 0.111992 0.550299 0.182600
H57   H     H_    0.132945 0.925710 0.974557 0.145968
H58   H     H_    0.919755 0.833951 0.450608 0.166525
H59   H     H_    0.021709 0.852917 0.418983 0.149356
H60   H     H_    0.020497 0.956069 0.444457 0.145069
N1    N     N_R   0.002398 0.558668 0.789722 -0.397235
N2    N     N_R   0.003292 0.513651 0.199357 -0.371882
N3    N     N_R   0.795430 0.560780 0.467350 -0.222221
N4    N     N_R   0.204570 0.439220 0.532650 -0.224775
O1    O     O_R   0.977900 0.338120 0.517190 -0.464533
O2    O     O_2   0.133630 0.674799 0.200458 -0.470871
O3    O     O_2   0.874288 0.351049 0.201446 -0.372199
O4    O     O_2   0.140813 0.717711 0.789025 -0.359646
O5    O     O_3   0.050949 0.842318 0.497772 -0.543807
O6    O     O_3   0.948641 0.157439 0.502479 -0.556655
O7    O     O_3   0.812905 0.967105 0.485883 -0.551395
O8    O     O_3   0.186381 0.032666 0.514609 -0.548595
O9    O     O_3   0.342967 0.519264 0.408116 -0.528262
O10   O     O_3   0.659660 0.507009 0.588950 -0.546498
O11   O     O_3   0.893881 0.358817 0.760759 -0.538229
O12   O     O_R   0.022100 0.661880 0.482810 -0.460750
O13   O     O_3   0.914390 0.621450 0.228554 -0.534457
O14   O     O_3   0.728168 0.397147 0.853056 -0.498663
O15   O     O_3   0.190745 0.786710 0.117830 -0.504575
O16   O     O_3   0.080039 0.377745 0.375321 -0.534390
O17   O     O_3   0.170283 0.645867 0.639377 -0.527685
O18   O     O_3   0.079681 0.386133 0.273344 -0.528721
O19   O     O_3   0.195630 0.638253 0.740904 -0.481973
O20   O     O_3   0.812099 0.287350 0.020409 -0.534633
O21   O     O_3   0.258794 0.725397 0.977751 -0.536132
O22   O     O_3   0.727831 0.396682 0.952032 -0.551354
O23   O     O_R   0.839850 0.379180 0.495160 -0.405002
O24   O     O_3   0.170795 0.807638 0.015859 -0.550033
O25   O     O_R   0.160150 0.620820 0.504840 -0.391782
O26   O     O_R   0.069030 0.479490 0.580750 -0.427230
O27   O     O_R   0.930970 0.520510 0.419250 -0.476298
O28   O     O_R   0.930970 0.520550 0.558720 -0.480749
O29   O     O_R   0.069030 0.479450 0.441280 -0.433322
O30   O     O_2   0.824347 0.479726 0.776535 -0.418358

loop_
_geom_bond_atom_site_label_1
_geom_bond_atom_site_label_2
_ccdc_geom_bond_type
C92   H55   S    
C85   O17   S    
C37   F7    S    
C21   C26   A    
C63   C65   A    
C86   O18   S    
Cu1   Cu2   S    
C23   C45   A    
C29   C33   A    
C27   C29   A    
Cu2   O23   S    
C60   O4    S    
C84   O16   S    
C35   C36   A    
C66   H1    S    
C77   H14   S    
C85   H37   S    
C74   H3    S    
C78   O15   S    
C86   H38   S    
C47   C49   A    
C3    C64   A    
C76   H10   S    
C88   O20   S    
C79   H15   S    
C18   O22   S    
C75   H6    S    
C50   C54   A    
C87   H41   S    
C30   C35   A    
C28   F1    S    
C16   O26   A    
Cu1   O29   S    
C24   C26   A    
C5    C11   A    
C73   H58   S    
C77   H11   S    
Cu2   N3    S    
C4    C65   A    
C11   C14   A    
C43   C52   A    
C57   C59   A    
C66   C69   A    
C20   C25   A    
C48   F10   S    
C41   N2    A    
C82   O14   S    
C76   H9    S    
C56   C78   A    
C32   C39   A    
C69   C71   A    
C44   N3    A    
C40   N1    A    
C62   C64   A    
Cu2   O27   S    
C68   H12   S    
C65   O16   S    
C12   O12   A    
C84   H33   S    
C91   H52   S    
C22   C25   A    
C45   C67   A    
C76   H8    S    
C23   C89   A    
C17   O27   A    
C75   H7    S    
C90   H48   S    
C88   H44   S    
C91   H53   S    
C2    C61   A    
C42   C51   A    
C87   O19   S    
C2    C34   A    
C48   C50   A    
C92   O24   S    
C84   H32   S    
C71   N1    S    
C81   H21   S    
C75   H5    S    
C72   N2    S    
Cu1   O25   S    
C42   C44   A    
C22   O7    S    
C34   C56   A    
C86   H40   S    
C47   N3    A    
C62   O19   S    
C90   O21   S    
C40   C45   A    
C37   C39   A    
C41   O2    S    
Cu1   N4    S    
C60   N1    A    
C22   C31   A    
C61   O3    S    
C73   H59   S    
C87   H42   S    
C85   H35   S    
C67   O14   S    
C4    C68   A    
C53   C57   A    
C40   O30   S    
C49   C51   A    
C18   C67   A    
C53   C54   A    
C79   H17   S    
C12   C21   S    
C1    O1    A    
C33   C37   A    
C46   N4    A    
Cu2   O28   S    
C73   O5    S    
C19   C78   A    
C1    O23   A    
C24   C32   A    
C41   C56   A    
C74   O6    S    
C44   F2    S    
C52   C59   A    
C15   C89   A    
C50   C52   A    
C83   H28   S    
C79   H16   S    
C27   F5    S    
C87   H43   S    
C43   H34   S    
C36   F6    S    
C51   C58   A    
C77   O9    S    
C80   O11   S    
C39   H56   S    
C83   H30   S    
C58   F8    S    
C4    C17   S    
C92   H57   S    
C8    C10   A    
C21   C28   A    
C84   H31   S    
C7    C19   A    
C13   C15   A    
C81   H22   S    
C24   O8    S    
C9    C34   A    
C12   O25   A    
C48   N4    A    
C3    C66   A    
C88   H46   S    
C15   F4    S    
C90   H50   S    
C86   H39   S    
C38   H45   S    
C16   O28   A    
C14   F3    S    
C80   H18   S    
C7    C9    A    
C5    C8    A    
C60   C89   A    
C54   C55   A    
Cu1   O1    S    
C1    C20   S    
C55   O9    S    
C83   H29   S    
C5    C9    A    
C73   H60   S    
C77   H13   S    
C85   H36   S    
C74   H4    S    
C57   O10   S    
C6    C7    A    
C20   C27   A    
C10   C23   A    
C91   O22   S    
C76   O8    S    
C13   O21   S    
C31   C38   A    
C92   H54   S    
C11   O20   S    
C59   F9    S    
C88   H47   S    
C61   N2    A    
C82   H27   S    
C28   C30   A    
C90   H49   S    
C75   O7    S    
C29   C31   A    
C6    C13   A    
C30   C32   A    
C25   O6    S    
C81   H24   S    
C80   H20   S    
C26   O5    S    
C49   C53   A    
C46   F12   S    
C36   C38   A    
C33   C35   A    
C62   C71   A    
C17   O29   A    
C42   H23   S    
C2    C14   A    
C43   C46   A    
C8    C18   A    
C91   H51   S    
C64   O17   S    
C6    C10   A    
C74   H2    S    
Cu1   O26   S    
C70   O13   S    
C63   C72   A    
C19   O24   S    
C68   C70   A    
C63   O18   S    
C80   H19   S    
C55   C58   A    
C81   O13   S    
C79   O10   S    
C83   O15   S    
C70   C72   A    
Cu2   O12   S    
C47   F11   S    
C82   H25   S    
C82   H26   S    
C3    C16   S    
C69   O11   S    
