data_mof_unit_39111.cif
_audit_creation_date              2012-12-10T20:39:13-0500
_audit_creation_method            fapswitch 2.2
_symmetry_space_group_name_H-M    P1
_symmetry_Int_Tables_number       1
_space_group_crystal_system       triclinic
_cell_length_a                    18.951259
_cell_length_b                    10.72674
_cell_length_c                    9.874697
_cell_angle_alpha                 89.388528
_cell_angle_beta                  90.676433
_cell_angle_gamma                 90.319253
_cell_volume                      2007.09605742

loop_
_atom_site_label
_atom_site_type_symbol
_atom_type_description
_atom_site_fract_x
_atom_site_fract_y
_atom_site_fract_z
_atom_type_partial_charge
C1    C     C_R   0.503268 0.260304 0.500605 0.907608
C2    C     C_R   0.851755 0.590382 0.490733 -0.019927
C3    C     C_R   0.513625 0.062812 0.622406 0.079005
C4    C     C_R   0.365017 0.502498 0.499235 0.855537
C5    C     C_R   0.515883 0.129670 0.501813 -0.145768
C6    C     C_R   0.531673 0.068079 0.381657 -0.352956
C7    C     C_R   0.530719 0.937807 0.379109 0.451930
C8    C     C_R   0.512051 0.872165 0.498836 -0.210447
C9    C     C_R   0.508990 0.936344 0.620950 0.015847
C10   C     C_3   0.462063 0.931399 0.744416 0.331166
C11   C     C_3   0.467868 0.074454 0.742893 -0.524558
C12   C     C_R   0.288901 0.522034 0.496915 -0.024550
C13   C     C_R   0.439613 0.474363 0.070181 0.198888
C14   C     C_R   0.556999 0.540471 0.073752 -0.120848
C15   C     C_R   0.556905 0.543108 0.930391 0.426127
C16   C     C_R   0.501749 0.740218 0.499360 0.920202
C17   C     C_R   0.439536 0.474512 0.927963 0.117734
C18   C     C_3   0.396095 0.358592 0.923240 -0.486375
C19   C     C_3   0.396541 0.358102 0.077139 -0.483366
C20   C     C_R   0.634623 0.500463 0.500679 0.857496
C21   C     C_R   0.252053 0.530734 0.618634 -0.214218
C22   C     C_R   0.181065 0.561832 0.616869 -0.165916
C23   C     C_R   0.927511 0.613115 0.489146 0.282260
C24   C     C_R   0.145777 0.583426 0.493179 0.092236
C25   C     C_R   0.182573 0.573708 0.371367 -0.164688
C26   C     C_R   0.253625 0.543178 0.373214 -0.197759
C27   C     C_3   0.384019 0.889031 0.714485 -0.397340
C28   C     C_3   0.359172 0.771253 0.788871 -0.896336
C29   C     C_3   0.498175 0.871185 0.872003 -0.317930
C30   C     C_3   0.577254 0.899738 0.890648 -0.892309
C31   C     C_3   0.832770 0.778953 0.641114 -0.379538
C32   C     C_3   0.776223 0.866070 0.695469 -0.889810
C33   C     C_3   0.733044 0.332341 0.353525 -0.425562
C34   C     C_R   0.069769 0.605941 0.490748 0.281683
C35   C     C_3   0.731852 0.350439 0.200032 -0.791157
C36   C     C_R   0.805601 0.663297 0.568047 0.171890
C37   C     C_R   0.734599 0.626857 0.572796 -0.174841
C38   C     C_R   0.710013 0.522570 0.501866 -0.104710
C39   C     C_R   0.756144 0.450504 0.424777 0.151987
C40   C     C_R   0.826825 0.486063 0.419908 -0.191978
H1    H     H_    0.278203 0.515427 0.715392 0.151541
H2    H     H_    0.156549 0.589310 0.274490 0.148897
H3    H     H_    0.281048 0.538163 0.277832 0.151177
H4    H     H_    0.696999 0.680751 0.628819 0.167058
H5    H     H_    0.863326 0.429239 0.363913 0.160740
H6    H     H_    0.540543 0.120279 0.288769 0.167551
H7    H     H_    0.556112 0.936167 0.188586 0.324434
H8    H     H_    0.360794 0.784865 0.900161 0.247731
H9    H     H_    0.303726 0.750657 0.758973 0.256951
H10   H     H_    0.391827 0.690323 0.762641 0.295821
H11   H     H_    0.346747 0.963315 0.744109 0.205435
H12   H     H_    0.418510 0.125172 0.716301 0.170739
H13   H     H_    0.375628 0.875364 0.604032 0.197585
H14   H     H_    0.607410 0.872910 0.799934 0.262343
H15   H     H_    0.586745 0.999692 0.911995 0.249388
H16   H     H_    0.598176 0.844648 0.977879 0.276851
H17   H     H_    0.470129 0.901753 0.964008 0.205424
H18   H     H_    0.492986 0.768634 0.867000 0.219387
H19   H     H_    0.596084 0.642391 0.789290 0.363647
H20   H     H_    0.739184 0.894972 0.613059 0.259396
H21   H     H_    0.746787 0.820016 0.778948 0.272362
H22   H     H_    0.801899 0.951095 0.736759 0.259094
H23   H     H_    0.497072 0.115019 0.830017 0.198337
H24   H     H_    0.866983 0.749418 0.727551 0.228217
H25   H     H_    0.865504 0.834634 0.569705 0.209876
H26   H     H_    0.712468 0.263832 0.151111 0.241312
H27   H     H_    0.696145 0.427999 0.170975 0.269470
H28   H     H_    0.785665 0.371489 0.162476 0.253935
H29   H     H_    0.770115 0.255875 0.380752 0.204639
H30   H     H_    0.680068 0.300412 0.386411 0.204307
H31   H     H_    0.602633 0.574161 0.129234 0.181191
H32   H     H_    0.342939 0.374948 0.878102 0.197043
H33   H     H_    0.425250 0.279856 0.880380 0.210344
H34   H     H_    0.343623 0.374552 0.120621 0.195913
H35   H     H_    0.153793 0.567379 0.712342 0.150059
H36   H     H_    0.426040 0.278514 0.122956 0.211815
N1    N     N_R   0.033027 0.600935 0.372262 -0.180050
N2    N     N_R   0.963039 0.603861 0.371496 -0.166914
N3    N     N_R   0.964114 0.621638 0.607281 -0.180139
N4    N     N_R   0.034117 0.618524 0.608034 -0.180554
N5    N     N_R   0.499530 0.499140 0.142800 -0.139205
N6    N     N_R   0.499530 0.499180 0.857150 -0.165484
O1    O     O_R   0.500010 0.316790 0.614690 -0.608494
O2    O     O_3   0.614453 0.594822 0.868090 -0.770042
O3    O     O_R   0.500000 0.316760 0.385350 -0.625175
O4    O     O_R   0.398140 0.500000 0.614710 -0.628130
O5    O     O_R   0.398130 0.499970 0.385370 -0.618263
O6    O     O_R   0.500000 0.683240 0.614650 -0.661341
O7    O     O_R   0.499990 0.683210 0.385310 -0.542122
O8    O     O_R   0.601870 0.500030 0.614630 -0.600000
O9    O     O_R   0.601860 0.500000 0.385290 -0.613181
O10   O     O_3   0.544231 0.874961 0.260809 -0.756433
Zn1   Zn    Zn3+2 0.500000 0.500020 0.653130 0.931869
Zn2   Zn    Zn3+2 0.500000 0.499980 0.346870 0.964934

loop_
_geom_bond_atom_site_label_1
_geom_bond_atom_site_label_2
_ccdc_geom_bond_type
C10   C27   S    
H7    O10   S    
C7    C8    A    
C4    O5    A    
N1    N2    A    
C30   H14   S    
C29   C30   S    
C1    C5    S    
C36   C37   A    
C32   H21   S    
C18   C19   S    
C11   H23   S    
C34   N1    A    
C5    C6    A    
C4    O4    A    
O1    Zn1   S    
O5    Zn2   S    
C13   N5    A    
C17   N6    A    
C14   H31   S    
O7    Zn2   S    
C11   H12   S    
C34   N4    A    
C28   H10   S    
C28   H8    S    
C8    C9    A    
C4    C12   S    
C9    C10   S    
C33   H29   S    
C16   O7    A    
C8    C16   S    
N6    Zn1   S    
C21   C22   A    
C18   H32   S    
C22   H35   S    
C27   H11   S    
C26   H3    S    
C15   N6    A    
C1    O3    A    
C40   H5    S    
C20   O9    A    
C13   C19   S    
C24   C25   A    
C39   C40   A    
C35   H26   S    
C25   C26   A    
C30   H16   S    
C12   C21   A    
C24   C34   S    
C12   C26   A    
C28   H9    S    
C37   C38   A    
C3    C9    A    
O4    Zn1   S    
C20   C38   S    
O3    Zn2   S    
C31   C32   S    
C35   H27   S    
C17   C18   S    
C33   C39   S    
H19   O2    S    
C15   O2    S    
C33   H30   S    
C21   H1    S    
C29   H17   S    
C18   H33   S    
C22   C24   A    
C32   H20   S    
C2    C23   S    
O8    Zn1   S    
C2    C36   A    
C31   H25   S    
O6    Zn1   S    
C19   H36   S    
C6    H6    S    
C14   C15   A    
C31   H24   S    
C19   H34   S    
C3    C5    A    
C25   H2    S    
C27   H13   S    
C6    C7    A    
C1    O1    A    
C30   H15   S    
C13   C17   A    
C37   H4    S    
C32   H22   S    
O9    Zn2   S    
N5    Zn2   S    
C10   C29   S    
C38   C39   A    
C20   O8    A    
C35   H28   S    
C7    O10   S    
C33   C35   S    
C23   N2    A    
C3    C11   S    
C10   C11   S    
N3    N4    A    
C2    C40   A    
C29   H18   S    
C27   C28   S    
C16   O6    A    
C31   C36   S    
C14   N5    A    
C23   N3    A    
