data_mof_unit_48847.cif
_audit_creation_date              2012-12-10T17:19:26-0500
_audit_creation_method            fapswitch 2.2
_symmetry_space_group_name_H-M    P1
_symmetry_Int_Tables_number       1
_space_group_crystal_system       triclinic
_cell_length_a                    15.084912
_cell_length_b                    10.86499
_cell_length_c                    9.57144
_cell_angle_alpha                 90.443349
_cell_angle_beta                  89.958337
_cell_angle_gamma                 92.5755
_cell_volume                      1567.10265713

loop_
_atom_site_label
_atom_site_type_symbol
_atom_type_description
_atom_site_fract_x
_atom_site_fract_y
_atom_site_fract_z
_atom_type_partial_charge
C1    C     C_R   0.507181 0.263126 0.500224 0.805410
C2    C     C_R   0.907221 0.507269 0.625581 0.115897
C3    C     C_R   0.954105 0.467250 0.243289 0.392838
C4    C     C_R   0.046660 0.472766 0.245687 -0.214155
C5    C     C_R   0.092889 0.485925 0.371874 0.019245
C6    C     C_R   0.046291 0.495913 0.498698 0.060356
C7    C     C_R   0.092864 0.508076 0.626409 0.118405
C8    C     C_R   0.046347 0.519343 0.752212 -0.200166
C9    C     C_R   0.954048 0.519344 0.751679 -0.189369
C10   C     C_R   0.185314 0.487878 0.373174 -0.218699
C11   C     C_R   0.231739 0.499055 0.499861 -0.070538
C12   C     C_R   0.328661 0.499661 0.500037 0.817921
C13   C     C_R   0.185305 0.509136 0.626132 -0.245636
C14   C     C_R   0.560521 0.123529 0.753393 -0.155186
C15   C     C_R   0.551575 0.066038 0.882484 -0.156509
C16   C     C_R   0.508006 0.951144 0.891080 -0.141252
C17   C     C_R   0.481689 0.888522 0.769303 -0.161982
C18   C     C_R   0.499508 0.940018 0.635682 0.094226
C19   C     C_R   0.525943 0.065888 0.630323 0.096541
C20   C     C_R   0.515422 0.129412 0.502704 -0.120141
C21   C     C_R   0.500632 0.062882 0.378554 -0.211133
C22   C     C_R   0.493157 0.935705 0.380317 -0.212465
C23   C     C_R   0.495361 0.737680 0.501664 0.784357
C24   C     C_R   0.492293 0.872441 0.507342 -0.113320
C25   C     C_R   0.618584 0.663361 0.145434 -0.162111
C26   C     C_R   0.676688 0.742741 0.073567 -0.209658
C27   C     C_R   0.676746 0.742519 0.929651 -0.194159
C28   C     C_R   0.618557 0.663111 0.856791 -0.155987
C29   C     C_R   0.558274 0.580284 0.925692 0.194467
C30   C     C_R   0.558265 0.580312 0.075444 0.206829
C31   C     C_R   0.444796 0.423332 0.073371 -0.075114
C32   C     C_R   0.444821 0.423364 0.925284 -0.071348
C33   C     C_R   0.671341 0.500378 0.499893 0.786874
C34   C     C_R   0.815036 0.508161 0.625401 -0.243807
C35   C     C_R   0.768201 0.498995 0.499344 -0.068586
C36   C     C_R   0.813800 0.487723 0.372451 -0.241160
C37   C     C_R   0.906400 0.481981 0.369964 -0.002536
C38   C     C_R   0.953230 0.494676 0.497938 0.019456
Cu1   Cu    Cu3+1 0.499990 0.499990 0.640660 0.920808
Cu2   Cu    Cu3+1 0.500010 0.500010 0.359340 0.928964
H1    H     H_    0.779908 0.517411 0.723565 0.161190
H2    H     H_    0.596193 0.212000 0.751309 0.163353
H3    H     H_    0.576075 0.112316 0.976285 0.136941
H4    H     H_    0.496172 0.909175 0.992027 0.138668
H5    H     H_    0.444552 0.802423 0.783337 0.169376
H6    H     H_    0.486392 0.886972 0.281440 0.163969
H7    H     H_    0.399595 0.360542 0.128321 0.136212
H8    H     H_    0.624196 0.671536 0.255547 0.203168
H9    H     H_    0.721923 0.805106 0.130299 0.156807
H10   H     H_    0.721840 0.804925 0.873698 0.157208
H11   H     H_    0.623474 0.671721 0.746775 0.203740
H12   H     H_    0.776262 0.485058 0.276266 0.168978
H13   H     H_    0.399665 0.360551 0.869283 0.145065
H14   H     H_    0.082532 0.463541 0.148201 0.156931
H15   H     H_    0.220972 0.479683 0.275360 0.151947
H16   H     H_    0.220956 0.518284 0.724272 0.152333
H17   H     H_    0.081343 0.528817 0.850843 0.150423
H18   H     H_    0.919183 0.529408 0.849764 0.197194
H19   H     H_    0.494638 0.109072 0.279306 0.161795
N1    N     N_R   0.500860 0.501210 0.147910 -0.198372
N2    N     N_R   0.500890 0.501290 0.852040 -0.204208
O1    O     O_R   0.499990 0.319640 0.618810 -0.586917
O2    O     O_R   0.500000 0.319660 0.381240 -0.580936
O3    O     O_R   0.370250 0.499960 0.618800 -0.585322
O4    O     O_R   0.370260 0.499980 0.381230 -0.583158
O5    O     O_R   0.500000 0.680340 0.618760 -0.613826
O6    O     O_R   0.500010 0.680360 0.381190 -0.598926
O7    O     O_R   0.629740 0.500020 0.618770 -0.606596
O8    O     O_R   0.629750 0.500040 0.381200 -0.603236
O9    O     O_3   0.913692 0.447383 0.115407 -0.757905
H20   H     H_    0.858541 0.396244 0.129325 0.316526

loop_
_geom_bond_atom_site_label_1
_geom_bond_atom_site_label_2
_ccdc_geom_bond_type
C31   N1    A    
C2    C9    A    
C7    C13   A    
C25   C30   A    
C23   C24   S    
C6    C38   A    
Cu1   O7    S    
C21   H19   S    
O9    H20   S    
C10   H15   S    
C8    H17   S    
C12   O4    A    
C16   H4    S    
C19   C20   A    
C36   H12   S    
C27   H10   S    
C33   O8    A    
C11   C12   S    
C13   H16   S    
C4    H14   S    
C1    O1    A    
C2    C34   A    
C17   C18   A    
C25   C26   A    
C15   H3    S    
C5    C10   A    
C31   H7    S    
C21   C22   A    
Cu1   O3    S    
C11   C13   A    
C25   H8    S    
C26   C27   A    
C29   C30   A    
C34   H1    S    
C18   C24   A    
C4    C5    A    
C1    O2    A    
C23   O5    A    
C28   C29   A    
C33   C35   S    
C37   C38   A    
C17   H5    S    
C32   N2    A    
C34   C35   A    
C6    C7    A    
C29   N2    A    
Cu2   O4    S    
C5    C6    A    
C12   O3    A    
Cu1   O5    S    
C22   C24   A    
Cu2   O2    S    
C10   C11   A    
C15   C16   A    
Cu2   N1    S    
C32   H13   S    
C7    C8    A    
C3    O9    S    
C16   C17   A    
C20   C21   A    
C3    C37   A    
C36   C37   A    
C9    H18   S    
Cu2   O8    S    
C26   H9    S    
C23   O6    A    
Cu1   Cu2   S    
Cu1   O1    S    
C2    C38   A    
C14   C15   A    
C18   C19   A    
C1    C20   S    
C22   H6    S    
C28   H11   S    
Cu1   N2    S    
C14   H2    S    
C14   C19   A    
C31   C32   A    
C3    C4    A    
C35   C36   A    
C33   O7    A    
C8    C9    A    
C27   C28   A    
Cu2   O6    S    
C30   N1    A    
