data_mof_unit_23873.cif
_audit_creation_date              2012-12-10T17:17:27-0500
_audit_creation_method            fapswitch 2.2
_symmetry_space_group_name_H-M    P1
_symmetry_Int_Tables_number       1
_space_group_crystal_system       triclinic
_cell_length_a                    10.159178
_cell_length_b                    10.657682
_cell_length_c                    12.629079
_cell_angle_alpha                 90.842296
_cell_angle_beta                  109.774991
_cell_angle_gamma                 96.720828
_cell_volume                      1275.75397732

loop_
_atom_site_label
_atom_site_type_symbol
_atom_type_description
_atom_site_fract_x
_atom_site_fract_y
_atom_site_fract_z
_atom_type_partial_charge
C1    C     C_R   0.055778 0.733668 0.498445 0.910744
C2    C     C_R   0.229010 0.566914 0.828888 -0.088621
C3    C     C_2   0.097851 0.868823 0.514512 -0.385280
C4    C     C_R   0.139944 0.525204 0.711777 0.852221
C5    C     C_2   0.025264 0.937546 0.558712 -0.151546
C6    C     C_2   0.932735 0.135508 0.536103 -0.400373
C7    C     C_2   0.043866 0.072235 0.555626 -0.151272
C8    C     C_2   0.426975 0.528913 0.482628 0.369294
C9    C     C_2   0.565490 0.495020 0.478150 0.467774
C10   C     C_R   0.950754 0.267189 0.512308 0.943913
C11   C     C_R   0.865738 0.489018 0.287898 0.970864
C12   C     C_R   0.456256 0.578777 0.982935 0.113997
C13   C     C_R   0.760792 0.418892 0.978253 -0.279902
C14   C     C_R   0.795340 0.490064 0.168315 -0.250282
C15   C     C_R   0.164424 0.596912 0.906351 -0.199833
C16   C     C_R   0.243877 0.620010 0.019986 -0.206594
C17   C     C_R   0.386736 0.606235 0.058921 -0.156489
C18   C     C_3   0.052629 0.365935 0.111425 0.118322
C19   C     C_3   0.149805 0.263773 0.149098 -0.342899
C20   C     C_3   0.290317 0.300310 0.131409 -0.930987
C21   C     C_3   0.561157 0.290798 0.413363 -0.308207
C22   C     C_3   0.407763 0.730493 0.424391 0.126173
C23   C     C_R   0.378924 0.569671 0.866376 0.018434
C24   C     C_3   0.547415 0.814017 0.440682 -0.384296
C25   C     C_3   0.525812 0.921432 0.360252 -0.985295
C26   C     C_3   0.518649 0.309839 0.708504 0.087414
C27   C     C_3   0.604279 0.198059 0.728097 -0.368864
C28   C     C_3   0.513432 0.076359 0.667409 -0.970063
C29   C     C_3   0.706525 0.783531 0.161725 0.062386
C30   C     C_3   0.827259 0.862348 0.254174 -0.345417
C31   C     C_3   0.849930 0.998985 0.222773 -0.908904
C32   C     C_R   0.596168 0.546792 0.018499 -0.123396
C33   C     C_R   0.643129 0.484083 0.940515 -0.049924
C34   C     C_R   0.570672 0.487902 0.826075 0.471458
C35   C     C_R   0.454288 0.552740 0.792350 -0.312612
C36   C     C_R   0.688437 0.567199 0.129633 0.392271
C37   C     C_R   0.832972 0.415446 0.093089 0.370398
H1    H     H_    0.939656 0.894688 0.585152 0.185820
H2    H     H_    0.421459 0.580146 0.706878 0.239968
H3    H     H_    0.146104 0.117484 0.556643 0.183324
H4    H     H_    0.106388 0.456396 0.160263 0.146743
H5    H     H_    0.032669 0.378090 0.020111 0.128601
H6    H     H_    0.169761 0.248810 0.239839 0.224327
H7    H     H_    0.097298 0.173318 0.100072 0.220436
H8    H     H_    0.273031 0.316895 0.041322 0.268351
H9    H     H_    0.356662 0.222709 0.156617 0.263874
H10   H     H_    0.347232 0.387302 0.183937 0.292499
H11   H     H_    0.452812 0.239784 0.378460 0.134330
H12   H     H_    0.830799 0.090010 0.535190 0.149193
H13   H     H_    0.606749 0.276058 0.504883 0.168372
H14   H     H_    0.623849 0.245383 0.370510 0.201324
H15   H     H_    0.327642 0.793228 0.422992 0.172804
H16   H     H_    0.368906 0.678529 0.339717 0.105249
H17   H     H_    0.593216 0.855142 0.528781 0.226423
H18   H     H_    0.623335 0.756123 0.424481 0.241154
H19   H     H_    0.480822 0.882522 0.271474 0.271574
H20   H     H_    0.628377 0.979740 0.372833 0.263863
H21   H     H_    0.453351 0.983383 0.376659 0.252670
H22   H     H_    0.462538 0.313590 0.617121 0.137328
H23   H     H_    0.182332 0.912597 0.487457 0.144216
H24   H     H_    0.435352 0.290814 0.747935 0.137520
H25   H     H_    0.694735 0.218438 0.697604 0.233083
H26   H     H_    0.646501 0.183500 0.819756 0.221944
H27   H     H_    0.422487 0.053948 0.696968 0.272495
H28   H     H_    0.577633 0.996736 0.685519 0.270476
H29   H     H_    0.473491 0.086137 0.574881 0.252821
H30   H     H_    0.609941 0.830845 0.142197 0.166188
H31   H     H_    0.735121 0.781225 0.083721 0.123878
H32   H     H_    0.803719 0.861904 0.333848 0.252612
H33   H     H_    0.925745 0.819111 0.268280 0.199738
H34   H     H_    0.683526 0.614810 0.607936 0.156678
H35   H     H_    0.874549 0.002038 0.143517 0.263745
H36   H     H_    0.939746 0.052515 0.291080 0.275789
H37   H     H_    0.754095 0.045348 0.211714 0.265227
H38   H     H_    0.321599 0.356396 0.430548 0.118887
H39   H     H_    0.792402 0.365279 0.919625 0.188132
H40   H     H_    0.051581 0.599094 0.879664 0.160367
H41   H     H_    0.437717 0.610204 0.149098 0.196109
H42   H     H_    0.192665 0.641452 0.079337 0.128768
N1    N     N_2   0.313640 0.446500 0.454900 -0.231884
N2    N     N_2   0.686360 0.553430 0.545150 -0.209947
O1    O     O_R   0.936910 0.692950 0.509080 -0.622496
O2    O     O_3   0.562329 0.419183 0.386990 -0.593439
O3    O     O_3   0.420574 0.651586 0.516023 -0.654458
O4    O     O_3   0.610222 0.425176 0.747227 -0.672345
O5    O     O_3   0.678812 0.662883 0.201435 -0.638497
O6    O     O_R   0.138320 0.658600 0.480130 -0.584513
O7    O     O_R   0.002900 0.525670 0.675280 -0.610371
O8    O     O_R   0.204310 0.491320 0.646330 -0.619886
O9    O     O_R   0.861680 0.341400 0.519870 -0.604381
O10   O     O_R   0.063090 0.307050 0.490920 -0.613774
O11   O     O_R   0.795690 0.508680 0.353670 -0.512410
O12   O     O_R   0.997100 0.474330 0.324720 -0.612492
O13   O     O_3   0.926358 0.327904 0.132495 -0.627386
Zn1   Zn    Zn3+2 0.865520 0.522940 0.519330 0.982402
Zn2   Zn    Zn3+2 0.134480 0.477060 0.480670 0.944372

loop_
_geom_bond_atom_site_label_1
_geom_bond_atom_site_label_2
_ccdc_geom_bond_type
C1    O6    A    
C28   H29   S    
C19   C20   S    
C25   H19   S    
O9    Zn1   S    
C24   H18   S    
C12   C23   A    
C26   C27   S    
C32   C36   A    
C26   H24   S    
C18   C19   S    
C18   H5    S    
C14   C36   A    
C30   C31   S    
N2    Zn1   S    
C11   C14   S    
C31   H36   S    
C24   H17   S    
C15   C16   A    
C34   C35   A    
O10   Zn2   S    
C29   H30   S    
C11   O11   A    
C21   O2    S    
C8    C9    S    
C12   C17   A    
C7    H3    S    
N1    Zn2   S    
C26   H22   S    
C13   C37   A    
C20   H8    S    
C21   H11   S    
C3    H23   S    
C11   O12   A    
O7    Zn1   S    
C5    H1    S    
C12   C32   A    
C25   H20   S    
C21   H13   S    
C30   H33   S    
C19   H6    S    
C22   H16   S    
C24   C25   S    
C18   H4    S    
C5    C7    S    
C16   C17   A    
C31   H37   S    
C36   O5    S    
C1    O1    A    
O11   Zn1   S    
C1    C3    S    
C34   O4    S    
C22   O3    S    
C35   H2    S    
C13   C33   A    
C29   C30   S    
C27   H25   S    
C29   H31   S    
C13   H39   S    
O6    Zn2   S    
C2    C23   A    
C33   C34   A    
C2    C15   A    
C29   O5    S    
C27   H26   S    
C9    O2    S    
C28   H27   S    
C31   H35   S    
C10   O10   A    
O12   Zn2   S    
C23   C35   A    
C18   O13   S    
C22   C24   S    
C25   H21   S    
C21   H14   S    
C30   H32   S    
C19   H7    S    
C22   H15   S    
C4    O8    A    
H38   N1    S    
O1    Zn1   S    
C8    O3    S    
C3    C5    D    
C6    C10   S    
C6    C7    D    
C4    O7    A    
C16   H42   S    
C32   C33   A    
O8    Zn2   S    
C28   H28   S    
C14   C37   A    
C15   H40   S    
C26   O4    S    
C2    C4    S    
C17   H41   S    
C37   O13   S    
C6    H12   S    
C20   H10   S    
C10   O9    A    
C27   C28   S    
C8    N1    D    
C20   H9    S    
C9    N2    D    
H34   N2    S    
