data_mof_unit_7474.cif
_audit_creation_date              2012-12-10T17:33:59-0500
_audit_creation_method            fapswitch 2.2
_symmetry_space_group_name_H-M    P1
_symmetry_Int_Tables_number       1
_space_group_crystal_system       triclinic
_cell_length_a                    10.783759
_cell_length_b                    12.066022
_cell_length_c                    12.626471
_cell_angle_alpha                 94.898274
_cell_angle_beta                  92.672957
_cell_angle_gamma                 85.631334
_cell_volume                      1630.83112056

loop_
_atom_site_label
_atom_site_type_symbol
_atom_type_description
_atom_site_fract_x
_atom_site_fract_y
_atom_site_fract_z
_atom_type_partial_charge
C1    C     C_R   0.496072 0.523822 0.702506 0.861215
C2    C     C_R   0.561140 0.450418 0.980471 0.081776
C3    C     C_R   0.583961 0.555269 0.035482 0.037138
C4    C     C_R   0.741719 0.501125 0.508754 0.810082
C5    C     C_R   0.606250 0.557742 0.146713 -0.076490
C6    C     C_R   0.605545 0.356865 0.143098 -0.125291
C7    C     C_R   0.582823 0.350143 0.032008 -0.075975
C8    C     C_R   0.410261 0.950113 0.383044 -0.275896
C9    C     C_R   0.413104 0.836592 0.394557 0.147999
C10   C     C_R   0.535756 0.861095 0.555559 -0.016411
C11   C     C_R   0.532837 0.977751 0.545880 0.072885
C12   C     C_3   0.119766 0.501542 0.502150 -0.083677
C13   C     C_R   0.473188 0.021300 0.455822 0.020009
C14   C     C_R   0.476001 0.135811 0.440216 0.082635
C15   C     C_R   0.578666 0.167114 0.609075 0.028276
C16   C     C_R   0.531713 0.477633 0.304903 1.002713
C17   C     C_R   0.587662 0.052022 0.622596 -0.283751
C18   C     C_R   0.257378 0.500834 0.501997 0.916874
C19   C     C_3   0.942086 0.437181 0.604049 -0.184227
C20   C     C_3   0.084798 0.443408 0.602238 -0.452665
C21   C     C_3   0.920474 0.453922 0.399874 -0.424945
C22   C     C_3   0.915930 0.623199 0.528934 -0.456671
C23   C     C_3   0.064519 0.437093 0.395987 -0.154068
C24   C     C_3   0.877837 0.501495 0.510988 0.018775
C25   C     C_2   0.907195 0.318460 0.609635 0.973154
C26   C     C_2   0.084131 0.712857 0.449170 1.013096
C27   C     C_2   0.111726 0.478877 0.294808 0.978478
C28   C     C_2   0.673433 0.647241 0.206958 0.899024
C29   C     C_2   0.672707 0.261572 0.196812 1.027368
C30   C     C_2   0.603428 0.764483 0.027744 0.999748
C31   C     C_2   0.577541 0.239224 0.971267 0.960872
C32   C     C_2   0.478357 0.751953 0.823245 0.963754
C33   C     C_2   0.439084 0.172778 0.333713 0.933589
C34   C     C_3   0.057428 0.625390 0.522309 -0.208981
C35   C     C_2   0.348099 0.770726 0.307078 0.973345
C36   C     C_2   0.095877 0.310373 0.382754 1.012892
C37   C     C_R   0.584476 0.462679 0.198469 -0.262345
C38   C     C_R   0.507158 0.541620 0.818972 -0.136101
C39   C     C_R   0.570487 0.653811 0.979105 -0.120868
C40   C     C_R   0.521905 0.647544 0.873186 -0.111848
C41   C     C_R   0.521457 0.446403 0.874180 -0.194917
H1    H     H_    0.911315 0.482914 0.679882 0.143065
H2    H     H_    0.502261 0.090451 0.954971 0.363567
H3    H     H_    0.510890 0.909159 0.796329 0.336178
H4    H     H_    0.501513 0.367384 0.832491 0.175276
H5    H     H_    0.323849 0.266914 0.242776 0.363762
H6    H     H_    0.617102 0.223991 0.670470 0.186956
H7    H     H_    0.355509 0.982870 0.317122 0.196376
H8    H     H_    0.295983 0.754294 0.151110 0.366005
H9    H     H_    0.586713 0.825001 0.621475 0.150021
H10   H     H_    0.116401 0.492874 0.675787 0.164566
H11   H     H_    0.135049 0.361036 0.610760 0.238959
H12   H     H_    0.634743 0.022106 0.693393 0.188908
H13   H     H_    0.876570 0.375166 0.376466 0.241751
H14   H     H_    0.078063 0.167701 0.288736 0.364956
H15   H     H_    0.866237 0.675539 0.469387 0.221683
H16   H     H_    0.886443 0.661011 0.608259 0.183214
H17   H     H_    0.092915 0.658588 0.602239 0.171785
H18   H     H_    0.845702 0.205993 0.700389 0.357060
H19   H     H_    0.146488 0.864908 0.438460 0.335493
H20   H     H_    0.880329 0.512017 0.341816 0.238791
H21   H     H_    0.073170 0.536166 0.150245 0.373392
H22   H     H_    0.837731 0.713101 0.241106 0.389873
H23   H     H_    0.750953 0.202608 0.331211 0.367040
H24   H     H_    0.543994 0.918274 0.088363 0.397326
N1    N     N_R   0.523380 0.207800 0.519350 -0.136455
N2    N     N_R   0.476620 0.792180 0.480650 -0.117766
O1    O     O_R   0.506240 0.421700 0.658830 -0.636132
O2    O     O_R   0.862517 0.287798 0.704298 -0.782263
O3    O     O_2   0.045549 0.706913 0.356498 -0.603325
O4    O     O_R   0.143213 0.806954 0.491655 -0.774963
O5    O     O_2   0.223498 0.474819 0.281066 -0.606963
O6    O     O_R   0.029111 0.513024 0.213162 -0.712118
O7    O     O_2   0.617090 0.724308 0.257479 -0.609390
O8    O     O_R   0.802261 0.645871 0.200380 -0.724673
O9    O     O_2   0.706260 0.174869 0.145375 -0.543569
O10   O     O_R   0.705353 0.272433 0.305181 -0.807281
O11   O     O_2   0.712494 0.786410 0.035113 -0.545308
O12   O     O_R   0.491240 0.609310 0.646410 -0.612036
O13   O     O_R   0.509726 0.845779 0.057922 -0.723862
O14   O     O_2   0.644967 0.214027 0.896397 -0.616940
O15   O     O_R   0.496908 0.163253 0.001547 -0.740822
O16   O     O_2   0.373345 0.761216 0.782415 -0.585726
O17   O     O_R   0.554917 0.840697 0.826218 -0.806664
O18   O     O_2   0.487684 0.124477 0.255445 -0.600742
O19   O     O_R   0.342519 0.253923 0.320404 -0.737777
O20   O     O_2   0.292845 0.690740 0.324138 -0.553785
O21   O     O_R   0.343767 0.804904 0.203870 -0.748470
O22   O     O_2   0.155359 0.259827 0.450332 -0.576049
O23   O     O_R   0.692710 0.406190 0.506230 -0.593750
O24   O     O_R   0.053228 0.250543 0.289876 -0.776885
O25   O     O_R   0.677700 0.593810 0.493810 -0.641774
O26   O     O_R   0.508760 0.390690 0.353590 -0.556190
O27   O     O_R   0.493760 0.578300 0.341170 -0.571742
O28   O     O_R   0.322300 0.406190 0.506190 -0.555696
O29   O     O_R   0.307290 0.593810 0.493770 -0.565450
O30   O     O_2   0.918297 0.249657 0.533273 -0.598765
Zn1   Zn    Zn3+2 0.510020 0.374730 0.508290 1.033975
Zn2   Zn    Zn3+2 0.489980 0.625270 0.491710 1.042787

loop_
_geom_bond_atom_site_label_1
_geom_bond_atom_site_label_2
_ccdc_geom_bond_type
C36   O22   D    
C8    C13   A    
C26   O4    S    
C5    C37   A    
C18   O29   A    
H23   O10   S    
C19   C20   S    
C15   H6    S    
C28   O7    D    
C22   H16   S    
C9    N2    A    
O28   Zn1   S    
C29   O9    D    
C10   N2    A    
C12   C23   S    
C16   O26   A    
C31   O15   S    
O12   Zn2   S    
C20   H10   S    
C21   H13   S    
C4    C24   S    
C2    C41   A    
O29   Zn2   S    
C1    O1    A    
C33   O18   D    
H14   O24   S    
C35   O20   D    
C26   C34   S    
C2    C7    A    
C8    C9    A    
H21   O6    S    
C23   C27   S    
C21   H20   S    
C19   H1    S    
N2    Zn2   S    
C16   C37   S    
C30   O13   S    
C3    C39   A    
H24   O13   S    
C13   C14   A    
C18   O28   A    
H8    O21   S    
C14   C33   S    
C32   O17   S    
C4    O23   A    
C22   C34   S    
C7    C31   S    
C38   C41   A    
C39   C40   A    
C22   H15   S    
H19   O4    S    
C3    C5    A    
C15   N1    A    
C33   O19   S    
C8    H7    S    
C5    C28   S    
C35   O21   S    
C12   C20   S    
C14   N1    A    
C6    C37   A    
C1    C38   S    
H18   O2    S    
C36   O24   S    
C25   O30   D    
C21   C23   S    
C26   O3    D    
C22   C24   S    
C25   O2    S    
C12   C34   S    
C10   H9    S    
C17   H12   S    
C9    C35   S    
C15   C17   A    
C32   O16   D    
C11   C17   A    
H3    O17   S    
C6    C7    A    
C16   O27   A    
C31   O14   D    
N1    Zn1   S    
C2    C3    A    
C20   H11   S    
C38   C40   A    
C11   C13   A    
H22   O8    S    
O27   Zn2   S    
C1    O12   A    
C30   C39   S    
C19   C24   S    
C32   C40   S    
C19   C25   S    
O1    Zn1   S    
C10   C11   A    
C30   O11   D    
C6    C29   S    
C29   O10   S    
C23   C36   S    
C21   C24   S    
C12   C18   S    
C34   H17   S    
H2    O15   S    
C41   H4    S    
H5    O19   S    
C27   O6    S    
C28   O8    S    
O26   Zn1   S    
O23   Zn1   S    
C27   O5    D    
O25   Zn2   S    
C4    O25   A    
