data_mof_unit_59066.cif
_audit_creation_date              2012-12-10T20:37:30-0500
_audit_creation_method            fapswitch 2.2
_symmetry_space_group_name_H-M    P1
_symmetry_Int_Tables_number       1
_space_group_crystal_system       triclinic
_cell_length_a                    15.723616
_cell_length_b                    10.689357
_cell_length_c                    9.863615
_cell_angle_alpha                 90.522076
_cell_angle_beta                  90.020937
_cell_angle_gamma                 90.218934
_cell_volume                      1657.74943411

loop_
_atom_site_label
_atom_site_type_symbol
_atom_type_description
_atom_site_fract_x
_atom_site_fract_y
_atom_site_fract_z
_atom_type_partial_charge
C1    C     C_R   0.499607 0.260291 0.499267 0.909055
C2    C     C_R   0.504367 0.128728 0.495536 -0.083904
C3    C     C_R   0.471083 0.063125 0.384213 -0.190395
C4    C     C_R   0.337973 0.499964 0.499968 0.917047
C5    C     C_R   0.470260 0.934216 0.386376 -0.228508
C6    C     C_R   0.504302 0.871936 0.498555 -0.159666
C7    C     C_R   0.548975 0.938389 0.598215 0.132360
C8    C     C_3   0.546113 0.935122 0.750345 0.333201
C9    C     C_3   0.542627 0.077545 0.747161 -0.545872
C10   C     C_R   0.445773 0.423400 0.070495 0.099246
C11   C     C_R   0.560188 0.563703 0.072575 -0.112128
C12   C     C_3   0.083280 0.491539 0.498580 0.102837
C13   C     C_R   0.560547 0.562755 0.928475 -0.124067
C14   C     C_R   0.445688 0.423587 0.927872 0.098990
C15   C     C_3   0.350793 0.423262 0.921222 -0.318039
C16   C     C_R   0.500436 0.739904 0.500434 0.882381
C17   C     C_3   0.350848 0.422981 0.076951 -0.321799
C18   C     C_R   0.662060 0.499968 0.500028 0.905653
C19   C     C_3   0.971312 0.416748 0.598295 -0.303369
C20   C     C_3   0.028019 0.374551 0.478258 0.019994
C21   C     C_1   0.249207 0.497625 0.499885 -0.080951
C22   C     C_1   0.750869 0.497191 0.499833 -0.141678
C23   C     C_3   0.973125 0.606147 0.517119 0.552187
C24   C     C_3   0.028142 0.534730 0.619463 -0.245470
C25   C     C_2   0.057506 0.242712 0.456855 0.413824
C26   C     C_3   0.619409 0.871142 0.943676 0.091434
C27   C     C_3   0.638274 0.990858 0.025386 -0.376136
C28   C     C_3   0.659166 0.961147 0.172770 -0.895921
C29   C     C_2   0.317018 0.307260 0.851528 0.512396
C30   C     C_2   0.317216 0.306669 0.143765 0.507971
C31   C     C_2   0.943260 0.398333 0.243272 0.387707
C32   C     C_3   0.002790 0.816079 0.560607 0.085498
C33   C     C_3   0.996097 0.864039 0.706790 -0.365916
C34   C     C_3   0.916888 0.490716 0.497118 0.103717
C35   C     C_3   0.062924 0.964372 0.737149 -0.893179
C36   C     C_3   0.029016 0.565342 0.396477 -0.361885
C37   C     C_3   0.972506 0.447652 0.378173 -0.069477
C38   C     C_1   0.174015 0.494788 0.499513 0.078915
C39   C     C_1   0.826076 0.494134 0.498893 0.068296
C40   C     C_R   0.547490 0.065988 0.596940 0.050117
H1    H     H_    0.480793 0.115560 0.782894 0.166370
H2    H     H_    0.441349 0.110821 0.300244 0.161697
H3    H     H_    0.439881 0.883836 0.303574 0.169104
H4    H     H_    0.487646 0.887915 0.788772 0.070418
H5    H     H_    0.011022 0.168647 0.441875 0.031767
H6    H     H_    0.668910 0.801169 0.968655 0.167471
H7    H     H_    0.557390 0.830228 0.975719 0.107451
H8    H     H_    0.693135 0.041172 0.979930 0.247174
H9    H     H_    0.581786 0.052931 0.023418 0.207812
H10   H     H_    0.608531 0.901891 0.217372 0.268741
H11   H     H_    0.664334 0.049362 0.232612 0.277825
H12   H     H_    0.599860 0.125615 0.788713 0.222712
H13   H     H_    0.720634 0.910641 0.178904 0.266285
H14   H     H_    0.345182 0.216581 0.870778 0.011130
H15   H     H_    0.345483 0.216133 0.122276 0.009092
H16   H     H_    0.989906 0.370947 0.167782 0.082925
H17   H     H_    0.992316 0.895631 0.490894 0.168903
H18   H     H_    0.068681 0.781742 0.540880 0.120216
H19   H     H_    0.931764 0.903979 0.723916 0.243985
H20   H     H_    0.004907 0.785034 0.777759 0.218668
H21   H     H_    0.127888 0.926092 0.722281 0.265717
H22   H     H_    0.056587 0.996531 0.844023 0.266822
H23   H     H_    0.607454 0.617824 0.127390 0.147039
H24   H     H_    0.053927 0.045900 0.669764 0.275111
H25   H     H_    0.608550 0.614474 0.874059 0.160979
H26   H     H_    0.325035 0.511557 0.878899 0.192617
H27   H     H_    0.325028 0.511055 0.121418 0.193406
H28   H     H_    0.946152 0.355428 0.679330 0.170274
H29   H     H_    0.053863 0.626841 0.315358 0.155382
H30   H     H_    0.053052 0.570915 0.717587 0.150640
N1    N     N_R   0.499430 0.499140 0.142800 -0.099406
N2    N     N_R   0.499430 0.499180 0.857150 -0.101271
O1    O     O_R   0.500010 0.316790 0.614690 -0.617400
O2    O     O_3   0.624414 0.891535 0.802194 -0.612530
O3    O     O_2   0.257576 0.314499 0.772472 -0.549507
O4    O     O_2   0.257819 0.313505 0.222994 -0.537201
O5    O     O_2   0.867607 0.388631 0.217589 -0.564987
O6    O     O_3   0.938052 0.726407 0.535834 -0.639456
O7    O     O_R   0.500000 0.316760 0.385350 -0.624880
O8    O     O_R   0.376780 0.500010 0.614650 -0.613625
O9    O     O_R   0.376770 0.499970 0.385310 -0.613332
O10   O     O_R   0.500000 0.683240 0.614650 -0.623579
O11   O     O_R   0.499990 0.683210 0.385310 -0.630301
O12   O     O_R   0.623230 0.500030 0.614690 -0.616005
O13   O     O_R   0.623220 0.499990 0.385350 -0.602371
O14   O     O_2   0.133159 0.217836 0.456343 -0.509050
Zn1   Zn    Zn3+2 0.500010 0.500020 0.653130 0.961484
Zn2   Zn    Zn3+2 0.499990 0.499980 0.346870 0.961218

loop_
_geom_bond_atom_site_label_1
_geom_bond_atom_site_label_2
_ccdc_geom_bond_type
C27   H8    S    
C3    H2    S    
C20   C37   S    
C34   C37   S    
C19   C20   S    
O12   Zn1   S    
C32   H18   S    
C24   H30   S    
C7    C8    S    
C13   H25   S    
C26   C27   S    
C36   C37   S    
C4    O8    A    
O8    Zn1   S    
C11   H23   S    
C5    C6    A    
C28   H11   S    
C11   N1    A    
C20   C25   S    
C10   C17   S    
O10   Zn1   S    
C1    C2    S    
O1    Zn1   S    
C33   C35   S    
C28   H10   S    
C4    O9    A    
C8    C9    S    
C18   O12   A    
C7    C40   A    
C15   C29   S    
C35   H24   S    
C31   H16   S    
C12   C36   S    
C10   N1    A    
O11   Zn2   S    
C5    H3    S    
C33   H19   S    
C17   C30   S    
C9    H12   S    
C32   H17   S    
C16   O10   A    
O7    Zn2   S    
C31   O5    D    
C17   H27   S    
C18   O13   A    
C21   C38   T    
C34   C39   S    
C10   C14   A    
C15   H26   S    
C6    C16   S    
C16   O11   A    
C31   C37   S    
C30   O4    D    
C23   C24   S    
C23   C34   S    
C12   C20   S    
C8    O2    S    
C19   H28   S    
C35   H21   S    
C26   H7    S    
C33   H20   S    
C1    O7    A    
C25   H5    S    
N2    Zn1   S    
C36   H29   S    
O13   Zn2   S    
C15   C17   S    
C18   C22   S    
C14   N2    A    
C8    H4    S    
C3    C5    A    
C19   C34   S    
C28   H13   S    
C6    C7    A    
C29   O3    D    
C13   N2    A    
C30   H15   S    
C12   C24   S    
C9    H1    S    
C1    O1    A    
C32   C33   S    
C2    C3    A    
C4    C21   S    
C11   C13   A    
C22   C39   T    
C25   O14   D    
C26   O2    S    
C19   C24   S    
C35   H22   S    
C9    C40   S    
C23   O6    S    
C12   C38   S    
O9    Zn2   S    
C26   H6    S    
C32   O6    S    
N1    Zn2   S    
C2    C40   A    
C23   C36   S    
C29   H14   S    
C27   C28   S    
C14   C15   S    
C27   H9    S    
