data_mof_unit_62509.cif
_audit_creation_date              2012-10-26T19:54:18-0400
_audit_creation_method            fapswitch 2.2
_symmetry_space_group_name_H-M    P1
_symmetry_Int_Tables_number       1
_space_group_crystal_system       triclinic
_cell_length_a                    15.876395
_cell_length_b                    15.997583
_cell_length_c                    14.780474
_cell_angle_alpha                 90.002116
_cell_angle_beta                  89.984648
_cell_angle_gamma                 89.988079
_cell_volume                      3754.00290283

loop_
_atom_site_label
_atom_site_type_symbol
_atom_type_description
_atom_site_fract_x
_atom_site_fract_y
_atom_site_fract_z
_atom_type_partial_charge
C1    C     C_R   0.500019 0.340852 0.499977 0.548309
C2    C     C_1   0.499987 0.748277 0.500029 -0.019830
C3    C     C_R   0.555941 0.552351 0.953004 -0.001358
C4    C     C_R   0.444058 0.447649 0.046996 -0.001358
C5    C     C_R   0.500700 0.500683 0.902824 -0.023600
C6    C     C_R   0.499300 0.499317 0.097176 -0.023600
C7    C     C_R   0.445121 0.448669 0.951194 -0.129494
C8    C     C_R   0.554879 0.551331 0.048806 -0.129494
C9    C     C_1   0.500199 0.500231 0.802598 0.141835
C10   C     C_1   0.499801 0.499769 0.197402 0.141834
C11   C     C_R   0.339375 0.499986 0.500005 0.548311
C12   C     C_R   0.499981 0.659148 0.500023 0.548309
C13   C     C_R   0.660625 0.500014 0.499995 0.548311
C14   C     C_3   0.971976 0.431198 0.542529 -0.099224
C15   C     C_3   0.028024 0.568802 0.457471 -0.099224
C16   C     C_3   0.028056 0.431564 0.456786 -0.097862
C17   C     C_3   0.971944 0.568436 0.543214 -0.097862
C18   C     C_1   0.249675 0.499991 0.500043 -0.020851
C19   C     C_1   0.750325 0.500009 0.499957 -0.020851
C20   C     C_3   0.027973 0.499637 0.585768 -0.097955
C21   C     C_3   0.972027 0.500363 0.414231 -0.097955
C22   C     C_3   0.082521 0.500002 0.500026 0.049027
C23   C     C_R   0.500000 0.912785 0.500015 0.037419
C24   C     C_3   0.917479 0.499998 0.499974 0.049027
C25   C     C_1   0.174147 0.499996 0.500045 -0.051485
C26   C     C_1   0.825853 0.500004 0.499955 -0.051485
C27   C     C_R   0.499532 0.956392 0.582124 -0.102564
C28   C     C_R   0.500468 0.043608 0.417876 -0.102564
C29   C     C_1   0.614455 0.607104 0.907486 0.197318
C30   C     C_1   0.385545 0.392896 0.092514 0.197319
C31   C     C_R   0.500000 0.087215 0.499985 0.037419
C32   C     C_R   0.500470 0.956365 0.417892 -0.104461
C33   C     C_R   0.499530 0.043635 0.582108 -0.104461
C34   C     C_1   0.499995 0.823327 0.500028 -0.054059
C35   C     C_1   0.500005 0.176673 0.499972 -0.054059
C36   C     C_1   0.500013 0.251723 0.499971 -0.019830
Cu1   Cu    Cu3+1 0.500020 0.500000 0.589220 1.008725
Cu2   Cu    Cu3+1 0.499980 0.500000 0.410780 1.008725
H1    H     H_    0.052448 0.375385 0.421310 0.117786
H2    H     H_    0.500834 0.076989 0.354090 0.120037
H3    H     H_    0.597754 0.591436 0.085907 0.119583
H4    H     H_    0.402246 0.408564 0.914093 0.119583
H5    H     H_    0.947552 0.624615 0.578690 0.117786
H6    H     H_    0.947618 0.374716 0.577441 0.114681
H7    H     H_    0.052382 0.625284 0.422559 0.114681
H8    H     H_    0.947706 0.500656 0.343822 0.116390
H9    H     H_    0.052294 0.499344 0.656177 0.116390
H10   H     H_    0.499165 0.077039 0.645883 0.116555
H11   H     H_    0.500835 0.922961 0.354117 0.116555
H12   H     H_    0.499166 0.923011 0.645910 0.120037
N1    N     N_1   0.500030 0.499980 0.276710 -0.186289
N2    N     N_1   0.499970 0.500020 0.723290 -0.186290
N3    N     N_1   0.661361 0.650996 0.870949 -0.290166
N4    N     N_1   0.338639 0.349004 0.129051 -0.290167
O1    O     O_R   0.500040 0.380310 0.575320 -0.493345
O2    O     O_R   0.499960 0.619690 0.424680 -0.493345
O3    O     O_R   0.500000 0.380310 0.424640 -0.485119
O4    O     O_R   0.500000 0.619690 0.575360 -0.485119
O5    O     O_R   0.379100 0.499990 0.575330 -0.493678
O6    O     O_R   0.620900 0.500010 0.424670 -0.493678
O7    O     O_R   0.379060 0.499990 0.424640 -0.484635
O8    O     O_R   0.620940 0.500010 0.575360 -0.484635

loop_
_geom_bond_atom_site_label_1
_geom_bond_atom_site_label_2
_ccdc_geom_bond_type
C6    C10   S    
C16   C22   S    
C17   H5    S    
C11   C18   S    
C5    C9    S    
C16   C21   S    
C23   C27   A    
Cu2   O3    S    
C5    C7    A    
C35   C36   T    
C27   H12   S    
C28   C32   A    
Cu2   O7    S    
C12   O4    A    
C23   C32   A    
C2    C34   T    
C31   C33   A    
Cu1   O8    S    
C1    O1    A    
C2    C12   S    
C13   O6    A    
C12   O2    A    
C27   C33   A    
C33   H10   S    
C30   N4    T    
C9    N2    T    
Cu1   Cu2   S    
C18   C25   T    
C29   N3    T    
C4    C7    A    
Cu2   O6    S    
C10   N1    T    
C4    C30   S    
C31   C35   S    
C4    C6    A    
C24   C26   S    
C3    C8    A    
C13   O8    A    
C1    O3    A    
C15   C22   S    
C14   C16   S    
C32   H11   S    
C7    H4    S    
C17   C24   S    
C13   C19   S    
C16   H1    S    
C20   H9    S    
C14   C20   S    
C15   C21   S    
C17   C20   S    
Cu2   O2    S    
C8    H3    S    
C19   C26   T    
C14   H6    S    
C21   H8    S    
C21   C24   S    
C14   C24   S    
C3    C29   S    
Cu1   N2    S    
C28   H2    S    
C23   C34   S    
C6    C8    A    
Cu2   N1    S    
C11   O7    A    
C15   C17   S    
C22   C25   S    
C28   C31   A    
C11   O5    A    
Cu1   O5    S    
Cu1   O4    S    
C1    C36   S    
C20   C22   S    
C3    C5    A    
C15   H7    S    
Cu1   O1    S    
