data_mof_unit_63066.cif
_audit_creation_date              2012-10-26T20:46:18-0400
_audit_creation_method            fapswitch 2.2
_symmetry_space_group_name_H-M    P1
_symmetry_Int_Tables_number       1
_space_group_crystal_system       triclinic
_cell_length_a                    24.331927
_cell_length_b                    24.551856
_cell_length_c                    16.198747
_cell_angle_alpha                 89.368393
_cell_angle_beta                  101.3555
_cell_angle_gamma                 89.780602
_cell_volume                      9486.84582411

loop_
_atom_site_label
_atom_site_type_symbol
_atom_type_description
_atom_site_fract_x
_atom_site_fract_y
_atom_site_fract_z
_atom_type_partial_charge
C1    C     C_R   0.424378 0.074789 0.487862 0.557284
C2    C     C_R   0.537246 0.000479 0.169969 -0.133511
C3    C     C_R   0.962753 0.499525 0.830029 -0.133511
C4    C     C_R   0.037241 0.500488 0.169964 -0.133505
C5    C     C_R   0.513915 0.006200 0.886319 -0.048599
C6    C     C_R   0.486090 0.993799 0.113682 -0.048603
C7    C     C_R   0.013909 0.506200 0.886317 -0.048604
C8    C     C_R   0.986085 0.493800 0.113681 -0.048598
C9    C     C_R   0.562521 0.010658 0.853771 -0.067608
C10   C     C_R   0.437481 0.989351 0.146226 -0.067589
C11   C     C_R   0.062519 0.510642 0.853775 -0.067582
C12   C     C_R   0.575620 0.925210 0.512138 0.557265
C13   C     C_R   0.937478 0.489342 0.146229 -0.067609
C14   C     C_R   0.560559 0.006718 0.767481 0.360375
C15   C     C_R   0.439441 0.993291 0.232515 0.360405
C16   C     C_R   0.060559 0.506703 0.767486 0.360407
C17   C     C_R   0.939441 0.493282 0.232519 0.360368
C18   C     C_2   0.518731 0.010604 0.978948 -0.109907
C19   C     C_2   0.481276 0.989392 0.021055 -0.109910
C20   C     C_2   0.018724 0.510606 0.978945 -0.109912
C21   C     C_2   0.981268 0.489396 0.021051 -0.109907
C22   C     C_R   0.381724 0.883003 0.481967 0.032109
C23   C     C_R   0.575647 0.074507 0.511390 0.568388
C24   C     C_R   0.618281 0.116989 0.518038 0.032162
C25   C     C_R   0.620204 0.884043 0.521090 0.017767
C26   C     C_R   0.379785 0.115949 0.478907 0.017739
C27   C     C_R   0.881709 0.383021 0.481959 0.032183
C28   C     C_R   0.118283 0.616990 0.518034 0.032122
C29   C     C_R   0.120214 0.384050 0.521093 0.017743
C30   C     C_R   0.879794 0.615955 0.478908 0.017770
C31   C     C_R   0.392417 0.836925 0.535581 0.202554
C32   C     C_R   0.607566 0.163096 0.464491 0.202565
C33   C     C_R   0.665350 0.893220 0.479960 0.209257
C34   C     C_R   0.424354 0.925491 0.488611 0.568318
C35   C     C_R   0.334666 0.106787 0.520100 0.209241
C36   C     C_R   0.892422 0.336905 0.535487 0.202570
C37   C     C_R   0.107590 0.663074 0.464435 0.202566
C38   C     C_R   0.165333 0.393211 0.479898 0.209239
C39   C     C_R   0.834643 0.606771 0.520025 0.209250
C40   C     C_R   0.353405 0.793809 0.526142 0.236978
C41   C     C_R   0.646585 0.206206 0.473937 0.236977
C42   C     C_R   0.707352 0.852693 0.483675 0.239321
C43   C     C_R   0.292658 0.147308 0.516384 0.239300
C44   C     C_R   0.853390 0.293806 0.526044 0.236980
C45   C     C_R   0.924380 0.574789 0.487862 0.557264
C46   C     C_R   0.146611 0.706184 0.473875 0.236973
C47   C     C_R   0.207340 0.352689 0.483612 0.239304
C48   C     C_R   0.792637 0.647294 0.516306 0.239326
C49   C     C_R   0.301967 0.800209 0.469530 -0.019035
C50   C     C_R   0.698049 0.199773 0.530477 -0.019039
C51   C     C_R   0.705728 0.806048 0.534317 -0.015757
C52   C     C_R   0.294245 0.193928 0.465676 -0.015758
C53   C     C_R   0.801921 0.300258 0.469525 -0.019062
C54   C     C_R   0.198053 0.699770 0.530471 -0.019052
C55   C     C_R   0.205752 0.306068 0.534319 -0.015757
C56   C     C_R   0.075622 0.425211 0.512138 0.557285
C57   C     C_R   0.794263 0.693943 0.465670 -0.015759
C58   C     C_R   0.291713 0.845973 0.416864 -0.093053
C59   C     C_R   0.708324 0.153979 0.583078 -0.093037
C60   C     C_R   0.663663 0.799829 0.580890 -0.089209
C61   C     C_R   0.336278 0.200128 0.419040 -0.089200
C62   C     C_R   0.791648 0.346061 0.416943 -0.093038
C63   C     C_R   0.208306 0.653999 0.583122 -0.093051
C64   C     C_R   0.163720 0.299870 0.580957 -0.089199
C65   C     C_R   0.836334 0.700168 0.419110 -0.089205
C66   C     C_R   0.330496 0.887883 0.423090 0.200943
C67   C     C_R   0.075647 0.574508 0.511390 0.568324
C68   C     C_R   0.669533 0.112076 0.576854 0.200977
C69   C     C_R   0.619771 0.837119 0.572794 0.186775
C70   C     C_R   0.380178 0.162849 0.427136 0.186793
C71   C     C_R   0.830449 0.387955 0.423166 0.200987
C72   C     C_R   0.169516 0.612096 0.576897 0.200946
C73   C     C_R   0.119821 0.337151 0.572864 0.186802
C74   C     C_R   0.880229 0.662882 0.427211 0.186779
C75   C     C_2   0.257317 0.759850 0.465000 -0.034985
C76   C     C_2   0.742701 0.240131 0.535003 -0.034993
C77   C     C_2   0.745585 0.760984 0.535793 -0.034828
C78   C     C_R   0.924352 0.425494 0.488609 0.568406
C79   C     C_2   0.254385 0.238989 0.464198 -0.034818
C80   C     C_2   0.757262 0.259907 0.464996 -0.034996
C81   C     C_2   0.242707 0.740125 0.535003 -0.034989
C82   C     C_2   0.245612 0.261008 0.535797 -0.034819
C83   C     C_2   0.754402 0.739003 0.464193 -0.034820
C84   C     C_R   0.461374 0.996870 0.742591 0.389077
C85   C     C_R   0.538628 0.003121 0.257414 0.389042
C86   C     C_R   0.961371 0.496883 0.742585 0.389033
C87   C     C_R   0.038626 0.503130 0.257409 0.389077
C88   C     C_R   0.462759 0.999511 0.830035 -0.133508
Cu1   Cu    Cu3+1 0.495980 0.000000 0.415120 1.081961
Cu2   Cu    Cu3+1 0.504020 0.000000 0.584880 1.082004
Cu3   Cu    Cu3+1 0.995980 0.500000 0.415120 1.081998
Cu4   Cu    Cu3+1 0.004020 0.500000 0.584880 1.081944
H1    H     H_    0.576079 0.001937 0.147075 0.095429
H2    H     H_    0.234095 0.748599 0.403242 0.166024
H3    H     H_    0.234877 0.256538 0.403567 0.156586
H4    H     H_    0.765054 0.743402 0.596419 0.156586
H5    H     H_    0.252020 0.850321 0.373033 0.175479
H6    H     H_    0.748036 0.149607 0.626858 0.175476
H7    H     H_    0.662864 0.763656 0.619653 0.175298
H8    H     H_    0.337046 0.236283 0.380226 0.175301
H9    H     H_    0.751931 0.350447 0.373179 0.175481
H10   H     H_    0.248003 0.649642 0.626942 0.175483
H11   H     H_    0.162952 0.263715 0.619772 0.175300
H12   H     H_    0.423927 0.998045 0.852931 0.095421
H13   H     H_    0.837133 0.736344 0.380353 0.175304
H14   H     H_    0.444657 0.968741 0.986525 0.129068
H15   H     H_    0.555349 0.031255 0.013478 0.129071
H16   H     H_    0.944649 0.468746 0.986521 0.129071
H17   H     H_    0.055343 0.531257 0.013474 0.129068
H18   H     H_    0.602645 0.016408 0.895654 0.145119
H19   H     H_    0.397357 0.983608 0.104340 0.145124
H20   H     H_    0.102644 0.516379 0.895663 0.145126
H21   H     H_    0.897354 0.483593 0.104346 0.145118
H22   H     H_    0.434174 0.813035 0.644846 0.348131
H23   H     H_    0.076073 0.501954 0.147068 0.095421
H24   H     H_    0.565748 0.187055 0.355303 0.348153
H25   H     H_    0.707863 0.951515 0.440348 0.339126
H26   H     H_    0.292188 0.048509 0.559833 0.339106
H27   H     H_    0.934256 0.312921 0.644650 0.348160
H28   H     H_    0.065818 0.686990 0.355192 0.348144
H29   H     H_    0.207813 0.451490 0.440174 0.339106
H30   H     H_    0.792128 0.548468 0.559608 0.339127
H31   H     H_    0.664317 0.034470 0.598126 0.336987
H32   H     H_    0.335677 0.965484 0.401783 0.336955
H33   H     H_    0.456850 0.154187 0.411396 0.374632
H34   H     H_    0.923920 0.498070 0.852923 0.095431
H35   H     H_    0.543086 0.845795 0.588473 0.374578
H36   H     H_    0.164319 0.534494 0.598191 0.336951
H37   H     H_    0.835690 0.465560 0.401911 0.336989
H38   H     H_    0.956916 0.654207 0.411540 0.374580
H39   H     H_    0.043151 0.345816 0.588611 0.374642
H40   H     H_    0.593871 0.261249 0.418519 0.350402
H41   H     H_    0.406102 0.738801 0.581716 0.350419
H42   H     H_    0.263413 0.120457 0.612276 0.336038
H43   H     H_    0.736661 0.879593 0.387867 0.336044
H44   H     H_    0.093920 0.761209 0.418344 0.350407
H45   H     H_    0.265927 0.751376 0.596762 0.166044
H46   H     H_    0.906094 0.238743 0.581420 0.350396
H47   H     H_    0.763319 0.620382 0.612098 0.336052
H48   H     H_    0.236586 0.379544 0.387724 0.336044
H49   H     H_    0.380077 0.990584 0.717816 0.310930
H50   H     H_    0.619927 0.009387 0.282195 0.310939
H51   H     H_    0.880072 0.490622 0.717802 0.310942
H52   H     H_    0.119923 0.509415 0.282183 0.310932
H53   H     H_    0.393695 0.004123 0.314939 0.373823
H54   H     H_    0.606308 0.995879 0.685063 0.373816
H55   H     H_    0.893692 0.504119 0.314939 0.373823
H56   H     H_    0.734001 0.248701 0.403241 0.166068
H57   H     H_    0.106302 0.495883 0.685053 0.373841
H58   H     H_    0.734933 0.756584 0.403566 0.156595
H59   H     H_    0.265120 0.243458 0.596428 0.156583
H60   H     H_    0.765965 0.251337 0.596758 0.166037
N1    N     N_R   0.510090 0.000000 0.712400 -0.216282
N2    N     N_R   0.489910 0.000000 0.287600 -0.216297
N3    N     N_R   0.010090 0.500000 0.712400 -0.216303
N4    N     N_R   0.989910 0.500000 0.287600 -0.216284
O1    O     O_R   0.439420 0.056820 0.420010 -0.550048
O2    O     O_R   0.553780 0.943190 0.436630 -0.423710
O3    O     O_R   0.553780 0.056810 0.436630 -0.405964
O4    O     O_R   0.446220 0.943190 0.563370 -0.405911
O5    O     O_R   0.946220 0.556810 0.563370 -0.423708
O6    O     O_R   0.053780 0.443190 0.436630 -0.423661
O7    O     O_R   0.053780 0.556810 0.436630 -0.405920
O8    O     O_R   0.946220 0.443190 0.563370 -0.405989
O9    O     O_3   0.440894 0.835300 0.596482 -0.695739
O10   O     O_3   0.559061 0.164754 0.403649 -0.695862
O11   O     O_3   0.668079 0.942662 0.439377 -0.670651
O12   O     O_R   0.560580 0.943180 0.579990 -0.550037
O13   O     O_3   0.331965 0.057362 0.560745 -0.670600
O14   O     O_3   0.940938 0.335228 0.596306 -0.695885
O15   O     O_3   0.059107 0.664713 0.403548 -0.695746
O16   O     O_3   0.168035 0.442636 0.439255 -0.670602
O17   O     O_3   0.831913 0.557326 0.560600 -0.670661
O18   O     O_3   0.684755 0.066151 0.626043 -0.641859
O19   O     O_3   0.315289 0.933785 0.373842 -0.641810
O20   O     O_3   0.422892 0.174834 0.385189 -0.653030
O21   O     O_3   0.577027 0.825120 0.614674 -0.653005
O22   O     O_3   0.184722 0.566187 0.626129 -0.641831
O23   O     O_R   0.560580 0.056820 0.579990 -0.527466
O24   O     O_3   0.815230 0.433889 0.373999 -0.641882
O25   O     O_3   0.922978 0.674887 0.385344 -0.653007
O26   O     O_3   0.077109 0.325168 0.614816 -0.653026
O27   O     O_3   0.634974 0.255404 0.431662 -0.706578
O28   O     O_3   0.364999 0.744636 0.568495 -0.706572
O29   O     O_3   0.249797 0.142439 0.560620 -0.702095
O30   O     O_3   0.750245 0.857581 0.439502 -0.702093
O31   O     O_3   0.135022 0.755362 0.431536 -0.706564
O32   O     O_3   0.864993 0.244601 0.568300 -0.706568
O33   O     O_3   0.749740 0.642401 0.560468 -0.702080
O34   O     O_R   0.439420 0.943180 0.420010 -0.527470
O35   O     O_3   0.250200 0.357557 0.439375 -0.702095
O36   O     O_3   0.411153 0.992360 0.686426 -0.600298
O37   O     O_3   0.588849 0.007621 0.313582 -0.600328
O38   O     O_3   0.911150 0.492386 0.686416 -0.600332
O39   O     O_3   0.088847 0.507640 0.313574 -0.600300
O40   O     O_3   0.389173 0.989060 0.258417 -0.655664
O41   O     O_3   0.610824 0.010960 0.741573 -0.655696
O42   O     O_3   0.889176 0.489041 0.258427 -0.655706
O43   O     O_3   0.110829 0.510928 0.741587 -0.655680
O44   O     O_R   0.939420 0.556820 0.420010 -0.550043
O45   O     O_R   0.060580 0.443180 0.579990 -0.550050
O46   O     O_R   0.060580 0.556820 0.579990 -0.527501
O47   O     O_R   0.939420 0.443180 0.420010 -0.527474
O48   O     O_R   0.446220 0.056810 0.563370 -0.423665

loop_
_geom_bond_atom_site_label_1
_geom_bond_atom_site_label_2
_ccdc_geom_bond_type
Cu4   O5    S    
C61   C70   A    
C64   H11   S    
C78   O8    A    
C8    C13   A    
C32   O10   S    
C4    H23   S    
H46   O32   S    
C72   O22   S    
C4    C8    A    
C60   H7    S    
H24   O10   S    
C51   C77   S    
C3    H34   S    
C27   C71   A    
Cu1   O2    S    
C24   C68   A    
H52   O39   S    
C33   O11   S    
C45   O44   A    
C81   H45   S    
C6    C19   S    
H49   O36   S    
C50   C59   A    
C60   C69   A    
C3    C7    A    
C52   C61   A    
H40   O27   S    
C30   C74   A    
H39   O26   S    
C43   C52   A    
C29   C73   A    
C54   C63   A    
C43   O29   S    
C40   C49   A    
C56   O6    A    
C31   C40   A    
C2    C85   A    
C18   C19   D    
C11   C16   A    
C45   O5    A    
C18   H15   S    
C22   C66   A    
C15   N2    A    
C76   H60   S    
C30   C45   S    
C69   O21   S    
C5    C88   A    
C44   C53   A    
C58   C66   A    
C31   O9    S    
H53   O40   S    
C23   O3    A    
C29   C38   A    
C62   C71   A    
Cu1   O34   S    
C49   C75   S    
Cu3   O6    S    
C46   O31   S    
C52   C79   S    
C35   C43   A    
C17   N4    A    
H43   O30   S    
C23   O23   A    
C82   H59   S    
C39   O17   S    
C42   C51   A    
C62   H9    S    
C42   O30   S    
C3    C86   A    
Cu2   O4    S    
H42   O29   S    
Cu3   O7    S    
C28   C72   A    
C58   H5    S    
C63   H10   S    
C65   H13   S    
C88   H12   S    
Cu1   O3    S    
Cu2   O48   S    
C22   C34   S    
C14   O41   S    
C22   C31   A    
H35   O21   S    
C84   C88   A    
C10   H19   S    
C48   C57   A    
C28   C67   S    
C78   O47   A    
Cu3   Cu4   S    
H32   O19   S    
C68   O18   S    
C75   C81   D    
C5    C18   S    
H27   O14   S    
H26   O13   S    
H51   O38   S    
C49   C58   A    
C2    C6    A    
C27   C78   S    
C4    C87   A    
Cu2   N1    S    
C79   H3    S    
C7    C11   A    
C9    C14   A    
C24   C32   A    
C5    C9    A    
C50   C76   S    
C59   C68   A    
C84   N1    A    
H41   O28   S    
C34   O34   A    
C32   C41   A    
H37   O24   S    
C55   C64   A    
C53   C80   S    
C16   N3    A    
C57   C83   S    
C8    C21   S    
C38   C47   A    
C17   O42   S    
C86   N3    A    
C63   C72   A    
C55   C82   S    
Cu1   O1    S    
C48   O33   S    
C16   O43   S    
H57   O43   S    
Cu3   O44   S    
C74   O25   S    
C46   C54   A    
C44   O32   S    
C7    C20   S    
H44   O31   S    
C1    C26   S    
C26   C70   A    
C66   O19   S    
C36   C44   A    
C61   H8    S    
C25   C69   A    
C15   O40   S    
C41   C50   A    
H31   O18   S    
Cu4   O46   S    
H22   O9    S    
C47   C55   A    
C9    H18   S    
C59   H6    S    
C33   C42   A    
Cu2   O23   S    
Cu2   O12   S    
C11   H20   S    
C2    H1    S    
C76   C80   D    
C57   C65   A    
H47   O33   S    
H38   O25   S    
C37   O15   S    
C79   C82   D    
H28   O15   S    
C38   O16   S    
C56   O45   A    
C29   C56   S    
C27   C36   A    
H30   O17   S    
C77   H4    S    
C36   O14   S    
C13   C17   A    
C12   C25   S    
C10   C15   A    
C20   H17   S    
C83   H58   S    
H54   O41   S    
C1    O1    A    
Cu1   Cu2   S    
C87   O39   S    
Cu3   N4    S    
C14   N1    A    
C67   O46   A    
C86   O38   S    
C73   O26   S    
H33   O20   S    
Cu4   O8    S    
Cu1   N2    S    
C28   C37   A    
H25   O11   S    
C35   O13   S    
C71   O24   S    
H50   O37   S    
C30   C39   A    
C84   O36   S    
Cu4   N3    S    
C85   N2    A    
C85   O37   S    
C47   O35   S    
Cu3   O47   S    
C21   H16   S    
C6    C10   A    
C65   C74   A    
C23   C24   S    
C64   C73   A    
C19   H14   S    
C67   O7    A    
C26   C35   A    
C80   H56   S    
H29   O16   S    
H36   O22   S    
C20   C21   D    
C53   C62   A    
C12   O12   A    
H48   O35   S    
C77   C83   D    
C87   N4    A    
C41   O27   S    
H55   O42   S    
C51   C60   A    
C12   O2    A    
C37   C46   A    
C1    O48   A    
C70   O20   S    
C54   C81   S    
C13   H21   S    
Cu4   O45   S    
C75   H2    S    
C25   C33   A    
C39   C48   A    
C40   O28   S    
C34   O4    A    
