data_mof_unit_66495.cif
_audit_creation_date              2012-12-10T17:58:58-0500
_audit_creation_method            fapswitch 2.2
_symmetry_space_group_name_H-M    P1
_symmetry_Int_Tables_number       1
_space_group_crystal_system       triclinic
_cell_length_a                    18.664028
_cell_length_b                    18.687985
_cell_length_c                    18.882585
_cell_angle_alpha                 109.41746
_cell_angle_beta                  109.864622
_cell_angle_gamma                 108.81844
_cell_volume                      5089.17203117

loop_
_atom_site_label
_atom_site_type_symbol
_atom_type_description
_atom_site_fract_x
_atom_site_fract_y
_atom_site_fract_z
_atom_type_partial_charge
C1    C     C_R   0.619262 0.618986 0.500578 0.809335
C2    C     C_3   0.211709 0.425463 0.178130 -0.151091
C3    C     C_3   0.215182 0.434029 0.263738 -0.144887
C4    C     C_3   0.312772 0.500952 0.313078 0.023678
C5    C     C_R   0.678322 0.682157 0.423680 0.104529
C6    C     C_R   0.684911 0.687179 0.501120 -0.108433
C7    C     C_R   0.750920 0.763887 0.579670 -0.262727
C8    C     C_R   0.816200 0.829079 0.580789 0.130488
C9    C     C_R   0.813416 0.817978 0.502096 -0.083339
C10   C     C_R   0.740872 0.747012 0.424152 0.082457
C11   C     C_3   0.737312 0.683230 0.348199 -0.487633
C12   C     C_R   0.380602 0.500350 0.380676 0.781575
C13   C     C_3   0.668621 0.611865 0.347915 -0.439763
C14   C     C_R   0.689267 0.425686 0.679286 0.127038
C15   C     C_R   0.687928 0.501498 0.686578 -0.092921
C16   C     C_R   0.755007 0.580419 0.763236 -0.209144
C17   C     C_R   0.820651 0.580478 0.828401 -0.213465
C18   C     C_R   0.818001 0.501342 0.818663 -0.082224
C19   C     C_R   0.750257 0.425449 0.743059 0.127277
C20   C     C_3   0.713136 0.329379 0.694756 -0.493646
C21   C     C_3   0.642741 0.329447 0.622320 -0.463269
C22   C     C_R   0.244038 0.243555 0.425802 0.124654
C23   C     C_R   0.381476 0.381366 0.500135 0.800126
C24   C     C_R   0.316493 0.315461 0.501753 -0.090381
C25   C     C_R   0.323687 0.322484 0.580932 -0.211703
C26   C     C_R   0.259217 0.257202 0.580963 -0.211188
C27   C     C_R   0.185628 0.186059 0.501834 -0.087041
C28   C     C_R   0.180723 0.182856 0.425855 0.128643
C29   C     C_3   0.127135 0.130857 0.329487 -0.477949
C30   C     C_3   0.199045 0.200761 0.329450 -0.477237
C31   C     C_R   0.002759 0.618882 0.121311 0.794351
C32   C     C_R   0.123497 0.500298 0.123541 0.779624
C33   C     C_R   0.004764 0.381254 0.885795 0.794012
C34   C     C_R   0.619818 0.500053 0.619480 0.798670
C35   C     C_R   0.884381 0.499940 0.884291 0.799594
C36   C     C_R   0.998890 0.118941 0.617696 0.802600
C37   C     C_R   0.881102 0.881603 0.500203 0.831169
C38   C     C_R   0.001447 0.881378 0.382351 0.787951
C39   C     C_R   0.118751 0.118773 0.500255 0.796599
C40   C     C_R   0.028907 0.694260 0.269440 0.096154
C41   C     C_R   0.004187 0.686795 0.187814 -0.068887
C42   C     C_R   0.991453 0.752393 0.174568 -0.210692
C43   C     C_R   0.991113 0.817067 0.238601 -0.212582
C44   C     C_R   0.006329 0.817868 0.317170 -0.088180
C45   C     C_3   0.292771 0.576365 0.326817 -0.162053
C46   C     C_R   0.030789 0.759300 0.333451 0.142223
C47   C     C_3   0.996041 0.700359 0.365087 -0.473338
C48   C     C_3   0.993885 0.628819 0.294464 -0.471820
C49   C     C_R   0.924662 0.249527 0.741798 0.100926
C50   C     C_R   0.003579 0.315848 0.816755 -0.079104
C51   C     C_R   0.082368 0.324399 0.819814 -0.207847
C52   C     C_R   0.081074 0.260176 0.753877 -0.211189
C53   C     C_R   0.000884 0.188807 0.683069 -0.077006
C54   C     C_R   0.923365 0.187548 0.675346 0.133461
C55   C     C_3   0.842831 0.116212 0.658129 -0.484507
C56   C     C_3   0.194110 0.509470 0.276402 -0.152376
C57   C     C_3   0.844536 0.184292 0.731450 -0.462241
C58   C     C_3   0.191754 0.500844 0.191858 0.023180
C59   C     C_3   0.289449 0.567785 0.241269 -0.164595
C60   C     C_3   0.310427 0.492418 0.228554 -0.160117
Cu1   Cu    Cu3+1 0.500490 0.438210 0.438660 0.935531
Cu2   Cu    Cu3+1 0.499510 0.561790 0.561340 0.940340
Cu3   Cu    Cu3+1 0.942090 0.438240 0.003860 0.936254
Cu4   Cu    Cu3+1 0.065700 0.561800 0.003830 0.943908
Cu5   Cu    Cu3+1 0.937720 0.000020 0.437750 0.943125
Cu6   Cu    Cu3+1 0.062280 0.000080 0.562350 0.955031
H1    H     H_    0.145174 0.516511 0.294706 0.126854
H2    H     H_    0.799422 0.681046 0.365058 0.185198
H3    H     H_    0.602812 0.577988 0.289713 0.190706
H4    H     H_    0.691008 0.568364 0.364725 0.208087
H5    H     H_    0.757343 0.641633 0.772198 0.153988
H6    H     H_    0.872272 0.641616 0.886380 0.146853
H7    H     H_    0.757795 0.311170 0.676195 0.193594
H8    H     H_    0.687250 0.296860 0.727144 0.205654
H9    H     H_    0.646287 0.310425 0.561745 0.206429
H10   H     H_    0.576285 0.297615 0.613381 0.195904
H11   H     H_    0.379217 0.377286 0.642161 0.154599
H12   H     H_    0.327136 0.638302 0.388863 0.142553
H13   H     H_    0.266112 0.262980 0.642229 0.151767
H14   H     H_    0.123286 0.066090 0.303519 0.192938
H15   H     H_    0.063550 0.130102 0.304554 0.205558
H16   H     H_    0.236304 0.176213 0.302897 0.207266
H17   H     H_    0.177106 0.240745 0.305076 0.187887
H18   H     H_    0.977717 0.751126 0.113476 0.142743
H19   H     H_    0.977122 0.864913 0.226043 0.155934
H20   H     H_    0.044804 0.720605 0.431650 0.202992
H21   H     H_    0.930054 0.687981 0.355077 0.185169
H22   H     H_    0.041445 0.607890 0.320324 0.189866
H23   H     H_    0.318992 0.622727 0.231118 0.144675
H24   H     H_    0.926575 0.574968 0.243390 0.212750
H25   H     H_    0.144643 0.378156 0.875009 0.151261
H26   H     H_    0.142306 0.265071 0.759135 0.149288
H27   H     H_    0.786106 0.089337 0.593435 0.202968
H28   H     H_    0.854738 0.066726 0.672480 0.199057
H29   H     H_    0.788599 0.196347 0.709007 0.193032
H30   H     H_    0.857746 0.174470 0.788541 0.210410
H31   H     H_    0.359357 0.485506 0.210183 0.133354
H32   H     H_    0.177217 0.363677 0.115906 0.125613
H33   H     H_    0.186136 0.379275 0.274325 0.117104
H34   H     H_    0.754197 0.771522 0.640345 0.154839
H35   H     H_    0.711108 0.690510 0.290190 0.205090
O1    O     O_R   0.590590 0.537990 0.448210 -0.588426
O2    O     O_R   0.055390 0.642370 0.093330 -0.586656
O3    O     O_R   0.042570 0.447840 0.094710 -0.588379
O4    O     O_R   0.146960 0.552180 0.094690 -0.591557
O5    O     O_R   0.952400 0.357670 0.914360 -0.588414
O6    O     O_R   0.056780 0.462020 0.914330 -0.584650
O7    O     O_R   0.860840 0.447860 0.913000 -0.584980
O8    O     O_R   0.965220 0.552200 0.912980 -0.585764
O9    O     O_R   0.946640 0.090180 0.536890 -0.585006
O10   O     O_R   0.051820 0.090220 0.642110 -0.581601
O11   O     O_R   0.857230 0.909860 0.447430 -0.592380
O12   O     O_R   0.589760 0.642350 0.551800 -0.589607
O13   O     O_R   0.962420 0.909900 0.552660 -0.564216
O14   O     O_R   0.948170 0.909880 0.357990 -0.590281
O15   O     O_R   0.053360 0.909920 0.463210 -0.585442
O16   O     O_R   0.037580 0.090200 0.447440 -0.586458
O17   O     O_R   0.142770 0.090240 0.552670 -0.589743
O18   O     O_R   0.409550 0.447830 0.357350 -0.590614
O19   O     O_R   0.408710 0.552190 0.460940 -0.588555
O20   O     O_R   0.410240 0.357650 0.448200 -0.586160
O21   O     O_R   0.409410 0.462010 0.551790 -0.585027
O22   O     O_R   0.591290 0.447810 0.539060 -0.584973
O23   O     O_R   0.590450 0.552170 0.642650 -0.590990
O24   O     O_R   0.951010 0.538020 0.093350 -0.587031
N1    N     N_3   0.885394 0.905344 0.661447 -0.584556
H36   H     H_    0.917783 0.885460 0.701364 0.223525
H37   H     H_    0.857290 0.935750 0.691150 0.206027

loop_
_geom_bond_atom_site_label_1
_geom_bond_atom_site_label_2
_ccdc_geom_bond_type
Cu4   O2    S    
C34   O22   A    
Cu1   O18   S    
C41   C42   A    
C54   C55   S    
C19   C20   S    
C33   O6    A    
C32   C58   S    
C55   H27   S    
Cu2   O23   S    
C7    C8    A    
C23   O20   A    
C53   C54   A    
C52   C53   A    
C40   C46   A    
C21   H10   S    
C26   C27   A    
N1    H36   S    
Cu6   O15   S    
C25   H11   S    
C14   C21   S    
C28   C29   S    
C5    C6    A    
C2    C60   S    
C13   H4    S    
C49   C54   A    
C49   C57   S    
Cu1   O20   S    
C18   C19   A    
C59   H23   S    
C30   H17   S    
C37   O11   A    
C35   O7    A    
C33   C50   S    
C51   H25   S    
C12   O19   A    
C45   C56   S    
C27   C39   S    
C8    C9    A    
C57   H30   S    
C34   O23   A    
C23   C24   S    
C48   H22   S    
C45   H12   S    
C36   C53   S    
Cu6   O10   S    
C4    C12   S    
Cu6   O13   S    
C18   C35   S    
C15   C34   S    
Cu2   O19   S    
C35   O8    A    
C32   O3    A    
C59   C60   S    
C22   C28   A    
Cu5   O14   S    
C16   H5    S    
C1    O12   A    
C55   H28   S    
C44   C46   A    
C17   C18   A    
C23   O21   A    
C4    C45   S    
C7    H34   S    
C1    C6    S    
C43   H19   S    
C47   H20   S    
Cu4   O4    S    
C42   H18   S    
C24   C25   A    
Cu2   O12   S    
C60   H31   S    
C16   C17   A    
C37   O13   A    
C58   C59   S    
C39   O16   A    
C51   C52   A    
C31   O2    A    
C30   H16   S    
C43   C44   A    
Cu5   O11   S    
C38   C44   S    
C29   C30   S    
C12   O18   A    
C38   O15   A    
C3    C56   S    
C47   C48   S    
C4    C60   S    
C36   O10   A    
C9    C37   S    
C50   C51   A    
C20   H8    S    
C11   H35   S    
Cu3   O5    S    
Cu3   O24   S    
C8    N1    S    
C40   C41   A    
C29   H15   S    
C49   C50   A    
C32   O4    A    
C55   C57   S    
C36   O9    A    
C22   C24   A    
C52   H26   S    
C42   C43   A    
C31   O24   A    
C3    C4    S    
C39   O17   A    
Cu2   O21   S    
C11   H2    S    
Cu4   O6    S    
C9    C10   A    
C57   H29   S    
C40   C48   S    
C46   C47   S    
C45   C59   S    
N1    H37   S    
C31   C41   S    
C5    C13   S    
C14   C19   A    
C33   O5    A    
Cu3   O3    S    
C2    C58   S    
C6    C7    A    
C56   H1    S    
C21   H9    S    
C26   H13   S    
Cu1   O22   S    
Cu1   O1    S    
C25   C26   A    
C5    C10   A    
C22   C30   S    
C38   O14   A    
C11   C13   S    
Cu4   O8    S    
C29   H14   S    
C13   H3    S    
C56   C58   S    
C20   H7    S    
C2    C3    S    
Cu1   Cu2   S    
Cu5   O9    S    
C10   C11   S    
Cu3   Cu4   S    
C3    H33   S    
C20   C21   S    
C2    H32   S    
C17   H6    S    
Cu5   Cu6   S    
Cu6   O17   S    
C27   C28   A    
Cu5   O16   S    
C14   C15   A    
C48   H24   S    
Cu3   O7    S    
C1    O1    A    
C15   C16   A    
C47   H21   S    
