data_mof_unit_35267.cif
_audit_creation_date              2012-12-10T18:08:17-0500
_audit_creation_method            fapswitch 2.2
_symmetry_space_group_name_H-M    P1
_symmetry_Int_Tables_number       1
_space_group_crystal_system       triclinic
_cell_length_a                    18.395066
_cell_length_b                    18.395068
_cell_length_c                    51.310381
_cell_angle_alpha                 89.999978
_cell_angle_beta                  89.999984
_cell_angle_gamma                 89.780622
_cell_volume                      17362.201973

loop_
_atom_site_label
_atom_site_type_symbol
_atom_type_description
_atom_site_fract_x
_atom_site_fract_y
_atom_site_fract_z
_atom_type_partial_charge
C1    C     C_R   1.000000 0.500000 0.820212 0.768077
C2    C     C_R   1.000000 0.500000 0.179789 0.796564
C3    C     C_R   0.500000 1.000000 0.820211 0.796565
C4    C     C_R   0.500000 0.000000 0.179788 0.768077
C5    C     C_R   0.500000 1.000000 0.320211 0.768077
C6    C     C_R   0.500000 0.000000 0.679789 0.796564
C7    C     C_R   1.000000 0.500000 0.320211 0.796565
C8    C     C_R   1.000000 0.500000 0.679788 0.768077
C9    C     C_R   0.934128 0.502180 0.637078 -0.222584
C10   C     C_R   0.934090 0.499062 0.362919 -0.216356
C11   C     C_R   0.499061 0.934090 0.637081 -0.216357
C12   C     C_R   0.502178 0.934128 0.362922 -0.222584
C13   C     C_R   0.065872 0.497820 0.637078 -0.222585
C14   C     C_R   0.065909 0.500938 0.362919 -0.216357
C15   C     C_R   0.500939 0.065910 0.637081 -0.216357
C16   C     C_R   0.497821 0.065872 0.362922 -0.222584
C17   C     C_R   0.434128 0.002178 0.137078 -0.222583
C18   C     C_R   0.434090 0.999061 0.862919 -0.216357
C19   C     C_R   0.999061 0.434090 0.137080 -0.216357
C20   C     C_R   0.002179 0.434128 0.862922 -0.222585
C21   C     C_R   0.565872 0.997822 0.137078 -0.222584
C22   C     C_R   0.565909 0.000939 0.862919 -0.216357
C23   C     C_R   0.000939 0.565909 0.137080 -0.216357
C24   C     C_R   0.997821 0.565872 0.862922 -0.222584
C25   C     C_R   1.000000 0.500000 0.650979 -0.015502
C26   C     C_R   1.000000 0.500000 0.349019 -0.008597
C27   C     C_R   0.500000 0.000000 0.650980 -0.008597
C28   C     C_R   0.500000 1.000000 0.349021 -0.015503
C29   C     C_R   0.500000 0.000000 0.150979 -0.015503
C30   C     C_R   0.500000 0.000000 0.849019 -0.008597
C31   C     C_R   0.000000 0.500000 0.150980 -0.008597
C32   C     C_R   1.000000 0.500000 0.849020 -0.015503
C33   C     C_R   1.000000 0.500000 0.596084 0.311559
C34   C     C_R   1.000000 0.500000 0.403896 0.313362
C35   C     C_R   0.500000 0.000000 0.596104 0.313361
C36   C     C_R   0.500000 1.000000 0.403916 0.311559
C37   C     C_R   0.500000 0.000000 0.096084 0.311558
C38   C     C_R   0.500000 1.000000 0.903896 0.313361
C39   C     C_R   1.000000 0.500000 0.096104 0.313361
C40   C     C_R   0.000000 0.500000 0.903916 0.311559
C41   C     C_R   0.859872 0.640128 0.750000 0.881754
C42   C     C_R   0.140416 0.359584 0.250000 0.940702
C43   C     C_R   0.359590 0.859590 0.750000 0.912982
C44   C     C_R   0.640254 0.140254 0.250000 0.900830
C45   C     C_R   0.140128 0.359872 0.750000 0.881754
C46   C     C_R   0.859584 0.640416 0.250000 0.940702
C47   C     C_R   0.640410 0.140410 0.750000 0.912982
C48   C     C_R   0.359746 0.859746 0.250000 0.900830
C49   C     C_R   0.859590 0.359590 0.250000 0.912982
C50   C     C_R   0.140254 0.640254 0.750000 0.900829
C51   C     C_R   0.359872 0.140128 0.250000 0.881754
C52   C     C_R   0.640416 0.859584 0.750000 0.940702
C53   C     C_R   0.140410 0.640410 0.250000 0.912982
C54   C     C_R   0.859746 0.359746 0.750000 0.900830
C55   C     C_R   0.640128 0.859872 0.250000 0.881754
C56   C     C_R   0.359584 0.140416 0.750000 0.940702
C57   C     C_R   0.734766 0.319123 0.739524 0.313860
C58   C     C_R   0.263506 0.684083 0.262878 0.328423
C59   C     C_R   0.708115 0.760368 0.727474 0.326838
C60   C     C_R   0.287738 0.233274 0.273211 0.350188
C61   C     C_R   0.265234 0.680877 0.739524 0.313859
C62   C     C_R   0.736494 0.315917 0.262878 0.328423
C63   C     C_R   0.291885 0.239632 0.727474 0.326839
C64   C     C_R   0.712262 0.766726 0.273211 0.350187
C65   C     C_R   0.760368 0.708115 0.272526 0.326840
C66   C     C_R   0.233274 0.287738 0.726789 0.350186
C67   C     C_R   0.680877 0.265234 0.260476 0.313859
C68   C     C_R   0.315917 0.736494 0.737122 0.328425
C69   C     C_R   0.239632 0.291885 0.272526 0.326838
C70   C     C_R   0.766726 0.712262 0.726789 0.350187
C71   C     C_R   0.319123 0.734766 0.260476 0.313859
C72   C     C_R   0.684083 0.263506 0.737122 0.328423
C73   C     C_R   0.234766 0.819123 0.239524 0.313860
C74   C     C_R   0.763506 0.184083 0.762878 0.328421
C75   C     C_R   0.208115 0.260368 0.227474 0.326838
C76   C     C_R   0.787737 0.733274 0.773211 0.350186
C77   C     C_R   0.765234 0.180877 0.239524 0.313858
C78   C     C_R   0.236494 0.815917 0.762878 0.328422
C79   C     C_R   0.791885 0.739632 0.227474 0.326841
C80   C     C_R   0.212262 0.266726 0.773211 0.350187
C81   C     C_R   0.260368 0.208114 0.772526 0.326840
C82   C     C_R   0.733274 0.787737 0.226789 0.350186
C83   C     C_R   0.180877 0.765234 0.760476 0.313861
C84   C     C_R   0.815917 0.236494 0.237122 0.328424
C85   C     C_R   0.739632 0.791885 0.772526 0.326841
C86   C     C_R   0.266726 0.212262 0.226789 0.350188
C87   C     C_R   0.819123 0.234766 0.760476 0.313859
C88   C     C_R   0.184083 0.763506 0.237122 0.328422
C89   C     C_R   0.696571 0.196571 0.750000 -0.386848
C90   C     C_R   0.303853 0.803853 0.250000 -0.369225
C91   C     C_R   0.804045 0.695954 0.750000 -0.377952
C92   C     C_R   0.196690 0.303310 0.250000 -0.392479
C93   C     C_R   0.303429 0.803429 0.750000 -0.386850
C94   C     C_R   0.696147 0.196147 0.250000 -0.369225
C95   C     C_R   0.195955 0.304045 0.750000 -0.377951
C96   C     C_R   0.803310 0.696690 0.250000 -0.392480
C97   C     C_R   0.695955 0.804045 0.250000 -0.377951
C98   C     C_R   0.303310 0.196690 0.750000 -0.392480
C99   C     C_R   0.803429 0.303429 0.250000 -0.386849
C100  C     C_R   0.196147 0.696147 0.750000 -0.369227
C101  C     C_R   0.304045 0.195955 0.250000 -0.377952
C102  C     C_R   0.696690 0.803310 0.750000 -0.392479
C103  C     C_R   0.196571 0.696571 0.250000 -0.386848
C104  C     C_R   0.803853 0.303853 0.750000 -0.369226
C105  C     C_R   0.473658 0.059462 0.945057 0.502925
C106  C     C_R   0.526089 0.940426 0.054890 0.502762
C107  C     C_R   0.940426 0.526088 0.945110 0.502762
C108  C     C_R   0.059462 0.473658 0.054943 0.502925
C109  C     C_R   0.526342 0.940538 0.945057 0.502925
C110  C     C_R   0.473911 0.059573 0.054890 0.502763
C111  C     C_R   0.059574 0.473911 0.945110 0.502762
C112  C     C_R   0.940538 0.526342 0.054943 0.502925
C113  C     C_R   0.973660 0.559463 0.445057 0.502926
C114  C     C_R   0.026087 0.440426 0.554890 0.502762
C115  C     C_R   0.440426 0.026089 0.445110 0.502762
C116  C     C_R   0.559462 0.973658 0.554943 0.502925
C117  C     C_R   0.026340 0.440537 0.445057 0.502925
C118  C     C_R   0.973913 0.559574 0.554890 0.502763
C119  C     C_R   0.559574 0.973911 0.445110 0.502762
C120  C     C_R   0.440538 0.026342 0.554943 0.502925
C121  C     C_R   0.526957 0.939353 0.972447 -0.017665
C122  C     C_R   0.473155 0.060689 0.027499 -0.016984
C123  C     C_R   0.060689 0.473155 0.972500 -0.016984
C124  C     C_R   0.939352 0.526957 0.027553 -0.017665
C125  C     C_R   0.473043 0.060647 0.972447 -0.017665
C126  C     C_R   0.526845 0.939311 0.027500 -0.016984
C127  C     C_R   0.939310 0.526845 0.972500 -0.016984
C128  C     C_R   0.060648 0.473043 0.027553 -0.017665
C129  C     C_R   0.026955 0.439352 0.472447 -0.017665
C130  C     C_R   0.973157 0.560690 0.527500 -0.016984
C131  C     C_R   0.560689 0.973155 0.472500 -0.016984
C132  C     C_R   0.439352 0.026957 0.527553 -0.017665
C133  C     C_R   0.973045 0.560648 0.472447 -0.017666
C134  C     C_R   0.026843 0.439310 0.527500 -0.016984
C135  C     C_R   0.439310 0.026845 0.472500 -0.016984
C136  C     C_R   0.560647 0.973043 0.527553 -0.017666
C137  C     C_R   0.500000 1.000000 0.986194 -0.019143
C138  C     C_R   0.500000 1.000000 0.013753 -0.019445
C139  C     C_R   1.000000 0.500000 0.986247 -0.019445
C140  C     C_R   1.000000 0.500000 0.013806 -0.019143
C141  C     C_R   0.000000 0.500000 0.486194 -0.019143
C142  C     C_R   1.000000 0.500000 0.513753 -0.019445
C143  C     C_R   0.500000 1.000000 0.486247 -0.019445
C144  C     C_R   0.500000 0.000000 0.513806 -0.019143
C145  C     C_R   0.553615 0.879086 0.986365 -0.157953
C146  C     C_R   0.446472 0.120949 0.013581 -0.157804
C147  C     C_R   0.120949 0.446473 0.986419 -0.157804
C148  C     C_R   0.879086 0.553614 0.013635 -0.157953
C149  C     C_R   0.446385 0.120914 0.986365 -0.157954
C150  C     C_R   0.553528 0.879051 0.013581 -0.157804
C151  C     C_R   0.879051 0.553527 0.986419 -0.157804
C152  C     C_R   0.120914 0.446386 0.013635 -0.157953
C153  C     C_R   0.053611 0.379084 0.486365 -0.157953
C154  C     C_R   0.946476 0.620950 0.513581 -0.157804
C155  C     C_R   0.620949 0.946473 0.486419 -0.157804
C156  C     C_R   0.379086 0.053614 0.513635 -0.157953
C157  C     C_R   0.946389 0.620916 0.486365 -0.157954
C158  C     C_R   0.053524 0.379049 0.513581 -0.157804
C159  C     C_R   0.379051 0.053527 0.486419 -0.157804
C160  C     C_R   0.620914 0.946386 0.513635 -0.157954
C161  C     C_R   0.934195 0.502131 0.609857 -0.109057
C162  C     C_R   0.934169 0.499096 0.390142 -0.107369
C163  C     C_R   0.499096 0.934169 0.609858 -0.107368
C164  C     C_R   0.502129 0.934195 0.390143 -0.109057
C165  C     C_R   0.065805 0.497869 0.609857 -0.109056
C166  C     C_R   0.065831 0.500903 0.390142 -0.107369
C167  C     C_R   0.500904 0.065831 0.609858 -0.107369
C168  C     C_R   0.497871 0.065805 0.390143 -0.109057
C169  C     C_R   0.434195 0.002129 0.109857 -0.109057
C170  C     C_R   0.434169 0.999095 0.890142 -0.107369
C171  C     C_R   0.999096 0.434169 0.109858 -0.107369
C172  C     C_R   0.002129 0.434195 0.890143 -0.109057
C173  C     C_R   0.565805 0.997871 0.109857 -0.109057
C174  C     C_R   0.565831 0.000905 0.890142 -0.107368
C175  C     C_R   0.000904 0.565831 0.109858 -0.107369
C176  C     C_R   0.997871 0.565805 0.890143 -0.109057
H1    H     H_    0.574616 0.831731 0.976284 0.192905
H2    H     H_    0.425532 0.168332 0.023661 0.192907
H3    H     H_    0.168332 0.425534 0.976339 0.192907
H4    H     H_    0.831731 0.574615 0.023716 0.192905
H5    H     H_    0.425384 0.168269 0.976284 0.192905
H6    H     H_    0.574467 0.831668 0.023661 0.192906
H7    H     H_    0.831668 0.574466 0.976339 0.192906
H8    H     H_    0.168269 0.425385 0.023716 0.192905
H9    H     H_    0.074611 0.331729 0.476284 0.192905
H10   H     H_    0.925538 0.668334 0.523661 0.192907
H11   H     H_    0.668332 0.925534 0.476339 0.192906
H12   H     H_    0.331731 0.074615 0.523716 0.192905
H13   H     H_    0.925389 0.668271 0.476284 0.192905
H14   H     H_    0.074462 0.331666 0.523661 0.192906
H15   H     H_    0.331668 0.074466 0.476339 0.192907
H16   H     H_    0.668269 0.925385 0.523716 0.192905
H17   H     H_    0.883025 0.503524 0.599433 0.147939
H18   H     H_    0.883021 0.498151 0.400581 0.144655
H19   H     H_    0.498150 0.883022 0.599419 0.144656
H20   H     H_    0.503521 0.883025 0.400567 0.147940
H21   H     H_    0.116975 0.496476 0.599433 0.147939
H22   H     H_    0.116978 0.501849 0.400581 0.144655
H23   H     H_    0.501850 0.116978 0.599419 0.144656
H24   H     H_    0.496478 0.116975 0.400567 0.147940
H25   H     H_    0.383025 0.003521 0.099432 0.147940
H26   H     H_    0.383022 0.998149 0.900581 0.144656
H27   H     H_    0.998150 0.383022 0.099419 0.144656
H28   H     H_    0.003522 0.383025 0.900567 0.147940
H29   H     H_    0.616975 0.996479 0.099432 0.147940
H30   H     H_    0.616978 0.001851 0.900581 0.144656
H31   H     H_    0.001850 0.616978 0.099419 0.144656
H32   H     H_    0.996478 0.616975 0.900567 0.147939
H33   H     H_    0.882512 0.503923 0.647214 0.172021
H34   H     H_    0.882447 0.498222 0.352784 0.158242
H35   H     H_    0.498221 0.882448 0.647216 0.158242
H36   H     H_    0.503920 0.882512 0.352786 0.172022
H37   H     H_    0.117488 0.496077 0.647214 0.172021
H38   H     H_    0.117552 0.501778 0.352784 0.158242
H39   H     H_    0.501779 0.117552 0.647216 0.158242
H40   H     H_    0.496080 0.117488 0.352786 0.172022
H41   H     H_    0.382512 0.003920 0.147214 0.172021
H42   H     H_    0.382448 0.998220 0.852784 0.158242
H43   H     H_    0.998221 0.382448 0.147216 0.158242
H44   H     H_    0.003920 0.382512 0.852786 0.172021
H45   H     H_    0.617488 0.996080 0.147214 0.172022
H46   H     H_    0.617552 0.001780 0.852784 0.158242
H47   H     H_    0.001779 0.617552 0.147216 0.158242
H48   H     H_    0.996080 0.617488 0.852786 0.172022
N1    N     N_R   0.500000 1.000000 0.931941 -0.355753
N2    N     N_R   0.500000 0.000000 0.068021 -0.354900
N3    N     N_R   1.000000 0.500000 0.931979 -0.354900
N4    N     N_R   1.000000 0.500000 0.068059 -0.355753
N5    N     N_R   1.000000 0.500000 0.431941 -0.355753
N6    N     N_R   1.000000 0.500000 0.568021 -0.354900
N7    N     N_R   0.500000 1.000000 0.431979 -0.354900
N8    N     N_R   0.500000 0.000000 0.568059 -0.355753
O1    O     O_3   1.000000 0.500000 0.750000 -0.499465
O2    O     O_3   1.000000 0.500000 0.250000 -0.484660
O3    O     O_3   0.500000 0.000000 0.750000 -0.484660
O4    O     O_3   0.500000 0.000000 0.250000 -0.499465
O5    O     O_R   0.000000 0.439150 0.807730 -0.643853
O6    O     O_R   1.000000 0.560850 0.192270 -0.655923
O7    O     O_R   0.560850 0.000000 0.807730 -0.655923
O8    O     O_R   0.439150 0.000000 0.192270 -0.643852
O9    O     O_R   1.000000 0.560850 0.807730 -0.643852
O10   O     O_R   0.000000 0.439150 0.192270 -0.655923
O11   O     O_R   0.439150 0.000000 0.807730 -0.655923
O12   O     O_R   0.560850 0.000000 0.192270 -0.643852
O13   O     O_R   0.500000 0.939150 0.307730 -0.643852
O14   O     O_R   0.500000 0.060850 0.692270 -0.655923
O15   O     O_R   0.060850 0.500000 0.307730 -0.655923
O16   O     O_R   0.939150 0.500000 0.692270 -0.643852
O17   O     O_R   0.500000 0.060850 0.307730 -0.643852
O18   O     O_R   0.500000 0.939150 0.692270 -0.655923
O19   O     O_R   0.939150 0.500000 0.307730 -0.655923
O20   O     O_R   0.060850 0.500000 0.692270 -0.643853
O21   O     O_R   0.914360 0.646040 0.764890 -0.625780
O22   O     O_R   0.085640 0.353960 0.235110 -0.637120
O23   O     O_R   0.353960 0.914360 0.764890 -0.633708
O24   O     O_R   0.646040 0.085640 0.235110 -0.608818
O25   O     O_R   0.085640 0.353960 0.764890 -0.625780
O26   O     O_R   0.914360 0.646040 0.235110 -0.637120
O27   O     O_R   0.646040 0.085640 0.764890 -0.633708
O28   O     O_R   0.353960 0.914360 0.235110 -0.608818
O29   O     O_R   0.914360 0.353960 0.235110 -0.633708
O30   O     O_R   0.085640 0.646040 0.764890 -0.608817
O31   O     O_R   0.353960 0.085640 0.235110 -0.625780
O32   O     O_R   0.646040 0.914360 0.764890 -0.637120
O33   O     O_R   0.085640 0.646040 0.235110 -0.633709
O34   O     O_R   0.914360 0.353960 0.764890 -0.608818
O35   O     O_R   0.646040 0.914360 0.235110 -0.625779
O36   O     O_R   0.353960 0.085640 0.764890 -0.637119
O37   O     O_R   0.414360 0.146040 0.264890 -0.625779
O38   O     O_R   0.585640 0.853960 0.735110 -0.637120
O39   O     O_R   0.853960 0.414360 0.264890 -0.633709
O40   O     O_R   0.146040 0.585640 0.735110 -0.608819
O41   O     O_R   0.585640 0.853960 0.264890 -0.625779
O42   O     O_R   0.414360 0.146040 0.735110 -0.637120
O43   O     O_R   0.146040 0.585640 0.264890 -0.633708
O44   O     O_R   0.853960 0.414360 0.735110 -0.608817
O45   O     O_R   0.414360 0.853960 0.735110 -0.633708
O46   O     O_R   0.585640 0.146040 0.264890 -0.608817
O47   O     O_R   0.853960 0.585640 0.735110 -0.625779
O48   O     O_R   0.146040 0.414360 0.264890 -0.637120
O49   O     O_R   0.585640 0.146040 0.735110 -0.633708
O50   O     O_R   0.414360 0.853960 0.264890 -0.608818
O51   O     O_R   0.146040 0.414360 0.735110 -0.625778
O52   O     O_R   0.853960 0.585640 0.264890 -0.637120
O53   O     O_2   0.448703 0.117493 0.931636 -0.557793
O54   O     O_2   0.550621 0.882181 0.068292 -0.561178
O55   O     O_2   0.882180 0.550620 0.931708 -0.561178
O56   O     O_2   0.117493 0.448704 0.068364 -0.557793
O57   O     O_2   0.551297 0.882507 0.931636 -0.557793
O58   O     O_2   0.449379 0.117819 0.068292 -0.561179
O59   O     O_2   0.117820 0.449380 0.931708 -0.561179
O60   O     O_2   0.882506 0.551296 0.068364 -0.557793
O61   O     O_2   0.948707 0.617495 0.431636 -0.557793
O62   O     O_2   0.050617 0.382179 0.568292 -0.561178
O63   O     O_2   0.382180 0.050620 0.431708 -0.561178
O64   O     O_2   0.617493 0.948704 0.568364 -0.557793
O65   O     O_2   0.051293 0.382505 0.431636 -0.557793
O66   O     O_2   0.949383 0.617821 0.568292 -0.561179
O67   O     O_2   0.617820 0.949380 0.431708 -0.561178
O68   O     O_2   0.382506 0.051296 0.568364 -0.557793
Zn1   Zn    Zn3+2 0.913060 0.500000 0.727930 0.964964
Zn2   Zn    Zn3+2 0.086940 0.500000 0.272070 0.957150
Zn3   Zn    Zn3+2 0.500000 0.913060 0.727930 0.957150
Zn4   Zn    Zn3+2 0.500000 0.086940 0.272070 0.964964
Zn5   Zn    Zn3+2 0.086940 0.500000 0.727930 0.964964
Zn6   Zn    Zn3+2 0.913060 0.500000 0.272070 0.957150
Zn7   Zn    Zn3+2 0.500000 0.086940 0.727930 0.957150
Zn8   Zn    Zn3+2 0.500000 0.913060 0.272070 0.964964
Zn9   Zn    Zn3+2 0.413060 0.000000 0.227930 0.964964
Zn10  Zn    Zn3+2 0.586940 0.000000 0.772070 0.957151
Zn11  Zn    Zn3+2 1.000000 0.413060 0.227930 0.957150
Zn12  Zn    Zn3+2 1.000000 0.586940 0.772070 0.964964
Zn13  Zn    Zn3+2 0.586940 0.000000 0.227930 0.964964
Zn14  Zn    Zn3+2 0.413060 0.000000 0.772070 0.957151
Zn15  Zn    Zn3+2 1.000000 0.586940 0.227930 0.957150
Zn16  Zn    Zn3+2 1.000000 0.413060 0.772070 0.964964
O69   O     O_3   0.717817 0.387431 0.729949 -0.602895
C177  C     C_3   0.681469 0.427128 0.749601 0.136630
H49   H     H_    0.716744 0.432904 0.767154 0.107648
H50   H     H_    0.629768 0.399828 0.755202 0.157089
C178  C     C_3   0.663473 0.502839 0.739166 -0.319206
H51   H     H_    0.714566 0.530578 0.733413 0.254109
H52   H     H_    0.628377 0.497675 0.721632 0.229719
C179  C     C_3   0.624188 0.548960 0.759516 -1.008670
H53   H     H_    0.571422 0.523740 0.764779 0.270664
H54   H     H_    0.613612 0.604023 0.751509 0.265112
H55   H     H_    0.658111 0.554500 0.777284 0.260901
O70   O     O_3   0.278040 0.619647 0.275903 -0.613635
C180  C     C_3   0.256003 0.625819 0.302314 0.164778
H56   H     H_    0.238893 0.570910 0.308813 0.157706
H57   H     H_    0.207810 0.662113 0.305154 0.107460
C181  C     C_3   0.318948 0.651018 0.319632 -0.350101
H58   H     H_    0.368605 0.618806 0.315110 0.248509
H59   H     H_    0.330387 0.709260 0.315804 0.249034
C182  C     C_3   0.300548 0.642444 0.348470 -0.984944
H60   H     H_    0.251694 0.675299 0.353455 0.271524
H61   H     H_    0.346909 0.661556 0.360479 0.279632
H62   H     H_    0.290069 0.584494 0.353193 0.261742
O71   O     O_3   0.668311 0.771523 0.704874 -0.618492
C183  C     C_3   0.606501 0.725607 0.704651 0.186106
H63   H     H_    0.562331 0.755675 0.694514 0.167094
H64   H     H_    0.585414 0.712600 0.724517 0.120954
C184  C     C_3   0.621622 0.655331 0.689549 -0.351543
H65   H     H_    0.645898 0.668555 0.670294 0.247463
H66   H     H_    0.660500 0.621064 0.700602 0.251684
C185  C     C_3   0.552110 0.611811 0.685408 -0.997540
H67   H     H_    0.525939 0.599393 0.704406 0.279910
H68   H     H_    0.565264 0.559792 0.675457 0.275412
H69   H     H_    0.513598 0.642982 0.673027 0.272406
O72   O     O_3   0.322055 0.216086 0.296473 -0.616286
C186  C     C_3   0.290089 0.153524 0.307677 0.125772
H70   H     H_    0.332233 0.126819 0.319935 0.166856
H71   H     H_    0.272984 0.112297 0.292991 0.089976
C187  C     C_3   0.225644 0.174576 0.325061 -0.331359
H72   H     H_    0.242777 0.217349 0.339054 0.250726
H73   H     H_    0.180858 0.196616 0.312831 0.232864
C188  C     C_3   0.197390 0.109142 0.340214 -0.950846
H74   H     H_    0.179410 0.065859 0.326596 0.255560
H75   H     H_    0.150353 0.125960 0.352392 0.280480
H76   H     H_    0.240545 0.087139 0.353180 0.277203
O73   O     O_3   0.282183 0.612569 0.729949 -0.602896
C189  C     C_3   0.318529 0.572871 0.749601 0.136633
H77   H     H_    0.283252 0.567094 0.767153 0.107650
H78   H     H_    0.370229 0.600172 0.755204 0.157083
C190  C     C_3   0.336527 0.497161 0.739166 -0.319203
H79   H     H_    0.285436 0.469422 0.733411 0.254109
H80   H     H_    0.371627 0.502327 0.721633 0.229717
C191  C     C_3   0.375809 0.451039 0.759516 -1.008664
H81   H     H_    0.428573 0.476261 0.764781 0.270662
H82   H     H_    0.386389 0.395977 0.751509 0.265111
H83   H     H_    0.341881 0.445496 0.777283 0.260900
O74   O     O_3   0.721960 0.380353 0.275903 -0.613636
C192  C     C_3   0.743997 0.374181 0.302314 0.164778
H84   H     H_    0.761107 0.429090 0.308813 0.157706
H85   H     H_    0.792190 0.337887 0.305154 0.107460
C193  C     C_3   0.681051 0.348982 0.319632 -0.350101
H86   H     H_    0.631395 0.381194 0.315110 0.248509
H87   H     H_    0.669613 0.290740 0.315804 0.249034
C194  C     C_3   0.699452 0.357556 0.348470 -0.984945
H88   H     H_    0.748305 0.324701 0.353454 0.271524
H89   H     H_    0.653090 0.338444 0.360479 0.279632
H90   H     H_    0.709931 0.415506 0.353193 0.261742
O75   O     O_3   0.331689 0.228477 0.704874 -0.618492
C195  C     C_3   0.393499 0.274393 0.704651 0.186107
H91   H     H_    0.437669 0.244325 0.694514 0.167095
H92   H     H_    0.414587 0.287399 0.724517 0.120953
C196  C     C_3   0.378378 0.344669 0.689549 -0.351543
H93   H     H_    0.354102 0.331446 0.670294 0.247464
H94   H     H_    0.339501 0.378936 0.700602 0.251683
C197  C     C_3   0.447890 0.388189 0.685408 -0.997540
H95   H     H_    0.474061 0.400607 0.704406 0.279910
H96   H     H_    0.434737 0.440208 0.675457 0.275412
H97   H     H_    0.486403 0.357018 0.673028 0.272406
O76   O     O_3   0.677945 0.783914 0.296473 -0.616287
C198  C     C_3   0.709911 0.846476 0.307677 0.125772
H98   H     H_    0.667767 0.873181 0.319935 0.166856
H99   H     H_    0.727016 0.887703 0.292991 0.089975
C199  C     C_3   0.774357 0.825424 0.325060 -0.331360
H100  H     H_    0.757225 0.782651 0.339053 0.250726
H101  H     H_    0.819143 0.803384 0.312831 0.232863
C200  C     C_3   0.802611 0.890858 0.340213 -0.950846
H102  H     H_    0.820590 0.934141 0.326596 0.255559
H103  H     H_    0.849649 0.874040 0.352392 0.280481
H104  H     H_    0.759455 0.912861 0.353180 0.277203
O77   O     O_3   0.771523 0.668311 0.295126 -0.618492
C201  C     C_3   0.725607 0.606501 0.295349 0.186105
H105  H     H_    0.755676 0.562331 0.305486 0.167095
H106  H     H_    0.712601 0.585414 0.275483 0.120954
C202  C     C_3   0.655332 0.621622 0.310451 -0.351542
H107  H     H_    0.668555 0.645899 0.329706 0.247463
H108  H     H_    0.621064 0.660500 0.299399 0.251684
C203  C     C_3   0.611811 0.552110 0.314592 -0.997540
H109  H     H_    0.599393 0.525940 0.295594 0.279911
H110  H     H_    0.559793 0.565264 0.324543 0.275412
H111  H     H_    0.642982 0.513598 0.326973 0.272406
O78   O     O_3   0.216086 0.322055 0.703527 -0.616286
C204  C     C_3   0.153525 0.290090 0.692322 0.125774
H112  H     H_    0.126820 0.332234 0.680065 0.166856
H113  H     H_    0.112298 0.272984 0.707009 0.089974
C205  C     C_3   0.174577 0.225645 0.674939 -0.331359
H114  H     H_    0.217350 0.242777 0.660946 0.250726
H115  H     H_    0.196616 0.180858 0.687169 0.232864
C206  C     C_3   0.109143 0.197391 0.659786 -0.950846
H116  H     H_    0.065860 0.179411 0.673404 0.255560
H117  H     H_    0.125961 0.150353 0.647608 0.280481
H118  H     H_    0.087140 0.240546 0.646820 0.277204
O79   O     O_3   0.612568 0.282183 0.270051 -0.602896
C207  C     C_3   0.572871 0.318531 0.250399 0.136630
H119  H     H_    0.567097 0.283256 0.232846 0.107648
H120  H     H_    0.600171 0.370232 0.244798 0.157090
C208  C     C_3   0.497161 0.336526 0.260834 -0.319206
H121  H     H_    0.469422 0.285433 0.266587 0.254110
H122  H     H_    0.502324 0.371623 0.278367 0.229718
C209  C     C_3   0.451039 0.375810 0.240484 -1.008671
H123  H     H_    0.476259 0.428577 0.235221 0.270664
H124  H     H_    0.395976 0.386385 0.248491 0.265112
H125  H     H_    0.445500 0.341887 0.222716 0.260902
O80   O     O_3   0.380353 0.721960 0.724097 -0.613634
C210  C     C_3   0.374181 0.743997 0.697686 0.164780
H126  H     H_    0.429090 0.761107 0.691187 0.157706
H127  H     H_    0.337887 0.792190 0.694846 0.107459
C211  C     C_3   0.348982 0.681052 0.680368 -0.350101
H128  H     H_    0.381194 0.631395 0.684890 0.248509
H129  H     H_    0.290740 0.669613 0.684196 0.249034
C212  C     C_3   0.357556 0.699452 0.651530 -0.984946
H130  H     H_    0.324701 0.748306 0.646545 0.271524
H131  H     H_    0.338444 0.653091 0.639521 0.279632
H132  H     H_    0.415506 0.709931 0.646807 0.261742
O81   O     O_3   0.228477 0.331689 0.295126 -0.618492
C213  C     C_3   0.274393 0.393499 0.295349 0.186106
H133  H     H_    0.244324 0.437669 0.305486 0.167095
H134  H     H_    0.287399 0.414586 0.275483 0.120954
C214  C     C_3   0.344669 0.378378 0.310451 -0.351542
H135  H     H_    0.331445 0.354102 0.329706 0.247463
H136  H     H_    0.378936 0.339500 0.299398 0.251684
C215  C     C_3   0.388189 0.447890 0.314592 -0.997539
H137  H     H_    0.400607 0.474060 0.295594 0.279910
H138  H     H_    0.440208 0.434736 0.324543 0.275412
H139  H     H_    0.357018 0.486402 0.326972 0.272406
O82   O     O_3   0.783914 0.677945 0.703527 -0.616287
C216  C     C_3   0.846475 0.709911 0.692322 0.125772
H140  H     H_    0.873182 0.667766 0.680066 0.166855
H141  H     H_    0.887702 0.727018 0.707009 0.089975
C217  C     C_3   0.825423 0.774354 0.674938 -0.331357
H142  H     H_    0.782651 0.757219 0.660945 0.250724
H143  H     H_    0.803381 0.819141 0.687167 0.232866
C218  C     C_3   0.890857 0.802608 0.659786 -0.950846
H144  H     H_    0.934139 0.820591 0.673403 0.255560
H145  H     H_    0.874038 0.849644 0.647606 0.280481
H146  H     H_    0.912862 0.759452 0.646820 0.277203
O83   O     O_3   0.387431 0.717817 0.270051 -0.602895
C219  C     C_3   0.427129 0.681469 0.250399 0.136628
H147  H     H_    0.432904 0.716744 0.232846 0.107649
H148  H     H_    0.399829 0.629768 0.244798 0.157090
C220  C     C_3   0.502839 0.663474 0.260834 -0.319207
H149  H     H_    0.530577 0.714567 0.266588 0.254111
H150  H     H_    0.497675 0.628377 0.278367 0.229719
C221  C     C_3   0.548961 0.624189 0.240484 -1.008674
H151  H     H_    0.523742 0.571423 0.235221 0.270665
H152  H     H_    0.604024 0.613615 0.248491 0.265112
H153  H     H_    0.554500 0.658113 0.222716 0.260902
O84   O     O_3   0.619647 0.278040 0.724097 -0.613636
C222  C     C_3   0.625819 0.256003 0.697685 0.164779
H154  H     H_    0.570910 0.238893 0.691186 0.157706
H155  H     H_    0.662113 0.207810 0.694846 0.107460
C223  C     C_3   0.651019 0.318948 0.680368 -0.350104
H156  H     H_    0.618806 0.368605 0.684890 0.248509
H157  H     H_    0.709260 0.330387 0.684196 0.249034
C224  C     C_3   0.642444 0.300548 0.651530 -0.984946
H158  H     H_    0.675299 0.251694 0.646545 0.271525
H159  H     H_    0.661556 0.346909 0.639521 0.279633
H160  H     H_    0.584495 0.290069 0.646807 0.261742
O85   O     O_3   0.217817 0.887431 0.229949 -0.602896
C225  C     C_3   0.181469 0.927129 0.249601 0.136629
H161  H     H_    0.216745 0.932904 0.267153 0.107649
H162  H     H_    0.129768 0.899829 0.255202 0.157089
C226  C     C_3   0.163474 0.002839 0.239166 -0.319205
H163  H     H_    0.214567 0.030578 0.233412 0.254110
H164  H     H_    0.128377 0.997675 0.221633 0.229719
C227  C     C_3   0.124190 0.048961 0.259516 -1.008673
H165  H     H_    0.071423 0.023741 0.264779 0.270664
H166  H     H_    0.113615 0.104024 0.251509 0.265112
H167  H     H_    0.158113 0.054499 0.277284 0.260902
O86   O     O_3   0.778040 0.119646 0.775903 -0.613635
C228  C     C_3   0.756003 0.125819 0.802314 0.164782
H168  H     H_    0.738893 0.070910 0.808813 0.157706
H169  H     H_    0.707810 0.162113 0.805154 0.107459
C229  C     C_3   0.818948 0.151018 0.819632 -0.350101
H170  H     H_    0.868605 0.118806 0.815110 0.248508
H171  H     H_    0.830387 0.209260 0.815804 0.249034
C230  C     C_3   0.800548 0.142443 0.848470 -0.984946
H172  H     H_    0.751695 0.175299 0.853454 0.271524
H173  H     H_    0.846909 0.161555 0.860479 0.279632
H174  H     H_    0.790069 0.084494 0.853193 0.261742
O87   O     O_3   0.168311 0.271523 0.204874 -0.618491
C231  C     C_3   0.106501 0.225607 0.204651 0.186105
H175  H     H_    0.062331 0.255675 0.194514 0.167095
H176  H     H_    0.085414 0.212601 0.224517 0.120954
C232  C     C_3   0.121622 0.155331 0.189549 -0.351544
H177  H     H_    0.145898 0.168555 0.170294 0.247464
H178  H     H_    0.160500 0.121064 0.200601 0.251684
C233  C     C_3   0.052110 0.111811 0.185408 -0.997537
H179  H     H_    0.025939 0.099393 0.204406 0.279910
H180  H     H_    0.065264 0.059792 0.175457 0.275412
H181  H     H_    0.013598 0.142982 0.173027 0.272406
O88   O     O_3   0.822055 0.716086 0.796473 -0.616287
C234  C     C_3   0.790089 0.653524 0.807677 0.125773
H182  H     H_    0.832233 0.626819 0.819935 0.166856
H183  H     H_    0.772983 0.612297 0.792991 0.089975
C235  C     C_3   0.725644 0.674576 0.825061 -0.331358
H184  H     H_    0.742777 0.717348 0.839054 0.250726
H185  H     H_    0.680857 0.696616 0.812832 0.232864
C236  C     C_3   0.697390 0.609142 0.840213 -0.950847
H186  H     H_    0.679409 0.565859 0.826596 0.255560
H187  H     H_    0.650352 0.625960 0.852392 0.280480
H188  H     H_    0.740545 0.587138 0.853180 0.277203
O89   O     O_3   0.782183 0.112569 0.229949 -0.602895
C237  C     C_3   0.818530 0.072871 0.249601 0.136633
H189  H     H_    0.783255 0.067096 0.267153 0.107648
H190  H     H_    0.870231 0.100171 0.255202 0.157087
C238  C     C_3   0.836526 0.997161 0.239166 -0.319208
H191  H     H_    0.785434 0.969422 0.233412 0.254110
H192  H     H_    0.871624 0.002326 0.221633 0.229719
C239  C     C_3   0.875811 0.951039 0.259516 -1.008667
H193  H     H_    0.928577 0.976259 0.264779 0.270663
H194  H     H_    0.886387 0.895977 0.251509 0.265112
H195  H     H_    0.841887 0.945499 0.277284 0.260900
O90   O     O_3   0.221960 0.880353 0.775903 -0.613636
C240  C     C_3   0.243997 0.874181 0.802314 0.164780
H196  H     H_    0.261107 0.929090 0.808813 0.157706
H197  H     H_    0.292190 0.837887 0.805154 0.107460
C241  C     C_3   0.181052 0.848981 0.819632 -0.350101
H198  H     H_    0.131395 0.881193 0.815110 0.248509
H199  H     H_    0.169614 0.790739 0.815804 0.249034
C242  C     C_3   0.199452 0.857555 0.848470 -0.984945
H200  H     H_    0.248306 0.824700 0.853455 0.271524
H201  H     H_    0.153091 0.838443 0.860479 0.279632
H202  H     H_    0.209930 0.915505 0.853193 0.261742
O91   O     O_3   0.831689 0.728476 0.204874 -0.618493
C243  C     C_3   0.893499 0.774393 0.204651 0.186106
H203  H     H_    0.937668 0.744324 0.194514 0.167095
H204  H     H_    0.914586 0.787399 0.224517 0.120954
C244  C     C_3   0.878377 0.844669 0.189549 -0.351544
H205  H     H_    0.854101 0.831445 0.170294 0.247464
H206  H     H_    0.839500 0.878936 0.200601 0.251684
C245  C     C_3   0.947889 0.888189 0.185408 -0.997540
H207  H     H_    0.974060 0.900607 0.204406 0.279910
H208  H     H_    0.934735 0.940208 0.175457 0.275413
H209  H     H_    0.986402 0.857018 0.173027 0.272407
O92   O     O_3   0.177945 0.283913 0.796473 -0.616287
C246  C     C_3   0.209909 0.346475 0.807678 0.125776
H210  H     H_    0.167766 0.373179 0.819936 0.166857
H211  H     H_    0.227013 0.387703 0.792991 0.089973
C247  C     C_3   0.274357 0.325424 0.825060 -0.331362
H212  H     H_    0.257226 0.282650 0.839053 0.250728
H213  H     H_    0.319143 0.303386 0.812830 0.232862
C248  C     C_3   0.302610 0.390858 0.840213 -0.950847
H214  H     H_    0.320588 0.434142 0.826596 0.255560
H215  H     H_    0.349649 0.374040 0.852391 0.280480
H216  H     H_    0.259455 0.412859 0.853180 0.277204
O93   O     O_3   0.271523 0.168311 0.795126 -0.618492
C249  C     C_3   0.225607 0.106501 0.795348 0.186107
H217  H     H_    0.255675 0.062331 0.805486 0.167095
H218  H     H_    0.212600 0.085413 0.775483 0.120953
C250  C     C_3   0.155331 0.121621 0.810451 -0.351543
H219  H     H_    0.168554 0.145897 0.829706 0.247463
H220  H     H_    0.121064 0.160499 0.799398 0.251684
C251  C     C_3   0.111811 0.052109 0.814592 -0.997539
H221  H     H_    0.099393 0.025939 0.795594 0.279910
H222  H     H_    0.059792 0.065263 0.824543 0.275412
H223  H     H_    0.142982 0.013596 0.826972 0.272406
O94   O     O_3   0.716086 0.822055 0.203527 -0.616287
C252  C     C_3   0.653524 0.790089 0.192323 0.125773
H224  H     H_    0.626819 0.832233 0.180065 0.166856
H225  H     H_    0.612297 0.772983 0.207009 0.089975
C253  C     C_3   0.674576 0.725644 0.174939 -0.331359
H226  H     H_    0.717348 0.742777 0.160946 0.250726
H227  H     H_    0.696616 0.680858 0.187168 0.232864
C254  C     C_3   0.609142 0.697390 0.159786 -0.950846
H228  H     H_    0.565859 0.679409 0.173404 0.255560
H229  H     H_    0.625960 0.650353 0.147608 0.280480
H230  H     H_    0.587138 0.740545 0.146820 0.277203
O95   O     O_3   0.112569 0.782183 0.770051 -0.602895
C255  C     C_3   0.072871 0.818531 0.750399 0.136628
H231  H     H_    0.067097 0.783256 0.732846 0.107648
H232  H     H_    0.100171 0.870233 0.744798 0.157090
C256  C     C_3   0.997161 0.836525 0.760834 -0.319206
H233  H     H_    0.969422 0.785432 0.766587 0.254110
H234  H     H_    0.002324 0.871622 0.778368 0.229719
C257  C     C_3   0.951039 0.875810 0.740484 -1.008670
H235  H     H_    0.976258 0.928578 0.735222 0.270664
H236  H     H_    0.895975 0.886383 0.748491 0.265111
H237  H     H_    0.945501 0.841888 0.722716 0.260901
O96   O     O_3   0.880353 0.221960 0.224097 -0.613635
C258  C     C_3   0.874181 0.243997 0.197686 0.164778
H238  H     H_    0.929090 0.261107 0.191187 0.157706
H239  H     H_    0.837887 0.292190 0.194846 0.107460
C259  C     C_3   0.848982 0.181052 0.180368 -0.350102
H240  H     H_    0.881194 0.131395 0.184890 0.248509
H241  H     H_    0.790740 0.169613 0.184196 0.249034
C260  C     C_3   0.857556 0.199452 0.151530 -0.984946
H242  H     H_    0.824701 0.248306 0.146545 0.271524
H243  H     H_    0.838444 0.153091 0.139521 0.279633
H244  H     H_    0.915506 0.209931 0.146807 0.261742
O97   O     O_3   0.728477 0.831689 0.795126 -0.618492
C261  C     C_3   0.774393 0.893499 0.795349 0.186105
H245  H     H_    0.744324 0.937668 0.805486 0.167095
H246  H     H_    0.787399 0.914586 0.775483 0.120954
C262  C     C_3   0.844669 0.878377 0.810451 -0.351542
H247  H     H_    0.831445 0.854101 0.829706 0.247463
H248  H     H_    0.878936 0.839499 0.799398 0.251684
C263  C     C_3   0.888189 0.947889 0.814592 -0.997539
H249  H     H_    0.900607 0.974060 0.795594 0.279910
H250  H     H_    0.940208 0.934735 0.824543 0.275412
H251  H     H_    0.857018 0.986402 0.826972 0.272406
O98   O     O_3   0.283914 0.177945 0.203527 -0.616287
C264  C     C_3   0.346476 0.209911 0.192323 0.125771
H252  H     H_    0.373181 0.167767 0.180065 0.166857
H253  H     H_    0.387703 0.227016 0.207009 0.089976
C265  C     C_3   0.325424 0.274356 0.174939 -0.331359
H254  H     H_    0.282651 0.257224 0.160946 0.250726
H255  H     H_    0.303384 0.319143 0.187169 0.232863
C266  C     C_3   0.390858 0.302610 0.159786 -0.950847
H256  H     H_    0.434141 0.320590 0.173404 0.255560
H257  H     H_    0.374040 0.349648 0.147608 0.280481
H258  H     H_    0.412860 0.259455 0.146820 0.277204
O99   O     O_3   0.887431 0.217817 0.770051 -0.602896
C267  C     C_3   0.927129 0.181470 0.750399 0.136633
H259  H     H_    0.932904 0.216746 0.732846 0.107648
H260  H     H_    0.899829 0.129769 0.744797 0.157087
C268  C     C_3   0.002839 0.163474 0.760834 -0.319207
H261  H     H_    0.030578 0.214566 0.766588 0.254110
H262  H     H_    0.997675 0.128376 0.778367 0.229719
C269  C     C_3   0.048961 0.124190 0.740484 -1.008669
H263  H     H_    0.023741 0.071424 0.735220 0.270663
H264  H     H_    0.104024 0.113614 0.748491 0.265111
H265  H     H_    0.054501 0.158115 0.722716 0.260901
O100  O     O_3   0.119647 0.778040 0.224097 -0.613635
C270  C     C_3   0.125819 0.756003 0.197686 0.164778
H266  H     H_    0.070910 0.738893 0.191187 0.157706
H267  H     H_    0.162113 0.707810 0.194846 0.107459
C271  C     C_3   0.151018 0.818948 0.180368 -0.350102
H268  H     H_    0.118806 0.868605 0.184890 0.248508
H269  H     H_    0.209260 0.830387 0.184196 0.249034
C272  C     C_3   0.142444 0.800548 0.151530 -0.984946
H270  H     H_    0.175299 0.751694 0.146545 0.271525
H271  H     H_    0.161556 0.846909 0.139521 0.279633
H272  H     H_    0.084494 0.790069 0.146807 0.261742

loop_
_geom_bond_atom_site_label_1
_geom_bond_atom_site_label_2
_ccdc_geom_bond_type
C132  C144  A    
C232  C233  S    
C254  H228  S    
C188  H74   S    
C112  N4    A    
C74   O86   S    
C250  H219  S    
C148  C151  A    
C175  H31   S    
O79   C207  S    
C196  C197  S    
C58   O70   S    
C59   O71   S    
C62   O74   S    
C21   H45   S    
C45   O51   A    
C205  H114  S    
C270  H267  S    
C112  C124  A    
C63   C98   A    
C262  H248  S    
O69   C177  S    
C268  C269  S    
O9    Zn12  S    
C259  H240  S    
C42   O22   A    
O10   Zn11  S    
C117  O65   S    
C36   C168  A    
C111  O59   S    
O74   C192  S    
C235  H184  S    
O39   Zn6   S    
C13   H37   S    
C120  O68   S    
C39   C171  A    
O3    Zn7   S    
C241  C242  S    
C52   O38   A    
C263  H250  S    
C179  H53   S    
C271  C272  S    
C67   C94   A    
C251  H223  S    
C249  H217  S    
C69   C92   A    
O12   Zn13  S    
O13   Zn8   S    
C119  N7    A    
O36   Zn14  S    
O14   Zn7   S    
C266  H258  S    
C24   H48   S    
C200  H103  S    
C137  C138  A    
C10   C162  A    
C113  C133  A    
C65   O77   S    
C267  C268  S    
C71   O83   S    
C69   O81   S    
C191  H81   S    
O29   Zn11  S    
C209  H123  S    
C206  H118  S    
C61   C100  A    
C18   C170  A    
O5    Zn16  S    
C84   O96   S    
O6    Zn15  S    
C135  C159  A    
C6    O18   A    
C244  H205  S    
O99   C267  S    
C253  H226  S    
C15   H39   S    
C192  C193  S    
O30   Zn12  S    
C182  H61   S    
C44   O24   A    
C197  H96   S    
C108  N4    A    
C186  H70   S    
C21   C29   A    
C35   C163  A    
C23   C31   A    
C214  C215  S    
C33   C161  A    
O93   C249  S    
C166  H22   S    
C73   C88   A    
C247  H212  S    
C221  H152  S    
C204  C205  S    
C220  H150  S    
C22   H46   S    
C75   C86   A    
C15   C27   A    
C11   C27   A    
C139  C140  A    
C248  H216  S    
C249  C250  S    
C186  H71   S    
C246  H211  S    
O75   C195  S    
C14   C26   A    
C272  H272  S    
C39   N4    S    
C125  C149  A    
C49   O39   A    
C267  H260  S    
C243  H203  S    
C218  H145  S    
C188  H76   S    
C257  H236  S    
C83   C100  A    
C236  H187  S    
C56   O42   A    
C264  H252  S    
C250  C251  S    
C201  H106  S    
C260  H244  S    
C1    C32   S    
C266  H256  S    
C24   C176  A    
C220  H149  S    
C131  C143  A    
O86   C228  S    
C207  H120  S    
O100  C270  S    
C57   C104  A    
C80   O92   S    
C48   O28   A    
C48   O50   A    
C177  C178  S    
C59   C102  A    
C6    O14   A    
C205  C206  S    
O1    Zn5   S    
C231  H175  S    
C195  H92   S    
O37   Zn4   S    
C268  H261  S    
O38   Zn3   S    
C257  H237  S    
C50   C100  S    
C105  C125  A    
O78   C204  S    
C176  H32   S    
C107  C127  A    
C79   C96   A    
C240  H197  S    
C155  H11   S    
C260  H242  S    
C239  H193  S    
C109  C121  A    
C179  H55   S    
C53   O33   A    
C131  C155  A    
C198  C199  S    
C42   C92   S    
C122  C146  A    
O1    Zn12  S    
C223  H156  S    
O2    Zn11  S    
C170  H26   S    
C44   C94   S    
O76   C198  S    
C182  H60   S    
C147  H3    S    
C222  C223  S    
C46   C96   S    
C54   O44   A    
C178  H51   S    
C254  H230  S    
C174  H30   S    
C88   O100  S    
C72   O84   S    
C67   O79   S    
C202  H107  S    
O35   Zn13  S    
C76   C85   A    
C191  H83   S    
C143  C144  A    
C66   C95   A    
C46   O26   A    
C234  C235  S    
C213  H134  S    
C46   O52   A    
C70   C91   A    
C183  C184  S    
C269  H264  S    
C265  H254  S    
C120  N8    A    
C200  H102  S    
C256  C257  S    
C208  H122  S    
C216  H140  S    
C154  H10   S    
O20   Zn5   S    
C7    C26   S    
C203  H109  S    
C251  H222  S    
C73   C90   A    
C210  H127  S    
C37   C169  A    
C38   C174  A    
C213  C214  S    
C189  H77   S    
C79   O91   S    
C77   C94   A    
C42   O48   A    
C227  H165  S    
C146  H2    S    
C223  C224  S    
C16   H40   S    
C35   N8    S    
C121  C137  A    
C153  C158  A    
C177  H50   S    
C127  C151  A    
O52   Zn6   S    
C128  C152  A    
C243  C244  S    
C44   O46   A    
C218  H144  S    
C215  H137  S    
C107  N3    A    
C264  C265  S    
C119  C131  A    
C105  N1    A    
C74   C87   A    
C14   C166  A    
C117  C129  A    
C145  C150  A    
C193  C194  S    
C241  H199  S    
C230  H174  S    
C48   C90   S    
C116  N8    A    
C180  H57   S    
C15   C167  A    
C212  H130  S    
C231  C232  S    
C11   C163  A    
C204  H113  S    
C193  H87   S    
C20   H44   S    
C65   C96   A    
C113  O61   S    
C225  H162  S    
C228  H169  S    
C118  O66   S    
C115  O63   S    
C239  H195  S    
C87   O99   S    
O48   Zn2   S    
C219  H147  S    
C39   C175  A    
C110  N2    A    
C190  C191  S    
O32   Zn10  S    
C40   C176  A    
C217  H142  S    
C194  H90   S    
C77   C84   A    
C1    O5    A    
C51   O31   A    
C252  H225  S    
C105  O53   S    
C62   C99   A    
C7    O19   A    
C226  H164  S    
C212  H132  S    
C107  O55   S    
O49   Zn7   S    
C238  H191  S    
C108  O56   S    
O50   Zn8   S    
C49   C99   S    
C2    O10   A    
C185  H68   S    
C208  H121  S    
C43   O45   A    
C178  C179  S    
C66   O78   S    
C114  C134  A    
C161  H17   S    
C258  H239  S    
C108  C128  A    
C80   C95   A    
C9    C161  A    
C224  H159  S    
O3    Zn14  S    
C68   O80   S    
C233  H180  S    
O4    Zn9   S    
C41   C91   S    
C23   H47   S    
O84   C222  S    
C118  N6    A    
C184  H66   S    
C40   N3    S    
C271  H269  S    
C34   N5    S    
O31   Zn9   S    
C230  H172  S    
C45   C95   S    
C265  C266  S    
C200  H104  S    
C207  H119  S    
C185  H69   S    
C264  H253  S    
C20   C32   A    
C216  C217  S    
C232  H178  S    
C245  H207  S    
C8    O20   A    
C246  C247  S    
C22   C30   A    
C247  C248  S    
C134  C158  A    
C269  H263  S    
C203  H111  S    
C33   C165  A    
C181  C182  S    
C119  O67   S    
O94   C252  S    
C34   C162  A    
C76   O88   S    
C79   C82   A    
C164  H20   S    
C113  N5    A    
O8    Zn9   S    
C202  C203  S    
C83   O95   S    
C227  H167  S    
C205  H115  S    
C128  C140  A    
C262  H247  S    
C129  C153  A    
C268  H262  S    
C71   C90   A    
C115  C135  A    
C60   C69   A    
C215  H139  S    
C117  N5    A    
C132  C156  A    
C133  C157  A    
C70   O82   S    
C221  H151  S    
C56   O36   A    
C242  H202  S    
C233  H179  S    
O3    Zn10  S    
C136  C160  A    
O4    Zn13  S    
C19   H43   S    
C217  H143  S    
O81   C213  S    
C167  H23   S    
C249  H218  S    
C211  H128  S    
C236  H186  S    
C4    O12   A    
C85   C102  A    
O87   C231  S    
C229  H170  S    
C259  C260  S    
C18   H42   S    
C73   O85   S    
C235  C236  S    
C17   C29   A    
C203  H110  S    
C219  C220  S    
C19   C31   A    
O23   Zn14  S    
C191  H82   S    
C261  H245  S    
O43   Zn2   S    
C9    C25   A    
C194  H88   S    
C150  H6    S    
C109  O57   S    
C263  H249  S    
C124  C148  A    
C158  H14   S    
C52   C102  S    
C237  H189  S    
C12   C28   A    
O1    Zn16  S    
C54   C104  S    
C183  H64   S    
O2    Zn15  S    
C238  C239  S    
C192  H85   S    
C80   C81   A    
O27   Zn10  S    
C58   C71   A    
C23   C175  A    
C81   C98   A    
C14   H38   S    
C214  H136  S    
O80   C210  S    
C247  H213  S    
C47   O49   A    
C78   C83   A    
C126  C138  A    
C256  H233  S    
C47   O27   A    
C248  H215  S    
C253  C254  S    
C266  H257  S    
C272  H271  S    
C4    C29   S    
C207  C208  S    
C75   O87   S    
C243  H204  S    
C63   C66   A    
C246  H210  S    
C148  H4    S    
C210  H126  S    
C120  C132  A    
O85   C225  S    
O21   Zn12  S    
C149  H5    S    
C8    C25   S    
C250  H220  S    
C269  H265  S    
O22   Zn11  S    
O3    Zn3   S    
O4    Zn4   S    
O41   Zn8   S    
O42   Zn7   S    
C38   C170  A    
C38   N1    S    
O72   C186  S    
C156  H12   S    
C52   O32   A    
C41   O21   A    
C186  C187  S    
C111  C123  A    
C5    O17   A    
O16   Zn1   S    
C270  C271  S    
O40   Zn5   S    
C122  C138  A    
C154  C157  A    
C231  H176  S    
C262  C263  S    
C49   O29   A    
O26   Zn15  S    
O70   C180  S    
C129  C141  A    
C196  H94   S    
O92   C246  S    
C63   O75   S    
O33   Zn15  S    
C239  H194  S    
O34   Zn16  S    
C242  H200  S    
C240  H196  S    
C41   O47   A    
C159  H15   S    
C12   C164  A    
C146  C149  A    
C13   C165  A    
O71   C183  S    
C163  H19   S    
C55   C97   S    
O2    Zn2   S    
C64   O76   S    
C183  H63   S    
C199  H101  S    
C151  H7    S    
C160  H16   S    
C229  C230  S    
C222  H155  S    
C114  O62   S    
C254  H229  S    
C82   C97   A    
O25   Zn16  S    
C40   C172  A    
C61   O73   S    
C261  H246  S    
O4    Zn8   S    
C263  H251  S    
O97   C261  S    
C50   O30   A    
C234  H183  S    
C116  O64   S    
C168  H24   S    
C106  O54   S    
C84   C99   A    
C237  H190  S    
C124  C140  A    
C5    O13   A    
C265  H255  S    
C182  H62   S    
C190  H79   S    
C198  H98   S    
C256  H234  S    
C45   O25   A    
C197  H95   S    
C116  C136  A    
C51   C101  S    
C106  C126  A    
C133  C141  A    
C219  H148  S    
C125  C137  A    
C64   C65   A    
C244  C245  S    
C85   O97   S    
C123  C147  A    
C136  C144  A    
C110  C122  A    
C220  C221  S    
C189  H78   S    
C53   C103  S    
C36   N7    S    
C255  H231  S    
C43   C93   S    
C227  H166  S    
C147  C152  A    
C57   C72   A    
C171  H27   S    
C59   C70   A    
C169  H25   S    
O24   Zn13  S    
C218  H146  S    
O82   C216  S    
C8    O16   A    
C215  H138  S    
C257  H235  S    
C236  H188  S    
C258  H238  S    
C36   C164  A    
C201  H105  S    
C173  H29   S    
C34   C166  A    
C130  C154  A    
O7    Zn10  S    
O18   Zn3   S    
C3    O7    A    
O45   Zn3   S    
C189  C190  S    
C16   C28   A    
O46   Zn4   S    
C184  H65   S    
C230  H173  S    
O47   Zn1   S    
C123  C139  A    
O28   Zn9   S    
C126  C150  A    
C180  H56   S    
C270  H266  S    
C56   C98   S    
O83   C219  S    
C195  H91   S    
C197  H97   S    
C24   C32   A    
C204  H112  S    
C252  H224  S    
C232  H177  S    
C178  H52   S    
C225  C226  S    
C228  H168  S    
C54   O34   A    
C259  H241  S    
C62   C67   A    
C222  H154  S    
C118  C130  A    
C74   C89   A    
O90   C240  S    
C19   C171  A    
C240  C241  S    
C165  H21   S    
C190  H80   S    
C253  H227  S    
C17   C169  A    
C194  H89   S    
O17   Zn4   S    
C134  C142  A    
C78   C93   A    
C234  H182  S    
C226  H163  S    
C181  H58   S    
C212  H131  S    
O91   C243  S    
C245  H209  S    
C11   H35   S    
C206  H116  S    
C9    H33   S    
C206  H117  S    
C201  C202  S    
C35   C167  A    
C106  N2    A    
C57   O69   S    
C18   C30   A    
C87   C104  A    
C152  H8    S    
C224  H158  S    
C115  N7    A    
C60   C101  A    
C10   C26   A    
C82   O94   S    
C213  H133  S    
C110  O58   S    
C47   C89   S    
C199  C200  S    
C13   C25   A    
O96   C258  S    
C127  C139  A    
C130  C142  A    
C255  H232  S    
C22   C174  A    
C235  H185  S    
C10   H34   S    
C208  C209  S    
C244  H206  S    
C216  H141  S    
C4    O8    A    
C245  H208  S    
C252  C253  S    
C55   O41   A    
C260  H243  S    
C209  H125  S    
C55   O35   A    
C251  H221  S    
C12   H36   S    
C210  C211  S    
O95   C255  S    
C109  N1    A    
C2    O6    A    
C76   C91   A    
C221  H153  S    
C77   O89   S    
O89   C237  S    
C255  C256  S    
C2    C31   S    
C60   O72   S    
C188  H75   S    
C3    C30   S    
C223  H157  S    
C177  H49   S    
C7    O15   A    
C5    C28   S    
C6    C27   S    
C53   O43   A    
C192  H84   S    
C162  H18   S    
C3    O11   A    
C78   O90   S    
C242  H201  S    
C1    O9    A    
C75   C92   A    
C179  H54   S    
C241  H198  S    
C50   O40   A    
C187  H72   S    
C187  H73   S    
C51   O37   A    
O15   Zn2   S    
C112  O60   S    
C180  C181  S    
C121  C145  A    
C202  H108  S    
C211  H129  S    
C33   N6    S    
C195  C196  S    
C88   C103  A    
C17   H41   S    
C193  H86   S    
C229  H171  S    
C43   O23   A    
C225  H161  S    
C37   N2    S    
C228  C229  S    
C20   C172  A    
C155  C160  A    
O88   C234  S    
C64   C97   A    
C156  C159  A    
O44   Zn1   S    
C267  H259  S    
C233  H181  S    
C114  N6    A    
C209  H124  S    
C187  C188  S    
O73   C189  S    
C21   C173  A    
C68   C93   A    
C226  C227  S    
C111  N3    A    
C211  C212  S    
C217  C218  S    
C238  H192  S    
C141  C142  A    
C86   O98   S    
C72   C89   A    
C198  H99   S    
C61   C68   A    
C185  H67   S    
C153  H9    S    
C16   C168  A    
O19   Zn6   S    
C135  C143  A    
O2    Zn6   S    
C258  C259  S    
O77   C201  S    
C81   O93   S    
C214  H135  S    
C224  H160  S    
C157  H13   S    
C261  C262  S    
C37   C173  A    
O51   Zn5   S    
C181  H59   S    
C237  C238  S    
C248  H214  S    
C184  C185  S    
C145  H1    S    
C172  H28   S    
O11   Zn14  S    
C199  H100  S    
O1    Zn1   S    
C58   C103  A    
C272  H270  S    
C86   C101  A    
C271  H268  S    
C196  H93   S    
O98   C264  S    
