data_mof_unit_18895.cif
_audit_creation_date              2012-10-26T19:21:29-0400
_audit_creation_method            fapswitch 2.2
_symmetry_space_group_name_H-M    P1
_symmetry_Int_Tables_number       1
_space_group_crystal_system       triclinic
_cell_length_a                    9.809895
_cell_length_b                    11.046501
_cell_length_c                    15.639089
_cell_angle_alpha                 94.624137
_cell_angle_beta                  79.449499
_cell_angle_gamma                 111.225378
_cell_volume                      1552.86807728

loop_
_atom_site_label
_atom_site_type_symbol
_atom_type_description
_atom_site_fract_x
_atom_site_fract_y
_atom_site_fract_z
_atom_type_partial_charge
C1    C     C_R   0.556099 0.745415 0.506210 0.563128
C2    C     C_2   0.515604 0.069446 0.501841 -0.154791
C3    C     C_2   0.923045 0.489936 0.492403 -0.012674
C4    C     C_2   0.076810 0.509837 0.507719 -0.012523
C5    C     C_R   0.411059 0.484162 0.663385 0.543495
C6    C     C_R   0.587905 0.511000 0.336456 0.546971
C7    C     C_R   0.354862 0.456022 0.756472 -0.015780
C8    C     C_R   0.636438 0.501488 0.241953 -0.007493
C9    C     C_R   0.152364 0.367834 0.874808 -0.121992
C10   C     C_R   0.822082 0.491770 0.118751 -0.118544
C11   C     C_R   0.202521 0.406763 0.788509 -0.111119
C12   C     C_R   0.443875 0.254586 0.493840 0.559804
C13   C     C_R   0.781992 0.510342 0.207711 -0.115934
C14   C     C_R   0.455551 0.465790 0.812068 -0.138698
C15   C     C_R   0.531900 0.472801 0.185967 -0.139518
C16   C     C_R   0.407117 0.414509 0.896291 0.013119
C17   C     C_R   0.565987 0.440482 0.097805 0.012147
C18   C     C_R   0.253590 0.373123 0.929225 0.017456
C19   C     C_R   0.715704 0.458772 0.063474 0.025139
C20   C     C_R   0.507886 0.410979 0.950340 -0.013457
C21   C     C_R   0.457542 0.399526 0.041704 -0.014443
C22   C     C_2   0.238833 0.280152 0.157478 0.205009
C23   C     C_R   0.301476 0.345466 0.072180 0.006826
C24   C     C_2   0.699940 0.373757 0.827211 0.202874
C25   C     C_R   0.655595 0.415866 0.917433 0.008170
C26   C     C_R   0.202273 0.334633 0.015417 -0.100267
C27   C     C_R   0.757477 0.441750 0.974650 -0.096261
C28   C     C_2   0.587721 0.884494 0.509676 -0.121925
C29   C     C_2   0.412194 0.115515 0.490513 -0.125171
C30   C     C_2   0.484174 0.930564 0.498611 -0.156130
Cu1   Cu    Cu3+1 0.362980 0.479380 0.485080 0.955771
Cu2   Cu    Cu3+1 0.637020 0.520620 0.514920 0.953404
H1    H     H_    0.083705 0.294799 0.038296 0.153745
H2    H     H_    0.375269 0.865628 0.487009 0.157079
H3    H     H_    0.303566 0.050304 0.478770 0.108238
H4    H     H_    0.696425 0.949712 0.521292 0.110463
H5    H     H_    0.122290 0.577990 0.558137 0.152839
H6    H     H_    0.877489 0.421678 0.442049 0.150856
H7    H     H_    0.111329 0.384442 0.415063 0.222483
H8    H     H_    0.888743 0.615630 0.584880 0.213900
H9    H     H_    0.307000 0.248352 0.191154 0.118013
H10   H     H_    0.616281 0.314099 0.789567 0.122255
H11   H     H_    0.870451 0.448139 0.949932 0.143793
H12   H     H_    0.424114 0.477753 0.211708 0.140618
H13   H     H_    0.572320 0.514697 0.789005 0.142199
H14   H     H_    0.864833 0.531961 0.249482 0.139337
H15   H     H_    0.122329 0.397225 0.746802 0.178986
H16   H     H_    0.034210 0.331219 0.898605 0.127020
H17   H     H_    0.936116 0.502093 0.093216 0.117410
H18   H     H_    0.624436 0.134380 0.513570 0.161982
N1    N     N_2   0.842890 0.551600 0.537350 -0.346000
N2    N     N_2   0.157110 0.448400 0.462650 -0.350599
O1    O     O_R   0.426810 0.668300 0.492040 -0.496569
O2    O     O_2   0.830356 0.403616 0.794263 -0.540829
O3    O     O_R   0.573190 0.331700 0.507960 -0.495611
O4    O     O_R   0.658240 0.703130 0.517240 -0.486650
O5    O     O_R   0.341760 0.296870 0.482760 -0.485479
O6    O     O_R   0.319390 0.472820 0.610170 -0.494744
O7    O     O_R   0.680610 0.527180 0.389830 -0.496996
O8    O     O_R   0.550820 0.507640 0.635370 -0.490534
O9    O     O_R   0.449180 0.492360 0.364630 -0.491512
O10   O     O_2   0.109788 0.259292 0.190548 -0.522285

loop_
_geom_bond_atom_site_label_1
_geom_bond_atom_site_label_2
_ccdc_geom_bond_type
C1    C28   S    
C6    C8    S    
Cu2   N1    S    
C8    C13   A    
C12   C29   S    
C25   C27   A    
H8    N1    S    
C19   C27   A    
C29   H3    S    
C26   H1    S    
C11   H15   S    
Cu1   Cu2   S    
C18   C26   A    
C2    C30   S    
Cu1   N2    S    
C16   C20   A    
Cu1   O5    S    
C28   C30   D    
H7    N2    S    
Cu1   O9    S    
Cu1   O1    S    
C7    C11   A    
C9    C11   A    
Cu2   O8    S    
C28   H4    S    
C5    O6    A    
C4    N2    D    
C2    C29   D    
C12   O5    A    
Cu2   O7    S    
Cu1   O6    S    
C17   C19   A    
C10   C19   A    
Cu2   O4    S    
C15   H12   S    
C8    C15   A    
C5    C7    S    
C21   C23   A    
C2    H18   S    
C13   H14   S    
C14   C16   A    
C22   H9    S    
C22   O10   D    
C20   C25   A    
C30   H2    S    
C24   O2    D    
C3    C4    S    
C12   O3    A    
C27   H11   S    
C9    C18   A    
C24   H10   S    
C24   C25   S    
C6    O9    A    
C9    H16   S    
C16   C18   A    
C23   C26   A    
C15   C17   A    
C1    O1    A    
C22   C23   S    
C3    N1    D    
Cu2   O3    S    
C5    O8    A    
C14   H13   S    
C20   C21   A    
C10   H17   S    
C6    O7    A    
C1    O4    A    
C7    C14   A    
C17   C21   A    
C3    H6    S    
C4    H5    S    
C10   C13   A    
