data_mof_unit_31659.cif
_audit_creation_date              2012-12-10T17:49:33-0500
_audit_creation_method            fapswitch 2.2
_symmetry_space_group_name_H-M    P1
_symmetry_Int_Tables_number       1
_space_group_crystal_system       triclinic
_cell_length_a                    14.719915
_cell_length_b                    14.586778
_cell_length_c                    15.838907
_cell_angle_alpha                 76.721035
_cell_angle_beta                  102.869649
_cell_angle_gamma                 114.962396
_cell_volume                      2970.08803005

loop_
_atom_site_label
_atom_site_type_symbol
_atom_type_description
_atom_site_fract_x
_atom_site_fract_y
_atom_site_fract_z
_atom_type_partial_charge
C1    C     C_R   0.880254 0.311854 0.512068 0.802297
C2    C     C_3   0.072508 0.448382 0.077009 -0.540645
C3    C     C_3   0.004954 0.503767 0.083522 0.005038
C4    C     C_3   0.053101 0.616363 0.036981 0.285283
C5    C     C_3   0.050534 0.618784 0.936390 0.177251
C6    C     C_1   0.006102 0.503597 0.176184 0.073458
C7    C     C_1   0.004498 0.502761 0.825234 -0.045923
C8    C     C_1   0.002011 0.501931 0.749298 -0.223750
C9    C     C_R   0.812315 0.204616 0.506251 -0.080444
C10   C     C_R   0.188696 0.799462 0.476862 -0.269795
C11   C     C_R   0.781032 0.033369 0.484485 0.160226
C12   C     C_R   0.000259 0.500427 0.659662 0.816626
C13   C     C_R   0.848677 0.131999 0.500799 -0.233308
C14   C     C_R   0.708220 0.178505 0.496167 -0.268917
C15   C     C_R   0.638452 0.083094 0.474885 0.040967
C16   C     C_R   0.675396 0.008633 0.471496 0.148835
C17   C     C_R   0.532590 0.059305 0.459235 0.074246
C18   C     C_R   0.464399 0.956462 0.456021 0.109598
C19   C     C_R   0.502478 0.885693 0.446851 -0.193428
C20   C     C_R   0.605932 0.911508 0.453937 -0.255815
C21   C     C_R   0.492615 0.135168 0.444359 -0.222434
C22   C     C_R   0.389031 0.109171 0.433734 -0.144283
C23   C     C_R   0.120110 0.688960 0.487371 0.848094
C24   C     C_R   0.321758 0.006495 0.443174 -0.050183
C25   C     C_R   0.359807 0.928709 0.458975 -0.089302
C26   C     C_R   0.217840 0.981164 0.440644 0.470254
C27   C     C_R   0.152055 0.878549 0.460478 -0.016891
C28   C     C_R   0.294186 0.826463 0.484306 0.334667
C29   C     C_R   0.705934 0.654409 0.343909 -0.409148
C30   C     C_R   0.793540 0.632700 0.371377 0.675438
C31   C     C_R   0.716498 0.512124 0.491006 -0.085536
C32   C     C_R   0.626508 0.531718 0.465658 0.009598
C33   C     C_R   0.623431 0.604174 0.390114 0.082088
C34   C     C_R   0.000992 0.500924 0.340450 0.821321
C35   C     C_R   0.539432 0.481323 0.510779 -0.018719
C36   C     C_R   0.451755 0.506301 0.479684 0.064345
C37   C     C_R   0.449473 0.571920 0.397972 0.134331
C38   C     C_R   0.535944 0.622770 0.357268 -0.236161
C39   C     C_R   0.535923 0.404223 0.584000 -0.313478
C40   C     C_R   0.450653 0.352354 0.626416 0.446106
C41   C     C_R   0.366044 0.378457 0.598683 0.047915
C42   C     C_R   0.368128 0.459881 0.529065 -0.077928
C43   C     C_R   0.279482 0.324888 0.640747 -0.282545
C44   C     C_R   0.199065 0.355967 0.617846 0.049281
C45   C     C_3   0.073236 0.444733 0.979367 0.334817
C46   C     C_R   0.286647 0.492280 0.513860 0.071356
C47   C     C_3   0.894548 0.451130 0.939860 0.130310
C48   C     C_3   0.892728 0.446108 0.040664 0.814966
C49   C     C_1   0.003924 0.502666 0.251364 -0.205242
C50   C     C_3   0.006408 0.503656 0.918236 0.085327
Cu1   Cu    Cu3+1 0.081750 0.475690 0.522550 0.945667
Cu2   Cu    Cu3+1 0.918250 0.524310 0.477450 0.957694
H1    H     H_    0.047134 0.370277 0.115956 0.221544
H2    H     H_    0.150819 0.488822 0.109432 0.176967
H3    H     H_    0.630956 0.854046 0.446842 0.179361
H4    H     H_    0.362364 0.170425 0.421689 0.182445
H5    H     H_    0.929510 0.152477 0.507822 0.157442
H6    H     H_    0.682828 0.233992 0.506298 0.163327
H7    H     H_    0.452882 0.810675 0.430708 0.195268
H8    H     H_    0.539532 0.215927 0.436772 0.143626
H9    H     H_    0.532488 0.674064 0.296117 0.142096
H10   H     H_    0.287983 0.561481 0.471263 0.195173
H11   H     H_    0.132186 0.314224 0.649768 0.131509
H12   H     H_    0.698960 0.707604 0.285371 0.147375
H13   H     H_    0.725612 0.457770 0.547361 0.139914
H14   H     H_    0.855467 0.500641 0.900054 0.090062
H15   H     H_    0.597590 0.379859 0.609069 0.153103
H16   H     H_    0.273589 0.259394 0.691381 0.173701
H17   H     H_    0.134188 0.645612 0.067870 0.087711
N1    N     N_R   0.795410 0.560790 0.443550 -0.209131
N2    N     N_R   0.204590 0.439170 0.556520 -0.196000
O1    O     O_R   0.977910 0.338120 0.529720 -0.588922
O2    O     O_R   0.839850 0.379180 0.491640 -0.590259
O3    O     O_R   0.069060 0.479460 0.639610 -0.584572
O4    O     O_R   0.931000 0.520530 0.601530 -0.588640
O5    O     O_R   0.160150 0.620820 0.508360 -0.542392
O6    O     O_R   0.022090 0.661880 0.470280 -0.565179
O7    O     O_R   0.069000 0.479470 0.398470 -0.574296
O8    O     O_R   0.930940 0.520540 0.360390 -0.521218
N3    N     N_3   0.178554 0.495290 0.961247 -0.551800
H18   H     H_    0.221088 0.456067 0.002599 0.223083
H19   H     H_    0.181026 0.489126 0.897369 0.226681
O9    O     O_3   0.002249 0.674619 0.051159 -0.570469
C51   C     C_3   0.070707 0.772001 0.072795 0.038419
H20   H     H_    0.028506 0.822897 0.055309 0.175414
H21   H     H_    0.134689 0.808213 0.033675 0.112486
C52   C     C_3   0.110543 0.765695 0.171392 -0.353898
H22   H     H_    0.046323 0.723394 0.209517 0.242865
H23   H     H_    0.161313 0.723453 0.188874 0.199954
C53   C     C_3   0.169302 0.871908 0.197906 -0.933818
H24   H     H_    0.235826 0.914755 0.162380 0.260203
H25   H     H_    0.196397 0.864478 0.269452 0.254264
H26   H     H_    0.120010 0.915602 0.182944 0.246899
O10   O     O_3   0.334065 0.753983 0.524941 -0.612687
C54   C     C_3   0.361292 0.760507 0.615472 0.090515
H27   H     H_    0.296562 0.755419 0.644549 0.128342
H28   H     H_    0.426615 0.833886 0.626138 0.149200
C55   C     C_3   0.391786 0.671631 0.662431 -0.323244
H29   H     H_    0.325606 0.598341 0.655265 0.235609
H30   H     H_    0.453509 0.672576 0.632133 0.219550
C56   C     C_3   0.427492 0.677583 0.759867 -0.942728
H31   H     H_    0.495561 0.748936 0.769261 0.258425
H32   H     H_    0.447292 0.610989 0.791937 0.261273
H33   H     H_    0.366468 0.675830 0.791538 0.262585
N4    N     N_3   0.051149 0.858926 0.471904 -0.565419
H34   H     H_    0.036431 0.815171 0.533342 0.230910
H35   H     H_    0.999703 0.819825 0.422709 0.246516
N5    N     N_3   0.819156 0.959040 0.479469 -0.611381
H36   H     H_    0.897948 0.992278 0.482488 0.228437
H37   H     H_    0.803439 0.903281 0.535052 0.214099
N6    N     N_3   0.035881 0.336950 0.966483 -0.593260
H38   H     H_    0.018663 0.330445 0.899925 0.230415
H39   H     H_    0.972096 0.289997 0.996897 0.286728
O11   O     O_3   0.182142 0.058258 0.427409 -0.596942
C57   C     C_3   0.122430 0.061784 0.343951 0.086008
H40   H     H_    0.059394 0.081225 0.350840 0.174624
H41   H     H_    0.086651 0.987567 0.317938 0.121440
C58   C     C_3   0.185645 0.145151 0.277571 -0.391469
H42   H     H_    0.221661 0.218986 0.303611 0.232783
H43   H     H_    0.246270 0.124231 0.267167 0.216504
C59   C     C_3   0.120489 0.158491 0.189748 -0.901077
H44   H     H_    0.084642 0.085898 0.161860 0.248873
H45   H     H_    0.168504 0.219013 0.143006 0.262958
H46   H     H_    0.060542 0.181664 0.198075 0.258905
O12   O     O_3   0.449278 0.271928 0.693118 -0.613808
C60   C     C_3   0.479100 0.308235 0.774408 0.015942
H47   H     H_    0.433453 0.350050 0.781210 0.146884
H48   H     H_    0.560364 0.360877 0.780928 0.126399
C61   C     C_3   0.463267 0.216687 0.847946 -0.307198
H49   H     H_    0.384751 0.158856 0.835997 0.226006
H50   H     H_    0.516709 0.180894 0.848216 0.215470
C62   C     C_3   0.479543 0.248048 0.937353 -0.960924
H51   H     H_    0.556984 0.306230 0.950750 0.243000
H52   H     H_    0.469722 0.180215 0.989184 0.256475
H53   H     H_    0.423810 0.279956 0.939616 0.260570
O13   O     O_3   0.876069 0.674482 0.325055 -0.586253
C63   C     C_3   0.885323 0.766261 0.266392 -0.024584
H54   H     H_    0.967423 0.812575 0.265468 0.168310
H55   H     H_    0.857371 0.815527 0.288573 0.131218
C64   C     C_3   0.837753 0.743647 0.173002 -0.332684
H56   H     H_    0.876278 0.703929 0.151251 0.260433
H57   H     H_    0.756611 0.691890 0.170809 0.209970
C65   C     C_3   0.847233 0.842100 0.109332 -0.930910
H58   H     H_    0.804757 0.880291 0.127613 0.259398
H59   H     H_    0.815407 0.824007 0.041881 0.255655
H60   H     H_    0.927967 0.895239 0.110082 0.248732
N7    N     N_3   0.357442 0.579196 0.349670 -0.623057
H61   H     H_    0.343184 0.552639 0.290145 0.223578
H62   H     H_    0.367859 0.656361 0.335757 0.209458
O14   O     O_3   0.846757 0.350258 0.918145 -0.604329
C66   C     C_3   0.777424 0.342367 0.839690 0.042745
H63   H     H_    0.800629 0.412318 0.789704 0.143744
H64   H     H_    0.702236 0.327736 0.855187 0.138232
C67   C     C_3   0.769327 0.251845 0.801081 -0.314291
H65   H     H_    0.845989 0.262397 0.791755 0.217158
H66   H     H_    0.738760 0.180138 0.847597 0.219890
C68   C     C_3   0.700929 0.241743 0.713006 -0.938766
H67   H     H_    0.623828 0.231645 0.720133 0.284606
H68   H     H_    0.695286 0.173896 0.688344 0.262338
H69   H     H_    0.733070 0.310729 0.664461 0.248495
O15   O     O_3   0.864904 0.341837 0.083998 -0.631258
C69   C     C_3   0.768629 0.290369 0.112167 0.128307
H70   H     H_    0.751460 0.207286 0.120165 0.158429
H71   H     H_    0.706515 0.300168 0.062510 0.118951
C70   C     C_3   0.769393 0.313687 0.202188 -0.354257
H72   H     H_    0.831496 0.298395 0.249406 0.218183
H73   H     H_    0.782718 0.395125 0.198272 0.254828
C71   C     C_3   0.669259 0.247513 0.237219 -0.917943
H74   H     H_    0.605682 0.261029 0.191045 0.251948
H75   H     H_    0.671771 0.267447 0.301524 0.268582
H76   H     H_    0.655799 0.165183 0.246469 0.260468
O16   O     O_3   0.835014 0.497055 0.057927 -0.616638
C72   C     C_3   0.740479 0.484519 0.004737 0.002991
H77   H     H_    0.681257 0.451319 0.048559 0.162619
H78   H     H_    0.717762 0.431893 0.956539 0.108153
C73   C     C_3   0.740906 0.588844 0.958234 -0.291646
H79   H     H_    0.754781 0.637795 0.007901 0.231529
H80   H     H_    0.802582 0.627294 0.917142 0.246137
C74   C     C_3   0.640281 0.578162 0.900100 -0.970345
H81   H     H_    0.626255 0.531753 0.848352 0.250531
H82   H     H_    0.642561 0.655128 0.868094 0.264769
H83   H     H_    0.577097 0.540981 0.939863 0.261707
N8    N     N_3   0.154359 0.674609 0.914298 -0.585576
H84   H     H_    0.153201 0.682578 0.846795 0.223116
H85   H     H_    0.183490 0.748857 0.929221 0.195077
N9    N     N_3   0.986475 0.672664 0.883119 -0.604756
H86   H     H_    0.019300 0.749513 0.891842 0.231250
H87   H     H_    0.983836 0.673435 0.816482 0.206632

loop_
_geom_bond_atom_site_label_1
_geom_bond_atom_site_label_2
_ccdc_geom_bond_type
C10   C27   A    
C65   H60   S    
C52   H22   S    
C60   H47   S    
C12   O3    A    
C41   C42   A    
C36   C42   A    
C54   H27   S    
C64   C65   S    
C23   O5    A    
C9    C14   A    
C3    C6    S    
C26   O11   S    
O11   C57   S    
C54   C55   S    
C7    C8    T    
C70   H72   S    
C72   H77   S    
C25   C28   A    
C63   H55   S    
C26   C27   A    
C68   H67   S    
C46   H10   S    
C36   C37   A    
N7    H62   S    
C51   H21   S    
C61   H49   S    
N8    H85   S    
C65   H58   S    
C13   H5    S    
C27   N4    S    
C15   C16   A    
C29   C33   A    
C3    C48   S    
N5    H36   S    
C44   N2    A    
C28   O10   S    
C18   C19   A    
C42   C46   A    
C66   C67   S    
C9    C13   A    
C58   H42   S    
C59   H46   S    
C56   H33   S    
C48   O16   S    
C51   H20   S    
C31   N1    A    
N7    H61   S    
C62   H51   S    
C57   H41   S    
C47   C48   S    
C66   H63   S    
C51   C52   S    
C73   H79   S    
Cu2   O8    S    
C47   H14   S    
C67   H66   S    
C61   C62   S    
C8    C12   S    
C38   H9    S    
Cu2   O4    S    
C71   H75   S    
C29   H12   S    
C56   H32   S    
C21   C22   A    
C41   C43   A    
C70   H73   S    
C18   C25   A    
Cu1   N2    S    
C5    N9    S    
C20   H3    S    
C4    H17   S    
C30   N1    A    
O15   C69   S    
C47   C50   S    
C69   H71   S    
C71   H76   S    
C44   H11   S    
C64   H56   S    
C14   H6    S    
C63   C64   S    
C1    O1    A    
C59   H44   S    
Cu1   Cu2   S    
C56   H31   S    
C1    C9    S    
C24   C25   A    
C21   H8    S    
N3    H19   S    
Cu2   O2    S    
C2    H2    S    
C39   C40   A    
C31   H13   S    
O13   C63   S    
C22   H4    S    
C48   O15   S    
C60   C61   S    
C19   H7    S    
C23   O6    A    
Cu1   O3    S    
C58   C59   S    
C35   C39   A    
C43   C44   A    
C32   C35   A    
N8    H84   S    
C37   C38   A    
C34   O8    A    
C69   C70   S    
N4    H35   S    
C11   C16   A    
C53   H25   S    
O9    C51   S    
C47   O14   S    
C16   C20   A    
C57   C58   S    
C45   N6    S    
C17   C18   A    
C67   H65   S    
N6    H39   S    
C37   N7    S    
C46   N2    A    
C72   H78   S    
C67   C68   S    
C62   H52   S    
C71   H74   S    
C70   C71   S    
C30   O13   S    
C52   H23   S    
O12   C60   S    
C22   C24   A    
C5    C50   S    
C52   C53   S    
Cu1   O1    S    
N9    H87   S    
Cu2   O6    S    
C11   N5    S    
O16   C72   S    
C53   H26   S    
C69   H70   S    
C63   H54   S    
C72   C73   S    
C10   C28   A    
C65   H59   S    
C40   C41   A    
C34   C49   S    
C60   H48   S    
N6    H38   S    
O14   C66   S    
C39   H15   S    
C31   C32   A    
C7    C50   S    
C24   C26   A    
N3    H18   S    
C2    H1    S    
C74   H83   S    
C54   H28   S    
C15   C17   A    
C64   H57   S    
C10   C23   S    
C68   H69   S    
C55   C56   S    
N4    H34   S    
C43   H16   S    
C55   H30   S    
C33   C38   A    
C1    O2    A    
C32   C33   A    
C73   C74   S    
C19   C20   A    
C2    C3    S    
Cu1   O7    S    
C34   O7    A    
C11   C13   A    
C53   H24   S    
C4    O9    S    
C45   C50   S    
C62   H53   S    
C40   O12   S    
C73   H80   S    
N5    H37   S    
C45   N3    S    
C66   H64   S    
C6    C49   T    
O10   C54   S    
C58   H43   S    
C59   H45   S    
Cu2   N1    S    
C2    C45   S    
C29   C30   A    
C74   H81   S    
C4    C5    S    
C68   H68   S    
C55   H29   S    
C12   O4    A    
Cu1   O5    S    
C14   C15   A    
C74   H82   S    
C35   C36   A    
C57   H40   S    
N9    H86   S    
C5    N8    S    
C3    C4    S    
C61   H50   S    
C17   C21   A    
