data_mof_unit_64045.cif
_audit_creation_date              2013-03-05T16:45:59-0500
_audit_creation_method            fapswitch 2.2
_symmetry_space_group_name_H-M    P1
_symmetry_Int_Tables_number       1
_space_group_crystal_system       triclinic
_cell_length_a                    15.795291
_cell_length_b                    16.992832
_cell_length_c                    17.164246
_cell_angle_alpha                 89.989511
_cell_angle_beta                  96.511563
_cell_angle_gamma                 83.796832
_cell_volume                      4550.11853583

loop_
_atom_site_label
_atom_site_type_symbol
_atom_site_description
_atom_site_fract_x
_atom_site_fract_y
_atom_site_fract_z
_atom_type_partial_charge
O1    O     O_R   0.579730 0.382480 0.503570 -0.546648
O2    O     O_R   0.420270 0.617520 0.496430 -0.542500
O3    O     O_R   0.436070 0.388960 0.497130 -0.545906
O4    O     O_R   0.563930 0.611040 0.502870 -0.543343
C1    C     C_R   0.510464 0.348180 0.501808 0.952574
C2    C     C_R   0.489543 0.651848 0.498232 0.964685
O5    O     O_R   0.580160 0.496380 0.617190 -0.600139
O6    O     O_R   0.419840 0.503620 0.382810 -0.597903
O7    O     O_R   0.436500 0.502850 0.610750 -0.574673
O8    O     O_R   0.563500 0.497150 0.389250 -0.577499
C3    C     C_R   0.511069 0.497830 0.650699 0.852094
C4    C     C_R   0.489124 0.499059 0.349314 0.847905
Cu1   Cu    Cu3+1 0.585060 0.496170 0.503810 1.027326
Cu2   Cu    Cu3+1 0.414940 0.503830 0.496190 1.030596
C5    C     C_R   0.517872 0.484561 0.734976 -0.170563
C6    C     C_R   0.483913 0.486583 0.265184 -0.168414
C7    C     C_R   0.469834 0.429250 0.764296 -0.208111
C8    C     C_R   0.538477 0.425877 0.236557 -0.197539
C9    C     C_R   0.480008 0.410003 0.844205 0.294348
C10   C     C_R   0.530355 0.407552 0.156888 0.290275
C11   C     C_R   0.535039 0.451784 0.896206 -0.176044
C12   C     C_R   0.470278 0.455395 0.104342 -0.176232
C13   C     C_R   0.584247 0.506255 0.865691 0.698460
C14   C     C_R   0.414671 0.515440 0.134165 0.701530
C15   C     C_R   0.576574 0.521481 0.785406 -0.248654
C16   C     C_R   0.420689 0.529948 0.214280 -0.253104
C17   C     C_2   0.538983 0.444323 0.982315 0.573577
C18   C     C_2   0.467127 0.448216 0.018320 0.575600
H1    H     H_    0.427710 0.397877 0.724102 0.206383
H2    H     H_    0.584383 0.389855 0.277154 0.214900
H3    H     H_    0.377305 0.576173 0.236443 0.186533
H4    H     H_    0.614980 0.563418 0.762739 0.196619
C19   C     C_R   0.516514 0.261363 0.507453 -0.445380
C20   C     C_R   0.483568 0.738728 0.492776 -0.448788
C21   C     C_R   0.452079 0.224675 0.539102 0.470524
C22   C     C_R   0.548753 0.775484 0.462402 0.471967
C23   C     C_R   0.457989 0.141969 0.546013 0.142274
C24   C     C_R   0.542974 0.858181 0.455659 0.139888
C25   C     C_R   0.528327 0.095714 0.518550 -0.008649
C26   C     C_R   0.472103 0.904450 0.482207 -0.006931
C27   C     C_R   0.593806 0.132514 0.490130 0.576459
C28   C     C_R   0.405960 0.867630 0.509405 0.573004
C29   C     C_R   0.588051 0.214641 0.484168 0.449781
C30   C     C_R   0.411493 0.785475 0.515041 0.451276
N1    N     N_2   0.533713 0.012205 0.516491 -0.064370
N2    N     N_2   0.466709 0.987975 0.484422 -0.064680
N3    N     N_R   0.287170 0.509590 0.490460 -0.192952
N4    N     N_R   0.712830 0.490410 0.509540 -0.194646
C31   C     C_R   0.251392 0.462147 0.538847 0.114158
C32   C     C_R   0.748655 0.538050 0.461385 0.112176
C33   C     C_R   0.161849 0.464297 0.536592 -0.220075
C34   C     C_R   0.838202 0.535853 0.463650 -0.223040
C35   C     C_R   0.107546 0.516138 0.483739 0.368953
C36   C     C_R   0.892474 0.483757 0.516277 0.370683
C37   C     C_R   0.146342 0.564215 0.434842 -0.243822
C38   C     C_R   0.853637 0.435482 0.564949 -0.243274
C39   C     C_R   0.236128 0.560167 0.438987 0.114954
C40   C     C_R   0.763843 0.439579 0.560791 0.111883
N5    N     N_2   0.015371 0.522218 0.477490 -0.202853
N6    N     N_2   0.984652 0.477652 0.522536 -0.202168
H5    H     H_    0.707658 0.578101 0.420818 0.194440
H6    H     H_    0.292426 0.422296 0.579594 0.187796
H7    H     H_    0.864201 0.574551 0.424582 0.189706
H8    H     H_    0.135878 0.425776 0.575851 0.191217
H9    H     H_    0.107060 0.604831 0.393489 0.179980
H10   H     H_    0.892890 0.394670 0.606130 0.180988
H11   H     H_    0.264982 0.597615 0.400894 0.149063
H12   H     H_    0.734961 0.401964 0.598698 0.153502
F1    F     F_    0.388830 0.458779 0.975101 -0.574933
F2    F     F_    0.616570 0.446610 0.025443 -0.576273
F3    F     F_    0.637929 0.546789 0.913848 -0.556931
F4    F     F_    0.356086 0.561888 0.085483 -0.557987
N7    N     N_R   0.580330 0.338589 0.131365 0.181003
O9    O     O_R   0.656092 0.316093 0.167401 -0.232145
O10   O     O_R   0.545766 0.291830 0.080046 -0.250101
N8    N     N_R   0.437421 0.345992 0.870550 0.180346
O11   O     O_R   0.363854 0.331291 0.834576 -0.241054
O12   O     O_R   0.477317 0.295405 0.922637 -0.251806
F5    F     F_    0.615652 0.730899 0.435247 -0.593931
F6    F     F_    0.385898 0.269363 0.567294 -0.597342
N9    N     N_R   0.606890 0.894457 0.419161 0.221958
O13   O     O_R   0.584396 0.953335 0.370016 -0.234492
O14   O     O_R   0.686975 0.865156 0.430144 -0.193915
N10   N     N_R   0.394747 0.105673 0.583459 0.223723
O15   O     O_R   0.417848 0.046262 0.631855 -0.234696
O16   O     O_R   0.314739 0.135340 0.573986 -0.189708
F7    F     F_    0.662147 0.088131 0.465372 -0.509161
F8    F     F_    0.337118 0.912015 0.533270 -0.511509
F9    F     F_    0.651442 0.248192 0.453631 -0.561589
F10   F     F_    0.347302 0.751941 0.544265 -0.558632

loop_
_geom_bond_atom_site_label_1
_geom_bond_atom_site_label_2
_geom_bond_distance
_ccdc_geom_bond_type
C7    H1    1.084233 S    
N7    O9    1.301519 A    
C18   F1    1.362312 S    
N9    O13   1.301426 A    
C35   N5    1.440125 S    
C25   C27   1.397424 A    
C36   N6    1.440161 S    
N1    N2    1.246894 D    
C26   N2    1.413438 S    
C29   F9    1.358176 S    
O1    C1    1.291497 A    
N8    O12   1.300086 A    
C9    N8    1.437745 S    
C21   C23   1.402502 A    
C14   C16   1.391499 A    
C5    C15   1.395162 A    
C21   F6    1.358998 S    
O4    Cu1   1.944172 S    
C37   H9    1.082834 S    
C3    C5    1.454053 S    
C4    C6    1.453917 S    
C31   C33   1.407008 A    
C1    C19   1.470475 S    
C32   C34   1.406988 A    
C23   N10   1.438749 S    
C8    H2    1.084135 S    
C8    C10   1.397268 A    
C34   H7    1.082303 S    
C25   N1    1.413082 S    
C17   F2    1.362317 S    
C15   H4    1.083549 S    
N4    C32   1.365120 A    
C11   C17   1.477074 S    
N5    N6    1.253415 D    
C12   C18   1.477193 S    
Cu1   Cu2   2.664437 S    
C27   C29   1.391686 A    
O2    C2    1.291806 A    
C28   C30   1.391968 A    
C39   H11   1.081787 S    
N9    O14   1.301281 A    
C34   C36   1.412297 A    
C35   C37   1.404253 A    
C6    C16   1.395178 A    
C27   F7    1.357525 S    
C36   C38   1.404241 A    
C19   C29   1.405528 A    
C13   F3    1.357972 S    
C20   C30   1.405879 A    
N8    O11   1.301538 A    
O4    C2    1.292445 A    
C7    C9    1.397313 A    
C22   F5    1.358924 S    
C2    C20   1.471415 S    
C33   C35   1.412328 A    
O5    C3    1.287997 A    
O7    Cu2   1.956941 S    
N3    C39   1.362953 A    
O5    Cu1   1.956360 S    
O6    C4    1.287858 A    
N10   O15   1.301431 A    
O7    C3    1.288347 A    
O3    Cu2   1.944171 S    
O8    C4    1.288476 A    
C40   H12   1.081762 S    
C10   C12   1.419069 A    
C37   C39   1.406096 A    
C24   N9    1.438556 S    
C12   C14   1.408216 A    
C28   F8    1.357556 S    
N7    O10   1.300092 A    
C22   C24   1.402259 A    
C30   F10   1.358114 S    
C14   F4    1.357957 S    
C5    C7    1.397474 A    
O6    Cu2   1.956360 S    
C31   H6    1.081647 S    
C9    C11   1.419127 A    
C33   H8    1.082308 S    
N10   O16   1.301286 A    
O3    C1    1.292305 A    
O8    Cu1   1.956941 S    
Cu1   N4    2.001132 S    
N4    C40   1.362989 A    
Cu2   N3    2.001132 S    
N3    C31   1.365190 A    
C11   C13   1.408140 A    
C23   C25   1.415820 A    
C24   C26   1.415830 A    
C38   H10   1.082833 S    
C26   C28   1.397373 A    
C19   C21   1.407854 A    
C38   C40   1.406150 A    
C10   N7    1.437710 S    
C20   C22   1.408054 A    
C13   C15   1.391340 A    
O2    Cu2   1.942799 S    
C16   H3    1.083605 S    
O1    Cu1   1.942802 S    
C6    C8    1.397306 A    
C17   C18   1.348101 D    
C32   H5    1.081515 S    
