data_mof_unit_68163.cif
_audit_creation_date              2012-12-11T16:27:27-0500
_audit_creation_method            fapswitch 2.2
_symmetry_space_group_name_H-M    P1
_symmetry_Int_Tables_number       1
_space_group_crystal_system       triclinic
_cell_length_a                    22.709348
_cell_length_b                    7.306598
_cell_length_c                    15.917358
_cell_angle_alpha                 90.895462
_cell_angle_beta                  107.070042
_cell_angle_gamma                 89.297637
_cell_volume                      2524.39598667

loop_
_atom_site_label
_atom_site_type_symbol
_atom_type_description
_atom_site_fract_x
_atom_site_fract_y
_atom_site_fract_z
_atom_type_partial_charge
O1    O     O_R   0.835850 0.638310 0.002120 -0.507967
O2    O     O_R   0.164150 0.361690 0.997880 -0.505672
O3    O     O_R   0.664150 0.138310 0.997880 -0.515019
O4    O     O_R   0.335850 0.861690 0.002120 -0.500340
O5    O     O_R   0.717530 0.306070 0.861970 -0.507940
O6    O     O_R   0.282470 0.693930 0.138030 -0.530029
O7    O     O_R   0.782470 0.806070 0.138030 -0.472394
O8    O     O_R   0.217530 0.193930 0.861970 -0.499778
C1    C     C_R   0.695221 0.474945 0.831609 0.829504
C2    C     C_R   0.300484 0.525100 0.173477 0.826481
C3    C     C_R   0.803744 0.974124 0.169120 0.841887
C4    C     C_R   0.203562 0.024594 0.827162 0.856484
O9    O     O_R   0.838690 0.308440 0.993250 -0.567930
O10   O     O_R   0.161310 0.691560 0.006750 -0.548390
O11   O     O_R   0.661310 0.808440 0.006750 -0.559324
O12   O     O_R   0.338690 0.191560 0.993250 -0.535912
O13   O     O_R   0.786170 0.140510 0.130090 -0.547896
O14   O     O_R   0.213830 0.859490 0.869910 -0.512212
O15   O     O_R   0.713830 0.640510 0.869910 -0.506671
O16   O     O_R   0.286170 0.359490 0.130090 -0.552931
C5    C     C_R   0.864175 0.476121 0.997336 0.868519
C6    C     C_R   0.135294 0.521303 0.007111 0.869443
C7    C     C_R   0.636079 0.978574 0.004082 0.872549
C8    C     C_R   0.365023 0.019424 0.994326 0.730247
O17   O     O_3   0.732630 0.472520 0.044740 -0.385819
O18   O     O_3   0.267370 0.527480 0.955260 -0.342433
O19   O     O_3   0.767370 0.972520 0.955260 -0.386540
O20   O     O_3   0.232630 0.027480 0.044740 -0.415401
V1    V     V_3+5 0.753220 0.196740 0.991700 1.605405
V2    V     V_3+5 0.246780 0.803260 0.008300 1.608437
V3    V     V_3+5 0.746780 0.696740 0.008300 1.659463
V4    V     V_3+5 0.253220 0.303260 0.991700 1.656136
C9    C     C_R   0.536289 0.016624 0.833013 0.215588
C10   C     C_R   0.467994 0.845617 0.125215 0.123542
C11   C     C_R   0.963232 0.512264 0.158663 0.184150
C12   C     C_R   0.027666 0.462220 0.839691 0.186474
C13   C     C_R   0.491857 0.005729 0.750812 0.251441
C14   C     C_R   0.493292 0.916344 0.209167 0.304686
C15   C     C_R   0.005721 0.482560 0.239064 0.217620
C16   C     C_R   0.980462 0.429417 0.762099 0.400594
C17   C     C_R   0.428324 0.998129 0.746336 0.297906
C18   C     C_R   0.556681 0.965670 0.231675 0.285683
C19   C     C_R   0.068072 0.451368 0.242668 0.328156
C20   C     C_R   0.918972 0.453345 0.758039 0.288003
C21   C     C_R   0.411570 0.997123 0.824572 0.264638
C22   C     C_R   0.583570 0.985489 0.161319 0.228122
C23   C     C_R   0.084734 0.434109 0.163831 0.312572
C24   C     C_R   0.904167 0.481778 0.835896 0.138804
C25   C     C_R   0.454533 0.007441 0.908350 -0.087564
C26   C     C_R   0.545590 0.970263 0.071986 -0.095372
C27   C     C_R   0.043548 0.480883 0.081700 -0.122176
C28   C     C_R   0.950122 0.481953 0.919153 -0.082201
C29   C     C_R   0.520083 0.006294 0.913233 -0.171808
C30   C     C_R   0.481964 0.935167 0.059333 -0.084078
C31   C     C_R   0.979154 0.496634 0.078590 -0.172199
C32   C     C_R   0.015018 0.484006 0.921613 -0.130600
C33   C     C_R   0.434035 0.994717 0.986294 0.022177
C34   C     C_R   0.566951 0.992479 0.996934 -0.041473
C35   C     C_R   0.064175 0.501267 0.003718 -0.046986
C36   C     C_R   0.931963 0.488615 0.997772 -0.036085
C37   C     C_R   0.177590 0.028202 0.727690 -0.195355
C38   C     C_R   0.842315 0.970449 0.264836 -0.189866
C39   C     C_R   0.324781 0.516948 0.275600 -0.216595
C40   C     C_R   0.654641 0.482000 0.737404 -0.190411
C41   C     C_R   0.191509 0.112010 0.588181 -0.235724
C42   C     C_R   0.843450 0.868681 0.408563 -0.252134
C43   C     C_R   0.299193 0.491379 0.411907 -0.257664
C44   C     C_R   0.659486 0.422728 0.594511 -0.227670
C45   C     C_R   0.208824 0.126272 0.678864 0.382858
C46   C     C_R   0.813177 0.896742 0.321948 0.368648
C47   C     C_R   0.281703 0.521880 0.321336 0.409203
C48   C     C_R   0.684008 0.505108 0.674472 0.343858
C49   C     C_R   0.118190 0.958981 0.681361 0.333155
C50   C     C_R   0.909262 0.978319 0.295098 0.397848
C51   C     C_R   0.387017 0.534592 0.332479 0.326615
C52   C     C_R   0.588604 0.453834 0.707791 0.454829
C53   C     C_R   0.094376 0.975541 0.584217 -0.062219
C54   C     C_R   0.943177 0.953107 0.389442 0.028094
C55   C     C_R   0.404879 0.450423 0.418665 -0.023384
C56   C     C_R   0.556320 0.434246 0.611842 0.011843
C57   C     C_R   0.135146 0.038516 0.540412 -0.087687
C58   C     C_R   0.905995 0.902328 0.445248 -0.183654
C59   C     C_R   0.360917 0.475451 0.463704 -0.142117
C60   C     C_R   0.596069 0.409060 0.557941 -0.175060
C61   C     C_R   0.032951 0.933519 0.528296 -0.232754
C62   C     C_R   0.010955 0.969067 0.434140 -0.121115
C63   C     C_R   0.468455 0.416512 0.468303 -0.170133
C64   C     C_R   0.489583 0.439340 0.564334 -0.125247
C65   C     C_R   0.059349 0.005328 0.394211 0.343800
C66   C     C_R   0.996114 0.825726 0.562411 0.468621
C67   C     C_R   0.443199 0.485794 0.605253 0.385348
C68   C     C_R   0.511748 0.369786 0.422575 0.384028
C69   C     C_R   0.121401 0.024855 0.448821 0.302581
C70   C     C_R   0.933023 0.847257 0.533867 0.327020
C71   C     C_R   0.381442 0.515753 0.556127 0.303378
C72   C     C_R   0.574246 0.372105 0.467080 0.376560
H1    H     H_    0.220430 0.174636 0.554472 0.161620
H2    H     H_    0.818135 0.794008 0.444035 0.173433
H3    H     H_    0.263763 0.465909 0.439481 0.137038
H4    H     H_    0.689777 0.390344 0.556759 0.175935
O21   O     O_3   0.587493 0.034071 0.315609 -0.491498
C73   C     C_3   0.631191 0.904873 0.363419 0.233610
H5    H     H_    0.643649 0.802489 0.320094 0.153663
H6    H     H_    0.612165 0.837086 0.410012 0.069253
C74   C     C_3   0.690157 0.985277 0.425222 -0.588914
H7    H     H_    0.680822 0.077034 0.475729 0.236049
H8    H     H_    0.718242 0.870953 0.461927 0.145186
H9    H     H_    0.719014 0.051332 0.389918 0.236539
O22   O     O_3   0.378390 0.999392 0.670034 -0.511182
C75   C     C_3   0.392293 0.029905 0.591506 0.215920
H10   H     H_    0.414186 0.907322 0.573233 0.154935
H11   H     H_    0.420228 0.152270 0.595119 0.129281
C76   C     C_3   0.334129 0.068247 0.520061 -0.763560
H12   H     H_    0.346065 0.085120 0.458094 0.166657
H13   H     H_    0.301283 0.956209 0.514072 0.264538
H14   H     H_    0.312877 0.195665 0.535524 0.212773
O23   O     O_3   0.878505 0.506997 0.678111 -0.491077
C77   C     C_3   0.831670 0.379385 0.642064 0.264621
H15   H     H_    0.797400 0.371184 0.678464 0.176684
H16   H     H_    0.851344 0.244422 0.642939 0.064907
C78   C     C_3   0.798332 0.428283 0.546799 -0.751184
H17   H     H_    0.829243 0.475840 0.510019 0.239045
H18   H     H_    0.773198 0.307013 0.511812 0.167710
H19   H     H_    0.765987 0.543044 0.543975 0.229460
O24   O     O_3   0.115973 0.439281 0.319942 -0.530886
C79   C     C_3   0.103702 0.513421 0.394840 0.151190
H20   H     H_    0.082585 0.408040 0.425803 0.124450
H21   H     H_    0.077479 0.642521 0.382549 0.162463
C80   C     C_3   0.162050 0.573529 0.457512 -0.819176
H22   H     H_    0.187448 0.646988 0.420111 0.315564
H23   H     H_    0.155601 0.674414 0.505819 0.203418
H24   H     H_    0.186104 0.453493 0.492200 0.180935
Cl1   Cl    Cl    0.611666 0.053731 0.826336 -0.643757
Cl2   Cl    Cl    0.424051 0.644174 0.102262 -0.728139
Cl3   Cl    Cl    0.892226 0.591576 0.169623 -0.648914
Cl4   Cl    Cl    0.101147 0.484732 0.825056 -0.639939
O25   O     O_3   0.510889 0.041411 0.677280 -0.547962
C81   C     C_3   0.541616 0.889020 0.653298 0.160117
H25   H     H_    0.508547 0.809525 0.601938 0.096807
H26   H     H_    0.561939 0.795340 0.707569 0.135294
C82   C     C_3   0.593588 0.953813 0.618740 -0.600028
H27   H     H_    0.610597 0.839280 0.585669 0.193847
H28   H     H_    0.576917 0.064054 0.571379 0.205649
H29   H     H_    0.632878 0.007553 0.672041 0.286333
O26   O     O_3   0.454956 0.981094 0.257951 -0.500504
C83   C     C_3   0.394618 0.028811 0.203567 0.244871
H30   H     H_    0.372806 0.916030 0.159704 0.168558
H31   H     H_    0.396700 0.151843 0.164775 0.070134
C84   C     C_3   0.348989 0.062152 0.254563 -0.737963
H32   H     H_    0.304185 0.102384 0.209880 0.223233
H33   H     H_    0.337552 0.933482 0.281420 0.232723
H34   H     H_    0.365989 0.166772 0.306390 0.204600
O27   O     O_3   0.987712 0.530686 0.312974 -0.551148
C85   C     C_3   0.952962 0.392219 0.335186 0.162814
H35   H     H_    0.983939 0.308112 0.386029 0.094806
H36   H     H_    0.929611 0.306627 0.280041 0.135004
C86   C     C_3   0.901791 0.474446 0.366930 -0.664529
H37   H     H_    0.869315 0.557701 0.316694 0.298006
H38   H     H_    0.874172 0.364643 0.383909 0.167479
H39   H     H_    0.923061 0.563069 0.423339 0.210101
O28   O     O_3   0.996255 0.410264 0.685886 -0.491403
C87   C     C_3   0.972784 0.249516 0.639561 0.133225
H40   H     H_    0.945789 0.165568 0.670250 0.057556
H41   H     H_    0.012246 0.168845 0.634539 0.113975
C88   C     C_3   0.935257 0.293869 0.547978 -0.711519
H42   H     H_    0.927236 0.442332 0.544052 0.296612
H43   H     H_    0.959805 0.247408 0.501893 0.165167
H44   H     H_    0.891183 0.223083 0.527108 0.185267
Cl5   Cl    Cl    0.334896 0.947828 0.814049 -0.670217
Cl6   Cl    Cl    0.655997 0.089870 0.185835 -0.664265
Cl7   Cl    Cl    0.152159 0.308267 0.167460 -0.680258
Cl8   Cl    Cl    0.828206 0.548891 0.822306 -0.661423
O29   O     O_3   0.170543 0.973535 0.418164 -0.586619
C89   C     C_3   0.186044 0.111713 0.369132 0.161729
H45   H     H_    0.202388 0.231766 0.410950 0.149274
H46   H     H_    0.147102 0.146878 0.313087 0.259594
C90   C     C_3   0.236653 0.046784 0.331662 -0.663429
H47   H     H_    0.218229 0.003947 0.262141 0.260217
H48   H     H_    0.267966 0.161566 0.333930 0.195848
H49   H     H_    0.262647 0.929919 0.368429 0.250349
O30   O     O_3   0.900502 0.767464 0.585755 -0.516520
C91   C     C_3   0.853813 0.881809 0.601998 0.165899
H50   H     H_    0.809620 0.809676 0.578945 0.178030
H51   H     H_    0.845412 0.008520 0.564465 0.050242
C92   C     C_3   0.863702 0.918192 0.700178 -0.558856
H52   H     H_    0.909110 0.973563 0.735024 0.140900
H53   H     H_    0.826925 0.009594 0.710226 0.179210
H54   H     H_    0.860055 0.792701 0.733401 0.316661
O31   O     O_3   0.352439 0.638161 0.599934 -0.530476
C93   C     C_3   0.289973 0.609573 0.585396 0.054038
H55   H     H_    0.279273 0.462104 0.583793 0.150671
H56   H     H_    0.267193 0.686051 0.526331 0.161846
C94   C     C_3   0.266997 0.703030 0.654917 -0.513321
H57   H     H_    0.277391 0.849430 0.654805 0.287684
H58   H     H_    0.216747 0.690716 0.639609 0.148875
H59   H     H_    0.286985 0.642655 0.720057 0.277522
O32   O     O_3   0.615095 0.324634 0.420806 -0.519344
C95   C     C_3   0.636978 0.484239 0.392173 0.037405
H60   H     H_    0.661128 0.575002 0.447576 0.120089
H61   H     H_    0.598096 0.560039 0.349007 0.081637
C96   C     C_3   0.681270 0.436477 0.339688 -0.603370
H62   H     H_    0.666315 0.502689 0.274552 0.241783
H63   H     H_    0.728932 0.476844 0.375648 0.218447
H64   H     H_    0.681076 0.290301 0.326399 0.293266
O33   O     O_3   0.940008 0.947005 0.232825 -0.516290
C97   C     C_3   0.929474 0.077189 0.164687 0.074566
H65   H     H_    0.970513 0.161755 0.177686 0.154004
H66   H     H_    0.891209 0.173886 0.159203 0.100317
C98   C     C_3   0.921697 0.984340 0.076125 -0.608597
H67   H     H_    0.873563 0.942172 0.048386 0.231028
H68   H     H_    0.933252 0.080372 0.030064 0.160737
H69   H     H_    0.951861 0.862903 0.082376 0.237217
O34   O     O_3   0.087256 0.868756 0.732088 -0.496117
C99   C     C_3   0.059063 0.993605 0.777655 0.079605
H70   H     H_    0.009209 0.974894 0.750126 0.140770
H71   H     H_    0.071655 0.138041 0.772886 0.122595
C100  C     C_3   0.072697 0.952533 0.874885 -0.602057
H72   H     H_    0.121233 0.979560 0.911277 0.214518
H73   H     H_    0.043885 0.043441 0.903654 0.149338
H74   H     H_    0.060816 0.810325 0.884115 0.241137
O35   O     O_3   0.559458 0.420039 0.771236 -0.515317
C101  C     C_3   0.566637 0.564312 0.835065 0.056437
H75   H     H_    0.526079 0.654711 0.818006 0.164552
H76   H     H_    0.604667 0.659654 0.840209 0.107425
C102  C     C_3   0.572121 0.487155 0.925139 -0.621318
H77   H     H_    0.619144 0.433739 0.954084 0.234206
H78   H     H_    0.563206 0.596241 0.969228 0.180343
H79   H     H_    0.538238 0.377058 0.920468 0.225510
O36   O     O_3   0.415852 0.696049 0.322467 -0.552123
C103  C     C_3   0.436274 0.805145 0.401620 0.192974
H80   H     H_    0.421410 0.764377 0.457978 0.068222
H81   H     H_    0.417591 0.944163 0.392053 0.165158
C104  C     C_3   0.504814 0.826172 0.427664 -0.685093
H82   H     H_    0.519912 0.794862 0.370412 0.243320
H83   H     H_    0.517447 0.969298 0.447476 0.229777
H84   H     H_    0.528436 0.729678 0.478999 0.145683
Cl9   Cl    Cl    0.744263 0.777685 0.282807 -0.705099
Cl10  Cl    Cl    0.267497 0.282714 0.726292 -0.676132
Cl11  Cl    Cl    0.725572 0.706246 0.675246 -0.693791
Cl12  Cl    Cl    0.211689 0.631562 0.272555 -0.691398
O37   O     O_3   0.047833 0.042807 0.305416 -0.562388
C105  C     C_3   0.066491 0.893938 0.260121 0.107803
H85   H     H_    0.029931 0.795953 0.245331 0.209646
H86   H     H_    0.108867 0.822826 0.297270 0.199697
C106  C     C_3   0.075229 0.946148 0.171932 -0.671173
H87   H     H_    0.052923 0.077169 0.147277 0.237447
H88   H     H_    0.124585 0.951892 0.176815 0.254560
H89   H     H_    0.056179 0.839484 0.121595 0.175912
O38   O     O_3   0.021214 0.677761 0.614353 -0.465014
C107  C     C_3   0.055771 0.564341 0.572055 0.235394
H90   H     H_    0.070183 0.633722 0.522176 0.050231
H91   H     H_    0.028048 0.453611 0.534706 0.097378
C108  C     C_3   0.112626 0.483248 0.636573 -0.512249
H92   H     H_    0.136853 0.585944 0.685785 0.280508
H93   H     H_    0.100783 0.361542 0.668182 0.231931
H94   H     H_    0.144861 0.435235 0.601495 0.135717
O39   O     O_3   0.458131 0.537128 0.692701 -0.548764
C109  C     C_3   0.428167 0.425034 0.739988 0.159065
H95   H     H_    0.461367 0.325960 0.777815 0.160371
H96   H     H_    0.387194 0.351208 0.698410 0.173029
C110  C     C_3   0.408116 0.535727 0.807905 -0.642157
H97   H     H_    0.385562 0.658062 0.775164 0.287331
H98   H     H_    0.375745 0.456483 0.833249 0.249121
H99   H     H_    0.447139 0.576819 0.864783 0.198897
O40   O     O_3   0.494228 0.288542 0.338981 -0.514684
C111  C     C_3   0.488772 0.416587 0.270843 0.217122
H100  H     H_    0.500238 0.556692 0.294066 0.119082
H101  H     H_    0.440513 0.414181 0.229595 0.167793
C112  C     C_3   0.526962 0.371560 0.208894 -0.616009
H102  H     H_    0.572284 0.317878 0.244203 0.289053
H103  H     H_    0.501791 0.276311 0.156185 0.196170
H104  H     H_    0.536209 0.497301 0.176908 0.191124

loop_
_geom_bond_atom_site_label_1
_geom_bond_atom_site_label_2
_ccdc_geom_bond_type
O17   V3    S    
C7    C34   S    
C20   C24   A    
C63   C64   A    
C25   C29   A    
O1    C5    A    
O21   C73   S    
C58   C70   A    
O22   C75   S    
O19   V1    S    
C1    C40   S    
O13   V1    S    
C96   H62   S    
O12   C8    A    
O3    C7    A    
C2    C39   S    
C68   C72   A    
C56   C60   A    
C3    C38   S    
O15   V3    S    
C30   C33   A    
C19   O24   S    
C82   H28   S    
C55   C63   A    
O26   C83   S    
C84   H32   S    
C27   C31   A    
C61   C62   A    
C100  H74   S    
O7    C3    A    
C74   H8    S    
O38   C107  S    
C88   H42   S    
C15   O27   S    
C67   O39   S    
O9    V1    S    
C50   O33   S    
C14   C18   A    
C24   C28   A    
C84   H33   S    
C60   C72   A    
C110  H97   S    
O4    C8    A    
C99   H71   S    
C92   H53   S    
C10   Cl2   S    
C107  H91   S    
C87   C88   S    
O1    V3    S    
C102  H79   S    
C25   C33   A    
C38   C46   A    
C103  C104  S    
O2    V4    S    
O39   C109  S    
C18   C22   A    
O3    V1    S    
O35   C101  S    
C75   H10   S    
C78   H19   S    
C73   C74   S    
C28   C36   A    
C93   C94   S    
C102  H78   S    
C24   Cl8   S    
C1    O15   A    
C86   H37   S    
C93   H56   S    
C2    O16   A    
C8    C33   S    
C90   H48   S    
O2    C6    A    
C105  H86   S    
C95   H60   S    
O14   V2    S    
C70   O30   S    
C21   C25   A    
O8    C4    A    
C78   H18   S    
C19   C23   A    
C104  H82   S    
C108  H92   S    
C100  H73   S    
C83   H31   S    
C106  H89   S    
C43   H3    S    
C80   H24   S    
C54   C62   A    
C107  C108  S    
O11   C7    A    
O25   C81   S    
C53   C61   A    
C86   H38   S    
C13   O25   S    
C112  H102  S    
C77   H15   S    
O17   V1    S    
C96   H63   S    
C49   O34   S    
O32   C95   S    
O10   V2    S    
O37   C105  S    
C12   Cl4   S    
C66   O38   S    
C98   H69   S    
C66   C70   A    
O5    V1    S    
C9    C29   A    
C72   O32   S    
C74   H9    S    
C105  C106  S    
O7    V3    S    
C11   C31   A    
C44   C60   A    
O34   C99   S    
O20   V4    S    
C5    C36   S    
C51   O36   S    
C81   H25   S    
C82   H29   S    
C11   Cl3   S    
C6    C35   S    
C110  H98   S    
C97   H65   S    
C10   C14   A    
C92   H54   S    
C23   C27   A    
C79   C80   S    
C94   H58   S    
C100  H72   S    
O30   C91   S    
O19   V3    S    
O11   V3    S    
C62   C65   A    
C87   H40   S    
C9    C13   A    
C22   Cl6   S    
C65   C69   A    
C91   C92   S    
C26   C34   A    
C11   C15   A    
C44   H4    S    
C14   O26   S    
O5    C1    A    
O36   C103  S    
C12   C32   A    
C9    Cl1   S    
C42   C58   A    
C83   C84   S    
C57   C69   A    
C104  H84   S    
C54   C58   A    
C41   C57   A    
C98   H67   S    
C89   C90   S    
C64   C67   A    
C53   C57   A    
C44   C48   A    
C90   H49   S    
C59   C71   A    
C95   C96   S    
C102  H77   S    
C40   C52   A    
C48   Cl11  S    
O9    C5    A    
C26   C30   A    
C43   C59   A    
C103  H81   S    
C104  H83   S    
C75   C76   S    
C85   H35   S    
C76   H12   S    
C111  H101  S    
C85   C86   S    
C68   O40   S    
C77   H16   S    
C16   O28   S    
C88   H44   S    
C46   Cl9   S    
C39   C47   A    
O18   V2    S    
C86   H39   S    
C106  H88   S    
O24   C79   S    
C96   H64   S    
C65   O37   S    
C84   H34   S    
C109  C110  S    
C93   H55   S    
O10   C6    A    
O40   C111  S    
C18   O21   S    
C109  H96   S    
C12   C16   A    
C63   C68   A    
C108  H93   S    
C83   H30   S    
O16   V4    S    
C37   C45   A    
O31   C93   S    
O33   C97   S    
C3    O13   A    
C79   H21   S    
C91   H51   S    
C105  H85   S    
C101  H76   S    
C99   H70   S    
C85   H36   S    
C90   H47   S    
C52   C56   A    
C106  H87   S    
C95   H61   S    
C111  C112  S    
C21   Cl5   S    
O6    C2    A    
C110  H99   S    
C23   Cl7   S    
C29   C34   A    
C78   H17   S    
C10   C30   A    
C49   C53   A    
C81   H26   S    
C52   O35   S    
O12   V4    S    
C74   H7    S    
C22   C26   A    
O23   C77   S    
C101  C102  S    
C32   C35   A    
C73   H6    S    
C37   C49   A    
C61   C66   A    
C76   H14   S    
C108  H94   S    
C112  H103  S    
C109  H95   S    
C80   H22   S    
C41   H1    S    
C103  H80   S    
C56   C64   A    
C87   H41   S    
O28   C87   S    
C82   H27   S    
C47   Cl12  S    
C94   H59   S    
C55   C59   A    
C4    C37   S    
C97   C98   S    
C42   H2    S    
C92   H52   S    
C42   C46   A    
O8    V4    S    
C39   C51   A    
C20   O23   S    
C79   H20   S    
C41   C45   A    
C69   O29   S    
C98   H68   S    
C89   H46   S    
O20   V2    S    
C43   C47   A    
C99   C100  S    
C13   C17   A    
C73   H5    S    
O6    V2    S    
C45   Cl10  S    
C75   H11   S    
C107  H90   S    
C111  H100  S    
C71   O31   S    
O29   C89   S    
C28   C32   A    
C16   C20   A    
C27   C35   A    
C15   C19   A    
C67   C71   A    
C88   H43   S    
C94   H57   S    
C50   C54   A    
C112  H104  S    
C4    O14   A    
C17   C21   A    
C38   C50   A    
C17   O22   S    
C76   H13   S    
O27   C85   S    
C31   C36   A    
C97   H66   S    
C51   C55   A    
C101  H75   S    
C77   C78   S    
O18   V4    S    
O4    V2    S    
C91   H50   S    
C40   C48   A    
C81   C82   S    
C80   H23   S    
C89   H45   S    
