data_mof_unit_44694.cif
_audit_creation_date              2012-10-26T20:29:55-0400
_audit_creation_method            fapswitch 2.2
_symmetry_space_group_name_H-M    P1
_symmetry_Int_Tables_number       1
_space_group_crystal_system       triclinic
_cell_length_a                    13.031149
_cell_length_b                    19.406298
_cell_length_c                    18.400323
_cell_angle_alpha                 90.07635
_cell_angle_beta                  95.820514
_cell_angle_gamma                 92.92204
_cell_volume                      4623.08323068

loop_
_atom_site_label
_atom_site_type_symbol
_atom_type_description
_atom_site_fract_x
_atom_site_fract_y
_atom_site_fract_z
_atom_type_partial_charge
C1    C     C_R   0.499144 0.367619 0.499629 0.569149
C2    C     C_R   0.497331 0.291708 0.497266 0.001535
C3    C     C_R   0.588108 0.968714 0.461000 -0.128760
C4    C     C_R   0.418730 0.031731 0.509641 -0.121638
C5    C     C_R   0.584986 0.040356 0.460486 -0.126956
C6    C     C_R   0.422126 0.960177 0.510571 -0.114282
C7    C     C_R   0.500722 0.071896 0.485484 0.016019
C8    C     C_R   0.507078 0.928671 0.486705 0.018811
C9    C     C_R   0.471104 0.439364 0.719480 0.389648
C10   C     C_R   0.577846 0.535927 0.283643 0.398667
C11   C     C_R   0.494055 0.432378 0.795839 -0.025119
C12   C     C_R   0.501828 0.632470 0.499803 0.572867
C13   C     C_R   0.593582 0.521586 0.210444 -0.024903
C14   C     C_R   0.512205 0.490000 0.841045 0.026214
C15   C     C_R   0.514833 0.489878 0.162871 0.044812
C16   C     C_R   0.301267 0.503538 0.486527 0.591469
C17   C     C_R   0.699202 0.496463 0.513690 0.581786
C18   C     C_R   0.521834 0.552838 0.805888 -0.075401
C19   C     C_R   0.428774 0.462617 0.194520 -0.062659
C20   C     C_R   0.529093 0.556890 0.729645 0.132598
C21   C     C_R   0.426639 0.461227 0.271129 0.147397
C22   C     C_R   0.585171 0.532314 0.968668 0.222189
C23   C     C_R   0.510812 0.853371 0.488775 0.042155
C24   C     C_R   0.474570 0.430917 0.037531 0.200583
C25   C     C_R   0.566593 0.542666 0.042295 0.214578
C26   C     C_R   0.453838 0.439141 0.961015 0.155473
C27   C     C_R   0.519855 0.487608 0.080647 -0.049726
C28   C     C_R   0.517852 0.486115 0.923962 -0.061337
C29   C     C_R   0.812308 0.490710 0.521884 -0.063347
C30   C     C_R   0.189169 0.509821 0.479239 -0.051831
C31   C     C_R   0.029580 0.540676 0.411032 0.251259
C32   C     C_R   0.975055 0.467378 0.592851 0.243374
C33   C     C_R   0.138069 0.548459 0.423175 0.236672
C34   C     C_R   0.500015 0.147404 0.488938 0.032883
C35   C     C_R   0.866142 0.461039 0.584201 0.231950
C36   C     C_R   0.133648 0.480354 0.533052 -0.126300
C37   C     C_R   0.867009 0.516676 0.465468 -0.127729
C38   C     C_R   0.027853 0.487839 0.532221 -0.050080
C39   C     C_R   0.974024 0.513964 0.468357 -0.052225
C40   C     C_R   0.458871 0.741279 0.435311 -0.028231
C41   C     C_R   0.540262 0.254323 0.556562 -0.049835
C42   C     C_R   0.461438 0.813132 0.430044 0.009683
C43   C     C_R   0.543165 0.182570 0.553160 0.009478
C44   C     C_3   0.571731 0.626520 0.706196 -0.232180
C45   C     C_R   0.559245 0.820860 0.550992 0.018659
C46   C     C_3   0.680147 0.623764 0.681235 -0.351763
C47   C     C_3   0.346347 0.410891 0.298488 -0.255597
C48   C     C_3   0.235248 0.430640 0.277119 -0.384882
C49   C     C_3   0.410629 0.844731 0.361095 -0.287643
C50   C     C_3   0.293439 0.841950 0.361049 -0.402376
C51   C     C_3   0.594977 0.145419 0.618315 -0.276933
C52   C     C_3   0.519117 0.127596 0.674200 -0.397108
C53   C     C_3   0.614206 0.861020 0.615488 -0.278157
C54   C     C_3   0.548104 0.860490 0.679356 -0.413110
C55   C     C_3   0.410188 0.145324 0.359489 -0.272458
C56   C     C_R   0.455718 0.184393 0.428322 0.014717
C57   C     C_3   0.365638 0.189439 0.296188 -0.423088
C58   C     C_R   0.556197 0.748744 0.553880 -0.138151
C59   C     C_R   0.455642 0.256654 0.433553 -0.112873
C60   C     C_R   0.504379 0.708521 0.497318 0.010966
Cu1   Cu    Cu3+1 0.499970 0.500000 0.573360 1.108201
Cu2   Cu    Cu3+1 0.500030 0.500000 0.426640 1.084707
H1    H     H_    0.825048 0.539935 0.419351 0.254999
H2    H     H_    0.422717 0.286481 0.388379 0.118421
H3    H     H_    0.653741 0.944440 0.442236 0.129422
H4    H     H_    0.353212 0.055937 0.528667 0.121700
H5    H     H_    0.648503 0.071302 0.441698 0.127801
H6    H     H_    0.359211 0.929325 0.530299 0.122986
H7    H     H_    0.285410 0.334108 0.588499 0.355268
H8    H     H_    0.706567 0.670689 0.411230 0.359380
H9    H     H_    0.725005 0.584063 0.711854 0.229965
H10   H     H_    0.677433 0.613935 0.622050 0.169589
H11   H     H_    0.722850 0.674400 0.691800 0.126251
H12   H     H_    0.174110 0.452353 0.576571 0.235317
H13   H     H_    0.514483 0.652821 0.669662 0.161437
H14   H     H_    0.581659 0.663287 0.753139 0.133848
H15   H     H_    0.217275 0.432483 0.216963 0.182443
H16   H     H_    0.221453 0.481172 0.300838 0.240406
H17   H     H_    0.181141 0.391549 0.298693 0.143236
H18   H     H_    0.355929 0.359292 0.274445 0.128802
H19   H     H_    0.355859 0.403039 0.357399 0.189189
H20   H     H_    0.857535 0.589487 0.990391 0.388727
H21   H     H_    0.522605 0.294391 0.172157 0.361001
H22   H     H_    0.510270 0.689622 0.155171 0.394166
H23   H     H_    0.485227 0.382203 0.820497 0.193395
H24   H     H_    0.243097 0.448688 0.996752 0.339617
H25   H     H_    0.831692 0.318868 0.713449 0.373547
H26   H     H_    0.298430 0.644592 0.301596 0.368785
H27   H     H_    0.920733 0.659449 0.280379 0.404148
H28   H     H_    0.196492 0.499104 0.726899 0.401035
H29   H     H_    0.262764 0.787674 0.363093 0.220374
H30   H     H_    0.271306 0.870711 0.408794 0.163578
H31   H     H_    0.258183 0.865824 0.310328 0.160921
H32   H     H_    0.438362 0.899129 0.354361 0.163366
H33   H     H_    0.431224 0.816184 0.312634 0.175255
H34   H     H_    0.661919 0.542719 0.188342 0.208245
H35   H     H_    0.488497 0.175215 0.695174 0.221455
H36   H     H_    0.453802 0.093594 0.649496 0.158847
H37   H     H_    0.559243 0.100156 0.720863 0.157381
H38   H     H_    0.629395 0.097548 0.601384 0.158358
H39   H     H_    0.660229 0.178506 0.645114 0.166282
H40   H     H_    0.473598 0.884301 0.662906 0.165141
H41   H     H_    0.532585 0.806827 0.697838 0.160516
H42   H     H_    0.589461 0.890605 0.725709 0.160977
H43   H     H_    0.688830 0.837676 0.632969 0.151412
H44   H     H_    0.633573 0.915366 0.601415 0.158976
H45   H     H_    0.529345 0.599128 0.839108 0.167317
H46   H     H_    0.300602 0.218719 0.312682 0.154488
H47   H     H_    0.426542 0.225459 0.277638 0.158721
H48   H     H_    0.335594 0.155366 0.249479 0.175200
H49   H     H_    0.471410 0.114838 0.339119 0.161931
H50   H     H_    0.347561 0.108493 0.374135 0.156674
H51   H     H_    0.365076 0.438943 0.159754 0.164491
H52   H     H_    0.419770 0.710805 0.390658 0.199656
H53   H     H_    0.574116 0.280881 0.605365 0.215048
H54   H     H_    0.597157 0.724634 0.599729 0.107308
N1    N     N_R   0.499990 0.500020 0.683620 -0.225981
N2    N     N_R   0.500010 0.499980 0.316380 -0.232133
O1    O     O_R   0.499960 0.400180 0.561970 -0.407710
O2    O     O_2   0.302075 0.360025 0.734664 -0.175946
O3    O     O_3   0.322342 0.379308 0.599960 -0.529488
O4    O     O_2   0.710353 0.644225 0.266165 -0.224293
O5    O     O_2   0.545270 0.666968 0.308800 -0.317114
O6    O     O_3   0.688276 0.621194 0.401089 -0.524536
O7    O     O_2   0.734546 0.526221 0.877229 -0.245939
O8    O     O_2   0.690174 0.641377 0.914907 -0.250431
O9    O     O_3   0.795756 0.566965 0.009273 -0.437186
O10   O     O_2   0.353213 0.329539 0.090519 -0.252732
O11   O     O_2   0.490611 0.294980 0.019287 -0.192153
O12   O     O_R   0.500040 0.599820 0.438030 -0.409490
O13   O     O_3   0.542526 0.339529 0.151225 -0.530684
O14   O     O_2   0.688981 0.645458 0.107855 -0.184224
O15   O     O_2   0.552727 0.677622 0.014864 -0.227269
O16   O     O_3   0.498781 0.640444 0.140683 -0.517906
O17   O     O_2   0.294212 0.446887 0.855792 -0.266435
O18   O     O_2   0.346708 0.331301 0.892799 -0.148352
O19   O     O_3   0.245812 0.400429 0.979718 -0.407505
O20   O     O_2   0.757705 0.447655 0.700895 -0.235075
O21   O     O_2   0.711770 0.367837 0.598186 -0.338082
O22   O     O_3   0.876191 0.346511 0.682636 -0.432837
O23   O     O_R   0.500010 0.400190 0.438070 -0.555322
O24   O     O_2   0.130276 0.673897 0.357974 -0.243527
O25   O     O_2   0.268593 0.656186 0.454028 -0.327685
O26   O     O_3   0.282112 0.601039 0.326986 -0.503253
O27   O     O_2   0.042060 0.562296 0.267159 -0.233557
O28   O     O_2   0.881295 0.507459 0.301198 -0.269043
O29   O     O_3   0.916017 0.638419 0.329025 -0.447642
O30   O     O_2   0.978384 0.471361 0.741091 -0.148560
O31   O     O_2   0.085822 0.388353 0.687733 -0.190248
O32   O     O_3   0.145260 0.518385 0.690013 -0.519471
O33   O     O_R   0.499990 0.599810 0.561930 -0.541870
O34   O     O_R   0.348980 0.499990 0.551890 -0.446434
O35   O     O_R   0.651020 0.500010 0.448110 -0.467026
O36   O     O_R   0.349030 0.499990 0.427990 -0.491962
O37   O     O_R   0.650970 0.500010 0.572010 -0.467458
O38   O     O_2   0.443037 0.305994 0.685315 -0.340897
S1    S     S_3+6 0.384144 0.370431 0.683466 0.060670
S2    S     S_3+6 0.045313 0.459450 0.680865 0.108670
S3    S     S_3+6 0.631543 0.618296 0.315128 0.077928
S4    S     S_3+6 0.702484 0.568077 0.939140 0.075121
S5    S     S_3+6 0.462358 0.346298 0.074212 0.055111
S6    S     S_3+6 0.579526 0.628864 0.076487 0.070904
S7    S     S_3+6 0.334010 0.403428 0.918993 0.107090
S8    S     S_3+6 0.799396 0.405683 0.642872 0.068941
S9    S     S_3+6 0.204433 0.622604 0.390059 0.032625
S10   S     S_3+6 0.966422 0.560734 0.323769 0.071777

loop_
_geom_bond_atom_site_label_1
_geom_bond_atom_site_label_2
_ccdc_geom_bond_type
C55   C56   S    
C34   C56   A    
C23   C45   A    
C55   H50   S    
Cu1   O1    S    
C9    N1    A    
Cu2   O12   S    
C24   S5    S    
C24   C27   A    
H25   O22   S    
C5    H5    S    
C17   O35   A    
O15   S6    D    
O7    S4    D    
C53   C54   S    
C15   C19   A    
H22   O16   S    
C59   H2    S    
C23   C42   A    
C12   O12   A    
C40   C60   A    
C48   H17   S    
C54   H42   S    
O38   S1    D    
C19   C21   A    
C24   C26   A    
C38   C39   A    
C11   C14   A    
O13   S5    S    
C2    C41   A    
C16   C30   S    
O6    S3    S    
C26   S7    S    
C8    C23   S    
C17   C29   S    
C1    C2    S    
C1    O1    A    
C48   H16   S    
C44   H14   S    
C14   C18   A    
C18   H45   S    
O25   S9    D    
H24   O19   S    
C37   H1    S    
C53   H44   S    
C57   H47   S    
C57   H48   S    
H26   O26   S    
C52   H36   S    
C22   C25   A    
O4    S3    D    
C31   C33   A    
C32   C38   A    
C49   H32   S    
O31   S2    D    
C46   H10   S    
H28   O32   S    
C40   C42   A    
O28   S10   D    
C45   C53   S    
C22   C28   A    
C58   H54   S    
C41   C43   A    
C12   O33   A    
C3    H3    S    
C47   H18   S    
C41   H53   S    
C4    C7    A    
Cu1   O37   S    
C20   N1    A    
C20   C44   S    
C44   C46   S    
C32   S2    S    
O27   S10   D    
C40   H52   S    
C45   C58   A    
C13   H34   S    
Cu1   N1    S    
C51   C52   S    
C32   C35   A    
C54   H41   S    
C4    C6    A    
C3    C8    A    
C5    C7    A    
C2    C59   A    
C6    C8    A    
O16   S6    S    
C48   H15   S    
C44   H13   S    
H21   O13   S    
C21   N2    A    
C10   N2    A    
O29   S10   S    
C53   H43   S    
C52   H35   S    
C9    C11   A    
C15   C27   S    
C47   C48   S    
C31   S10   S    
H7    O3    S    
C25   S6    S    
C22   S4    S    
C9    S1    S    
O11   S5    D    
C16   O34   A    
C55   C57   S    
O30   S2    D    
C49   H33   S    
Cu1   O33   S    
C46   H9    S    
C36   H12   S    
Cu2   O36   S    
C50   H30   S    
C13   C15   A    
C16   O36   A    
O2    S1    D    
C7    C34   S    
C51   H39   S    
Cu2   O23   S    
C17   O37   A    
O19   S7    S    
C51   H38   S    
H27   O29   S    
O21   S8    D    
O32   S2    S    
C30   C33   A    
C55   H49   S    
O17   S7    D    
C54   H40   S    
C33   S9    S    
C34   C43   A    
C3    C5    A    
C10   C13   A    
O20   S8    D    
Cu2   O35   S    
C50   H31   S    
O8    S4    D    
C25   C27   A    
C29   C35   A    
C52   H37   S    
C26   C28   A    
C35   S8    S    
C56   C59   A    
C30   C36   A    
O26   S9    S    
C36   C38   A    
C37   C39   A    
O24   S9    D    
C4    H4    S    
C43   C51   S    
O5    S3    D    
C11   H23   S    
O9    S4    S    
C6    H6    S    
O10   S5    D    
C31   C39   A    
C18   C20   A    
C47   H19   S    
Cu1   Cu2   S    
Cu1   O34   S    
O14   S6    D    
H20   O9    S    
Cu2   N2    S    
C1    O23   A    
C42   C49   S    
C12   C60   S    
H8    O6    S    
C50   H29   S    
C57   H46   S    
C49   C50   S    
C29   C37   A    
C19   H51   S    
O3    S1    S    
C14   C28   S    
C58   C60   A    
C10   S3    S    
O22   S8    S    
C46   H11   S    
C21   C47   S    
O18   S7    D    
