data_mof_unit_52218.cif
_audit_creation_date              2012-12-10T20:46:49-0500
_audit_creation_method            fapswitch 2.2
_symmetry_space_group_name_H-M    P1
_symmetry_Int_Tables_number       1
_space_group_crystal_system       triclinic
_cell_length_a                    12.957476
_cell_length_b                    8.935942
_cell_length_c                    8.10627
_cell_angle_alpha                 89.999635
_cell_angle_beta                  97.326581
_cell_angle_gamma                 89.99933
_cell_volume                      930.93941551

loop_
_atom_site_label
_atom_site_type_symbol
_atom_type_description
_atom_site_fract_x
_atom_site_fract_y
_atom_site_fract_z
_atom_type_partial_charge
C1    C     C_R   0.499988 0.217986 0.499997 0.939457
C2    C     C_R   0.874212 0.500611 0.713096 0.100897
C3    C     C_R   0.136514 0.500380 0.589364 -0.287468
C4    C     C_R   0.863310 0.499333 0.410337 -0.314331
C5    C     C_R   0.029766 0.500166 0.578948 0.161097
C6    C     C_R   0.969953 0.499412 0.421489 0.138104
C7    C     C_1   0.499982 0.065184 0.499995 -0.192533
C8    C     C_1   0.499982 0.934816 0.499994 -0.192549
C9    C     C_R   0.499988 0.782014 0.499997 0.939622
C10   C     C_R   0.297357 0.499930 0.466772 0.877140
C11   C     C_R   0.702534 0.500005 0.532951 0.894808
C12   C     C_R   0.814813 0.499995 0.554487 -0.055929
C13   C     C_R   0.184895 0.499760 0.444590 -0.099972
C14   C     C_R   0.017205 0.498758 0.276587 -0.191769
C15   C     C_R   0.982145 0.500697 0.723958 -0.264599
C16   C     C_R   0.124455 0.498885 0.285703 0.090729
H1    H     H_    0.818230 0.498758 0.287946 0.174810
H2    H     H_    0.181696 0.501038 0.711648 0.177108
H3    H     H_    0.970945 0.498123 0.155845 0.132889
H4    H     H_    0.028301 0.501225 0.845195 0.160919
H5    H     H_    0.850513 0.406013 0.931503 0.179087
H6    H     H_    0.851024 0.596052 0.931383 0.179309
H7    H     H_    0.213311 0.594225 0.124710 0.210357
H8    H     H_    0.213664 0.401964 0.126258 0.210563
N1    N     N_1   0.500020 0.500000 0.073640 -0.040036
N2    N     N_1   0.499980 0.500000 0.926360 -0.035044
N3    N     N_3   0.825792 0.501105 0.862388 -0.427925
N4    N     N_3   0.168245 0.498024 0.132017 -0.482488
O1    O     O_R   0.499990 0.285340 0.636850 -0.614785
O2    O     O_R   0.500010 0.714660 0.363150 -0.616201
O3    O     O_R   0.500010 0.285340 0.363150 -0.616316
O4    O     O_R   0.499990 0.714660 0.636850 -0.614753
O5    O     O_R   0.346350 0.500000 0.614250 -0.624875
O6    O     O_R   0.653650 0.500000 0.385750 -0.631761
O7    O     O_R   0.346360 0.500000 0.340500 -0.640388
O8    O     O_R   0.653640 0.500000 0.659500 -0.594191
Zn1   Zn    Zn3+2 0.499990 0.500000 0.682780 0.994563
Zn2   Zn    Zn3+2 0.500010 0.500000 0.317220 0.976457

loop_
_geom_bond_atom_site_label_1
_geom_bond_atom_site_label_2
_ccdc_geom_bond_type
C16   N4    S    
C11   C12   S    
N2    Zn1   S    
C2    N3    S    
N1    Zn2   S    
C4    C12   A    
C3    C13   A    
O3    Zn2   S    
C2    C12   A    
C1    O1    A    
H5    N3    S    
C7    C8    T    
C1    C7    S    
O4    Zn1   S    
C2    C15   A    
C15   H4    S    
C9    O2    A    
C4    H1    S    
C11   O8    A    
C10   O5    A    
H6    N3    S    
C5    C6    A    
C10   O7    A    
C14   C16   A    
C5    C15   A    
C6    C14   A    
H7    N4    S    
C1    O3    A    
O7    Zn2   S    
O2    Zn2   S    
C3    H2    S    
C4    C6    A    
C13   C16   A    
O1    Zn1   S    
O8    Zn1   S    
C9    O4    A    
N1    N2    T    
O6    Zn2   S    
C14   H3    S    
C11   O6    A    
O5    Zn1   S    
H8    N4    S    
C8    C9    S    
C3    C5    A    
C10   C13   S    
