data_mof_unit_29782.cif
_audit_creation_date              2012-10-26T20:38:02-0400
_audit_creation_method            fapswitch 2.2
_symmetry_space_group_name_H-M    P1
_symmetry_Int_Tables_number       1
_space_group_crystal_system       triclinic
_cell_length_a                    9.892377
_cell_length_b                    10.972266
_cell_length_c                    12.941241
_cell_angle_alpha                 88.20788
_cell_angle_beta                  75.914688
_cell_angle_gamma                 109.627341
_cell_volume                      1273.41449456

loop_
_atom_site_label
_atom_site_type_symbol
_atom_type_description
_atom_site_fract_x
_atom_site_fract_y
_atom_site_fract_z
_atom_type_partial_charge
C1    C     C_R   0.442004 0.254828 0.504355 0.579653
C2    C     C_R   0.685288 0.614872 0.000968 -0.115161
C3    C     C_R   0.327242 0.385842 0.888537 0.238241
C4    C     C_R   0.674903 0.605117 0.110993 0.240413
C5    C     C_R   0.575576 0.551147 0.854962 -0.177944
C6    C     C_R   0.431619 0.432419 0.143902 -0.185333
C7    C     C_R   0.567585 0.537272 0.963415 0.002009
C8    C     C_R   0.439625 0.445723 0.035289 -0.001914
C9    C     C_2   0.414528 0.116674 0.501053 -0.077757
C10   C     C_2   0.587978 0.886282 0.471735 -0.068553
C11   C     C_2   0.517782 0.074078 0.442375 0.178212
C12   C     C_R   0.558875 0.746168 0.487853 0.570670
C13   C     C_2   0.486074 0.932699 0.450801 0.195530
C14   C     C_3   0.801787 0.246278 0.570923 -0.268495
C15   C     C_3   0.139693 0.544504 0.283398 -0.304575
C16   C     C_2   0.077669 0.497479 0.481363 0.254719
C17   C     C_2   0.914169 0.479416 0.505157 0.259231
C18   C     C_R   0.472504 0.491316 0.702611 0.569777
C19   C     C_R   0.527391 0.505926 0.297399 0.575335
C20   C     C_R   0.545761 0.514241 0.182273 0.050328
C21   C     C_R   0.456368 0.476833 0.817418 0.046292
C22   C     C_R   0.320386 0.370493 0.997908 -0.118909
Cu1   Cu    Cu3+1 0.647370 0.522180 0.481340 1.023343
Cu2   Cu    Cu3+1 0.352630 0.477820 0.518660 1.000459
H1    H     H_    0.334358 0.360954 0.199412 0.122133
H2    H     H_    0.131160 0.252166 0.909709 0.316885
H3    H     H_    0.297708 0.900868 0.415793 0.317429
H4    H     H_    0.705210 0.110162 0.334051 0.314576
H5    H     H_    0.802203 0.399919 0.662725 0.231586
H6    H     H_    0.684093 0.179180 0.596295 0.168508
H7    H     H_    0.862163 0.214648 0.621950 0.102079
H8    H     H_    0.850557 0.237593 0.485786 0.178474
H9    H     H_    0.279248 0.637533 0.380884 0.337823
H10   H     H_    0.238798 0.538485 0.225663 0.154064
H11   H     H_    0.111395 0.623133 0.248151 0.151547
H12   H     H_    0.674234 0.621162 0.799539 0.123312
H13   H     H_    0.046040 0.450049 0.293718 0.159890
H14   H     H_    0.222264 0.300481 0.053628 0.095714
H15   H     H_    0.783301 0.684951 0.945200 0.096906
H16   H     H_    0.695585 0.953162 0.476122 0.050037
H17   H     H_    0.307648 0.048099 0.548571 0.077501
H18   H     H_    0.946516 0.636593 0.403885 0.216000
H19   H     H_    0.060080 0.396659 0.619545 0.203381
H20   H     H_    0.868036 0.743280 0.090010 0.315781
N1    N     N_2   0.131210 0.444490 0.546730 -0.337759
N2    N     N_2   0.868790 0.555510 0.453270 -0.317546
N3    N     N_2   0.807345 0.378277 0.585235 -0.457904
N4    N     N_2   0.173582 0.576888 0.384215 -0.495217
O1    O     O_R   0.578710 0.332530 0.490040 -0.413578
O2    O     O_3   0.212105 0.310824 0.849324 -0.689897
O3    O     O_3   0.349600 0.849142 0.443179 -0.708612
O4    O     O_3   0.649625 0.160784 0.375838 -0.696882
O5    O     O_R   0.421290 0.667470 0.509960 -0.450555
O6    O     O_R   0.329810 0.295070 0.521560 -0.505700
O7    O     O_R   0.670190 0.704930 0.478440 -0.511573
O8    O     O_R   0.604230 0.515670 0.637800 -0.514948
O9    O     O_R   0.395770 0.484330 0.362200 -0.528620
O10   O     O_R   0.355330 0.478200 0.669330 -0.447439
O11   O     O_R   0.644670 0.521800 0.330670 -0.431852
O12   O     O_3   0.786519 0.685628 0.150611 -0.691120

loop_
_geom_bond_atom_site_label_1
_geom_bond_atom_site_label_2
_ccdc_geom_bond_type
C16   N1    D    
C8    C22   A    
Cu1   Cu2   S    
Cu1   O7    S    
C14   N3    S    
H20   O12   S    
C4    C20   A    
C9    H17   S    
C18   C21   S    
C6    C20   A    
Cu2   O9    S    
C15   H10   S    
C2    C4    A    
C12   O5    A    
C18   O8    A    
C14   H7    S    
C1    O6    A    
C16   N4    S    
C19   C20   S    
C5    C21   A    
Cu1   O8    S    
H19   N1    S    
Cu1   N2    S    
C19   O9    A    
Cu1   O11   S    
H4    O4    S    
C4    O12   S    
C10   C12   S    
C15   N4    S    
H5    N3    S    
Cu2   N1    S    
C9    C11   D    
C15   H11   S    
C3    O2    S    
H3    O3    S    
H2    O2    S    
Cu2   O10   S    
C11   C13   S    
C3    C21   A    
C6    H1    S    
Cu1   O1    S    
Cu2   O6    S    
C12   O7    A    
C5    H12   S    
C7    C8    A    
C1    C9    S    
C17   N2    D    
C10   H16   S    
H18   N2    S    
C5    C7    A    
H9    N4    S    
C15   H13   S    
C3    C22   A    
C6    C8    A    
C11   O4    S    
C2    C7    A    
C19   O11   A    
Cu2   O5    S    
C13   O3    S    
C1    O1    A    
C2    H15   S    
C18   O10   A    
C14   H6    S    
C17   N3    S    
C14   H8    S    
C16   C17   S    
C10   C13   D    
C22   H14   S    
