data_mof_unit_20163.cif
_audit_creation_date              2012-12-10T18:43:47-0500
_audit_creation_method            fapswitch 2.2
_symmetry_space_group_name_H-M    P1
_symmetry_Int_Tables_number       1
_space_group_crystal_system       triclinic
_cell_length_a                    10.585312
_cell_length_b                    10.643581
_cell_length_c                    9.902118
_cell_angle_alpha                 91.721614
_cell_angle_beta                  102.915642
_cell_angle_gamma                 90.020576
_cell_volume                      1086.88364723

loop_
_atom_site_label
_atom_site_type_symbol
_atom_type_description
_atom_site_fract_x
_atom_site_fract_y
_atom_site_fract_z
_atom_type_partial_charge
C1    C     C_R   0.504332 0.260485 0.499327 0.926669
C2    C     C_2   0.880400 0.531599 0.584001 -0.301017
C3    C     C_2   0.071109 0.601892 0.513410 -0.089182
C4    C     C_2   0.931877 0.602455 0.498474 -0.103000
C5    C     C_R   0.406205 0.066241 0.405418 -0.226340
C6    C     C_R   0.590474 0.934408 0.593839 -0.185442
C7    C     C_R   0.395094 0.937054 0.405237 -0.047572
C8    C     C_R   0.602976 0.063245 0.591358 -0.046922
C9    C     C_R   0.489172 0.872344 0.501785 -0.079873
C10   C     C_R   0.507888 0.127877 0.496842 -0.100117
C11   C     C_2   0.856738 0.688912 0.395804 0.974806
C12   C     C_R   0.493755 0.739537 0.500094 1.003574
C13   C     C_2   0.148062 0.681323 0.629571 0.988535
C14   C     C_2   0.620153 0.704802 0.900401 0.955645
C15   C     C_2   0.380056 0.295192 0.099657 0.930018
C16   C     C_2   0.283173 0.875714 0.306396 0.946388
C17   C     C_2   0.718244 0.125222 0.683421 0.935802
C18   C     C_R   0.258147 0.506974 0.444221 0.983480
C19   C     C_R   0.741800 0.507857 0.556521 1.019538
C20   C     C_R   0.554089 0.596903 0.089330 -0.091307
C21   C     C_R   0.445545 0.403276 0.910553 -0.104425
C22   C     C_R   0.555612 0.597201 0.946678 0.028700
C23   C     C_R   0.444268 0.402890 0.053277 0.037642
C24   C     C_2   0.120337 0.533400 0.419818 -0.297198
H1    H     H_    0.598233 0.673549 0.157989 0.174671
H2    H     H_    0.359266 0.106535 0.095493 0.376191
H3    H     H_    0.140005 0.891018 0.134571 0.374342
H4    H     H_    0.860514 0.116722 0.856793 0.365539
H5    H     H_    0.400933 0.326827 0.841702 0.169756
H6    H     H_    0.942583 0.482494 0.668151 0.190272
H7    H     H_    0.056462 0.489090 0.329616 0.181427
H8    H     H_    0.332831 0.120394 0.337810 0.206239
H9    H     H_    0.664050 0.880806 0.661916 0.216411
H10   H     H_    0.719081 0.821650 0.354700 0.343715
H11   H     H_    0.165465 0.752382 0.824204 0.358265
H12   H     H_    0.641967 0.893373 0.905171 0.378293
N1    N     N_R   0.499970 0.499970 0.857200 -0.128611
N2    N     N_R   0.500030 0.500030 0.142800 -0.129181
O1    O     O_R   0.499990 0.316750 0.614620 -0.619401
O2    O     O_R   0.759101 0.762485 0.430681 -0.821203
O3    O     O_2   0.243035 0.739714 0.614632 -0.608283
O4    O     O_R   0.106682 0.694866 0.753788 -0.778162
O5    O     O_2   0.707848 0.688090 0.840246 -0.577443
O6    O     O_R   0.587103 0.826627 0.935813 -0.790542
O7    O     O_2   0.292151 0.311705 0.159561 -0.602554
O8    O     O_R   0.413799 0.173467 0.064727 -0.790793
O9    O     O_2   0.248935 0.769088 0.323923 -0.604261
O10   O     O_R   0.214132 0.941972 0.193757 -0.807013
O11   O     O_2   0.759259 0.225394 0.652894 -0.648018
O12   O     O_R   0.500010 0.683250 0.385380 -0.616893
O13   O     O_R   0.783008 0.066351 0.803493 -0.792445
O14   O     O_R   0.499990 0.316780 0.385290 -0.608685
O15   O     O_R   0.500010 0.683220 0.614710 -0.592147
O16   O     O_R   0.317810 0.500000 0.571850 -0.632051
O17   O     O_R   0.682190 0.500000 0.428150 -0.626941
O18   O     O_R   0.317810 0.500030 0.342520 -0.538266
O19   O     O_R   0.682190 0.499970 0.657480 -0.544207
O20   O     O_2   0.885559 0.701024 0.283949 -0.603018
Zn1   Zn    Zn3+2 0.500000 0.499980 0.653120 1.034545
Zn2   Zn    Zn3+2 0.500000 0.500020 0.346880 1.032050

loop_
_geom_bond_atom_site_label_1
_geom_bond_atom_site_label_2
_ccdc_geom_bond_type
H3    O10   S    
C2    C4    D    
C18   C24   S    
C11   O20   D    
C20   N2    A    
C12   O12   A    
C8    C17   S    
C3    C13   S    
C6    H9    S    
C18   O18   A    
C2    H6    S    
C5    H8    S    
O12   Zn2   S    
C14   C22   S    
C6    C9    A    
C15   C23   S    
O15   Zn1   S    
C24   H7    S    
O1    Zn1   S    
C5    C10   A    
O17   Zn2   S    
C19   O19   A    
C4    C11   S    
C17   O13   S    
C3    C24   D    
N1    Zn1   S    
N2    Zn2   S    
C16   O9    D    
C13   O3    D    
C7    C16   S    
C1    O14   A    
C20   C22   A    
C18   O16   A    
C5    C7    A    
O16   Zn1   S    
C21   C23   A    
C11   O2    S    
H4    O13   S    
H10   O2    S    
H12   O6    S    
O19   Zn1   S    
C9    C12   S    
C1    O1    A    
C19   O17   A    
C3    C4    S    
C23   N2    A    
O18   Zn2   S    
C21   N1    A    
C16   O10   S    
C14   O6    S    
C20   H1    S    
C17   O11   D    
C7    C9    A    
H11   O4    S    
H2    O8    S    
C13   O4    S    
C6    C8    A    
O14   Zn2   S    
C15   O8    S    
C2    C19   S    
C22   N1    A    
C21   H5    S    
C8    C10   A    
C1    C10   S    
C12   O15   A    
C14   O5    D    
C15   O7    D    
