data_mof_unit_51215.cif
_audit_creation_date              2013-03-05T16:17:53-0500
_audit_creation_method            fapswitch 2.2
_symmetry_space_group_name_H-M    P1
_symmetry_Int_Tables_number       1
_space_group_crystal_system       triclinic
_cell_length_a                    8.707663
_cell_length_b                    23.065282
_cell_length_c                    27.254563
_cell_angle_alpha                 96.271479
_cell_angle_beta                  91.11749
_cell_angle_gamma                 89.716373
_cell_volume                      5440.11882251

loop_
_atom_site_label
_atom_site_type_symbol
_atom_site_description
_atom_site_fract_x
_atom_site_fract_y
_atom_site_fract_z
_atom_type_partial_charge
P1    P     P_3+3 0.092730 0.547450 0.611370 0.448625
O1    O     O_2   0.919820 0.530450 0.618560 -0.297909
O2    O     O_3   0.151800 0.530410 0.558380 -0.443694
O3    O     O_3   0.654050 0.426350 0.586890 -0.387226
O4    O     O_2   0.795424 0.465287 0.670877 -0.398410
O5    O     O_3   0.099865 0.622317 0.630945 -0.606055
O6    O     O_3   0.648229 0.374155 0.684595 -0.583782
C1    C     C_3   0.539553 0.280272 0.701830 0.024645
P2    P     P_3+3 0.606840 0.368620 0.459370 0.494063
P3    P     P_3+3 0.076374 0.320722 0.558337 0.447581
O7    O     O_2   0.782760 0.360070 0.473730 -0.289079
O8    O     O_3   0.056430 0.397060 0.562000 -0.433390
O9    O     O_2   0.926232 0.293821 0.534996 -0.304049
O10   O     O_3   0.658180 0.362136 0.395311 -0.548316
O11   O     O_3   0.073222 0.301994 0.618949 -0.539120
C2    C     C_3   0.005493 0.347631 0.649579 0.491321
H1    H     H_    0.894376 0.359822 0.633571 0.120276
H2    H     H_    0.076405 0.387538 0.653342 0.094903
C3    C     C_3   0.977846 0.327830 0.700290 -0.479250
H3    H     H_    0.903335 0.360372 0.721323 0.182622
H4    H     H_    0.921015 0.284678 0.694540 0.259321
C4    C     C_3   0.132782 0.343713 0.410025 0.346967
H5    H     H_    0.257266 0.350578 0.415550 0.008451
H6    H     H_    0.069183 0.358930 0.444002 0.108072
C5    C     C_3   0.106012 0.276851 0.395127 -0.262217
H7    H     H_    0.216152 0.254386 0.392641 0.058294
Ba1   Ba    Ba6+2 0.848110 0.472730 0.522970 1.532649
C6    C     C_3   0.019043 0.659384 0.602769 0.257113
H8    H     H_    0.904163 0.642079 0.591001 0.040488
C7    C     C_3   0.005544 0.717418 0.636663 -0.370754
H9    H     H_    0.952206 0.708728 0.671741 0.164058
H10   H     H_    0.123175 0.734097 0.646862 0.234454
C8    C     C_3   0.573024 0.329483 0.355936 0.380555
C9    C     C_3   0.514575 0.268115 0.367464 -0.250924
H11   H     H_    0.441073 0.275517 0.399351 0.082564
P4    P     P_3+3 0.096970 0.452510 0.388620 0.464542
O12   O     O_2   0.269870 0.469530 0.381410 -0.390114
O13   O     O_3   0.037890 0.469550 0.441610 -0.411265
O14   O     O_3   0.535640 0.573600 0.413100 -0.356036
O15   O     O_3   0.090310 0.376341 0.371820 -0.536797
P5    P     P_3+3 0.106670 0.677827 0.436450 0.466762
O16   O     O_3   0.647280 0.568810 0.525990 -0.369459
O17   O     O_3   0.133260 0.602900 0.438000 -0.426198
O18   O     O_2   0.261332 0.703738 0.455632 -0.320615
O19   O     O_3   0.098289 0.693604 0.374979 -0.519054
Ba2   Ba    Ba6+2 0.341700 0.527220 0.477020 1.554823
P6    P     P_3+3 0.640112 0.437966 0.653080 0.488880
C10   C     C_3   0.567842 0.324244 0.662390 0.248643
H12   H     H_    0.443764 0.297916 0.725834 0.196890
O20   O     O_3   0.542410 0.431140 0.474010 -0.405222
C11   C     C_3   0.575793 0.663739 0.644665 0.509347
C12   C     C_3   0.615613 0.716541 0.683894 -0.468219
H13   H     H_    0.516875 0.747539 0.685036 0.237929
H14   H     H_    0.712511 0.741524 0.672011 0.216339
P7    P     P_3+3 0.585485 0.643864 0.539965 0.467758
O21   O     O_2   0.406930 0.639920 0.526240 -0.368953
O22   O     O_3   0.594726 0.686093 0.598858 -0.593739
C13   C     C_3   0.105361 0.641386 0.343380 0.455472
H15   H     H_    0.214282 0.617775 0.349595 0.183617
H16   H     H_    0.005885 0.613008 0.348900 0.002253
C14   C     C_3   0.100114 0.655553 0.290220 -0.823862
H17   H     H_    0.108071 0.614783 0.264760 0.256396
H18   H     H_    0.990632 0.678082 0.282579 0.264061
H19   H     H_    0.197896 0.684194 0.283530 0.262370
P8    P     P_3+3 0.560521 0.564324 0.348312 0.431778
C15   C     C_3   0.608982 0.672145 0.328484 0.272213
H20   H     H_    0.729990 0.656563 0.329655 -0.013307
O23   O     O_2   0.418206 0.528169 0.332340 -0.382400
O24   O     O_3   0.503967 0.625777 0.319188 -0.517348
H21   H     H_    0.663634 0.752404 0.297056 0.187349
C16   C     C_3   0.592754 0.712557 0.287410 -0.686807
H22   H     H_    0.471103 0.726609 0.283781 0.210555
C17   C     C_R   0.004510 0.453535 0.175092 0.597383
O25   O     O_2   0.023723 0.410072 0.196422 -0.605654
N1    N     N_R   0.939880 0.503239 0.199847 -0.151848
C18   C     C_R   0.904840 0.549845 0.173438 0.511803
C19   C     C_2   0.760563 0.521208 0.267855 -0.256244
C20   C     C_3   0.711897 0.513555 0.319399 0.220789
C21   C     C_1   0.979205 0.483967 0.338500 0.195883
C22   C     C_2   0.021793 0.491067 0.291861 -0.228987
C23   C     C_2   0.904235 0.506405 0.252921 0.168601
C24   C     C_R   0.006066 0.498384 0.097598 -0.044644
C25   C     C_R   0.049786 0.452673 0.125223 -0.062567
C26   C     C_R   0.143799 0.408144 0.103323 -0.174755
C27   C     C_R   0.922275 0.545816 0.121152 -0.136940
C28   C     C_2   0.835414 0.493769 0.353054 -0.480596
H23   H     H_    0.188041 0.375180 0.125363 0.174668
C29   C     C_2   0.361111 0.498686 0.641814 -0.122005
C30   C     C_R   0.161741 0.445807 0.971467 0.041248
C31   C     C_R   0.042626 0.542348 0.968560 0.048550
C32   C     C_R   0.121280 0.493467 0.944727 0.085655
C33   C     C_R   0.221666 0.395307 0.944083 -0.181377
C34   C     C_R   0.261574 0.394806 0.894680 -0.115151
C35   C     C_R   0.234018 0.443381 0.869024 -0.041202
C36   C     C_R   0.158496 0.491982 0.893441 -0.070687
C37   C     C_R   0.120818 0.539180 0.866640 -0.053449
C38   C     C_R   0.158786 0.537164 0.816029 0.519484
N2    N     N_R   0.236944 0.489763 0.792577 -0.166606
C39   C     C_R   0.277957 0.443789 0.819212 0.500223
C40   C     C_2   0.435246 0.484978 0.729887 -0.188900
C41   C     C_3   0.490101 0.492742 0.678672 0.288233
C42   C     C_1   0.216588 0.510467 0.655607 0.236513
C43   C     C_2   0.170037 0.500640 0.700434 -0.280162
C44   C     C_2   0.284474 0.490361 0.741223 0.167582
O26   O     O_2   0.353956 0.403251 0.799776 -0.605747
C45   C     C_R   0.134807 0.449250 0.023739 -0.017550
C46   C     C_R   0.045825 0.496483 0.046518 0.059697
C47   C     C_R   0.998046 0.542365 0.018874 0.028322
C48   C     C_R   0.195634 0.408233 0.054871 0.139908
H24   H     H_    0.520771 0.479846 0.758607 0.154424
H25   H     H_    0.311385 0.355344 0.876220 0.159831
H26   H     H_    0.234067 0.354416 0.959387 0.152832
O27   O     O_2   0.863946 0.595722 0.195779 -0.610436
C49   C     C_R   0.862392 0.588171 0.091810 -0.038002
H27   H     H_    0.672755 0.531146 0.241190 0.161649
C50   C     C_R   0.011175 0.589828 0.940931 -0.203715
C51   C     C_R   0.048069 0.587965 0.891216 -0.086484
O28   O     O_2   0.125117 0.578347 0.793224 -0.605224
C52   C     C_R   0.902196 0.586209 0.042053 -0.188785
H28   H     H_    0.960718 0.630077 0.956924 0.138726
H29   H     H_    0.020183 0.625558 0.872092 0.166145
H30   H     H_    0.049314 0.504179 0.709114 0.189685
H31   H     H_    0.848773 0.618166 0.021225 0.156354
H32   H     H_    0.791843 0.471951 0.383264 0.184031
H33   H     H_    0.949500 0.098215 0.493666 0.188227
H34   H     H_    0.027609 0.996344 0.484457 0.169567
C53   C     C_R   0.340861 0.324293 0.500848 -0.572249
C54   C     C_R   0.574473 0.937745 0.546512 -0.109724
C55   C     C_R   0.634489 0.880092 0.546219 0.555301
O29   O     O_2   0.583300 0.847747 0.574347 -0.578306
N3    N     N_R   0.757232 0.861354 0.516433 -0.151474
C56   C     C_R   0.861629 0.904766 0.508446 0.547751
O30   O     O_2   0.997162 0.893256 0.502641 -0.607336
C57   C     C_R   0.814804 0.963782 0.510995 -0.036961
C58   C     C_R   0.666536 0.979650 0.527496 -0.017768
C59   C     C_R   0.427308 0.955081 0.564954 -0.064878
C60   C     C_R   0.369485 0.011750 0.559754 0.108983
C61   C     C_R   0.463710 0.053888 0.540176 -0.097399
C62   C     C_R   0.615791 0.038403 0.528188 -0.028168
C63   C     C_R   0.913706 0.007309 0.497925 -0.151407
C64   C     C_R   0.868427 0.065772 0.502858 -0.115391
C65   C     C_R   0.718993 0.081897 0.517691 -0.055334
C66   C     C_R   0.671927 0.140828 0.523310 0.540097
N4    N     N_R   0.516671 0.155710 0.526184 -0.158794
C67   C     C_R   0.412529 0.110878 0.531650 0.535356
C68   C     C_2   0.903149 0.775647 0.472865 0.124272
C69   C     C_3   0.944516 0.711779 0.475691 0.032651
C70   C     C_1   0.685606 0.695427 0.503136 0.168463
C71   C     C_2   0.654023 0.752868 0.506164 -0.228884
C72   C     C_2   0.779848 0.797820 0.499812 0.035820
C73   C     C_R   0.318014 0.236534 0.539904 -0.203600
C74   C     C_R   0.254476 0.289503 0.528189 0.202323
C75   C     C_R   0.492694 0.311469 0.488136 0.197851
C76   C     C_R   0.549869 0.256256 0.496445 -0.205072
C77   C     C_R   0.462352 0.216022 0.521052 0.092182
O31   O     O_2   0.770528 0.178459 0.526513 -0.525000
O32   O     O_2   0.275434 0.119331 0.526392 -0.632785
C78   C     C_2   0.802178 0.674758 0.476236 -0.197114
H35   H     H_    0.255792 0.212984 0.565268 0.209053
H36   H     H_    0.660238 0.245297 0.482150 0.258829
H37   H     H_    0.291471 0.364329 0.492130 0.138431
C79   C     C_2   0.655336 0.296947 0.618105 0.408809
H38   H     H_    0.649543 0.316815 0.583945 0.065475
O33   O     O_2   0.736523 0.253958 0.620154 -0.537791
N5    N     N_2   0.027646 0.264702 0.347564 -0.055467
H39   H     H_    0.924759 0.286090 0.345629 0.251452
C80   C     C_3   0.020938 0.204027 0.326585 -0.864289
H40   H     H_    0.949612 0.178034 0.349361 0.242712
H41   H     H_    0.136724 0.183948 0.324597 0.251181
H42   H     H_    0.970365 0.201359 0.288704 0.263901
C81   C     C_2   0.026309 0.248090 0.434006 0.540764
H43   H     H_    0.089564 0.220268 0.456943 0.042748
O34   O     O_2   0.889433 0.254729 0.439512 -0.548514
C82   C     C_2   0.111826 0.667251 0.558889 0.484876
H44   H     H_    0.119568 0.631552 0.529995 0.092041
O35   O     O_2   0.180488 0.712612 0.555482 -0.598629
N6    N     N_2   0.917309 0.761481 0.614194 -0.094871
H45   H     H_    0.929971 0.761243 0.576801 0.213018
C83   C     C_3   0.930414 0.819599 0.639909 -0.779122
H46   H     H_    0.048353 0.836660 0.636265 0.256067
H47   H     H_    0.904408 0.819343 0.679642 0.238208
H48   H     H_    0.847815 0.849186 0.623681 0.263894
N7    N     N_2   0.672710 0.317951 0.313047 -0.136784
H49   H     H_    0.623612 0.293888 0.282692 0.199251
C84   C     C_3   0.764109 0.364527 0.297856 -0.870132
H50   H     H_    0.838412 0.382111 0.328824 0.293999
H51   H     H_    0.689222 0.398708 0.284489 0.234286
H52   H     H_    0.839731 0.347110 0.267324 0.281476
C85   C     C_2   0.449124 0.369599 0.340652 0.390865
H53   H     H_    0.470971 0.415752 0.347872 0.115507
O36   O     O_2   0.341595 0.352687 0.313658 -0.613090
N8    N     N_2   0.496664 0.223178 0.676798 -0.111703
H54   H     H_    0.582392 0.192209 0.671684 0.237898
C86   C     C_3   0.346943 0.200869 0.686422 -0.937212
H55   H     H_    0.328424 0.159135 0.662961 0.260483
H56   H     H_    0.256453 0.231887 0.676793 0.302656
H57   H     H_    0.339157 0.193253 0.725828 0.265396
N9    N     N_2   0.640836 0.230899 0.380539 -0.044863
H58   H     H_    0.725701 0.226796 0.354839 0.229971
C87   C     C_3   0.601213 0.174612 0.396105 -0.789343
H59   H     H_    0.587228 0.141370 0.363708 0.270162
H60   H     H_    0.493036 0.177044 0.417121 0.224499
H61   H     H_    0.695646 0.159692 0.419611 0.243228
C88   C     C_2   0.424509 0.237120 0.323608 0.469154
H62   H     H_    0.311502 0.251930 0.314176 0.131363
O37   O     O_2   0.479786 0.196636 0.296940 -0.572320
C89   C     C_2   0.411344 0.340084 0.646045 0.374018
H63   H     H_    0.359267 0.316637 0.614220 0.010054
O38   O     O_2   0.338026 0.376559 0.671224 -0.623268
N10   N     N_2   0.416765 0.646757 0.650631 -0.091226
H64   H     H_    0.379567 0.614880 0.623850 0.190854
C90   C     C_3   0.370076 0.638338 0.700532 -0.857199
H65   H     H_    0.257411 0.617083 0.700736 0.287478
H66   H     H_    0.356235 0.681014 0.723007 0.270807
H67   H     H_    0.454400 0.610886 0.718568 0.220007
C91   C     C_2   0.681586 0.613231 0.648613 0.388789
H68   H     H_    0.787980 0.617424 0.669866 0.037711
O39   O     O_2   0.651054 0.566803 0.625255 -0.559477
N11   N     N_2   0.650034 0.700437 0.733130 -0.112265
H69   H     H_    0.752179 0.678284 0.736103 0.182971
C92   C     C_3   0.635030 0.747357 0.772526 -0.818569
H70   H     H_    0.658404 0.730495 0.808580 0.245792
H71   H     H_    0.516414 0.765339 0.772870 0.254843
H72   H     H_    0.718499 0.782551 0.767849 0.246239
N12   N     N_2   0.671172 0.275372 0.734950 -0.096603
H73   H     H_    0.704251 0.315383 0.752334 0.220648
C93   C     C_3   0.655931 0.234583 0.771433 -0.899239
H74   H     H_    0.759702 0.236897 0.795922 0.248379
H75   H     H_    0.646535 0.189153 0.753561 0.264129
H76   H     H_    0.553601 0.245610 0.794420 0.250379
N13   N     N_2   0.119222 0.323308 0.728169 -0.064868
H77   H     H_    0.167939 0.363537 0.737571 0.271597
C94   C     C_3   0.107217 0.291028 0.770542 -0.852549
H78   H     H_    0.222027 0.288101 0.788563 0.254647
H79   H     H_    0.066173 0.245991 0.758936 0.259045
H80   H     H_    0.026909 0.313430 0.797673 0.241742
C95   C     C_2   0.569216 0.708251 0.375550 0.653355
H81   H     H_    0.658096 0.722658 0.402098 -0.097399
O40   O     O_2   0.438268 0.725917 0.382054 -0.493612
C96   C     C_2   0.640552 0.683453 0.238540 0.733989
H82   H     H_    0.587755 0.642634 0.223584 0.040529
O41   O     O_2   0.736710 0.706176 0.214902 -0.533039
C97   C     C_2   0.180730 0.479316 0.275889 0.691584
H83   H     H_    0.247831 0.445915 0.290854 0.104646
O42   O     O_2   0.238441 0.506908 0.245230 -0.609465
N14   N     N_2   0.321868 0.371114 0.040539 -0.121685
H84   H     H_    0.326964 0.333189 0.057398 0.173636
C98   C     C_3   0.468535 0.400581 0.042020 -0.879054
H85   H     H_    0.558819 0.369276 0.027911 0.248740
H86   H     H_    0.499301 0.418032 0.080579 0.251023
H87   H     H_    0.464933 0.436918 0.018413 0.259252
C99   C     C_2   0.744189 0.631383 0.110176 0.680974
H88   H     H_    0.664573 0.621201 0.138016 0.012505
O43   O     O_2   0.731802 0.678212 0.093408 -0.560620
N15   N     N_2   0.402134 0.491261 0.591669 -0.076474
H89   H     H_    0.423025 0.527279 0.573764 0.239256
C100  C     C_3   0.348046 0.438624 0.564351 -0.579581
H90   H     H_    0.268987 0.447003 0.534137 0.258347
H91   H     H_    0.299927 0.409411 0.588940 0.197522
H92   H     H_    0.440905 0.414713 0.546790 0.225300
N16   N     N_2   0.220861 0.026441 0.578638 -0.117726
H93   H     H_    0.143101 0.046392 0.557280 0.233383
C101  C     C_3   0.209227 0.041448 0.631393 -0.861644
H94   H     H_    0.155968 0.085232 0.639004 0.256375
H95   H     H_    0.323464 0.041500 0.650405 0.256519
H96   H     H_    0.134203 0.009294 0.646616 0.254565
C102  C     C_2   0.325267 0.914269 0.587275 0.654320
H97   H     H_    0.215410 0.902266 0.569861 0.046565
O44   O     O_2   0.358815 0.897181 0.626962 -0.551635
C103  C     C_2   0.492971 0.770580 0.500075 0.743826
H98   H     H_    0.407145 0.754227 0.522884 0.124397
O45   O     O_2   0.456638 0.805706 0.471429 -0.588846
N17   N     N_2   0.977999 0.808005 0.438606 -0.058911
H99   H     H_    0.090516 0.796710 0.431502 0.261748
C104  C     C_3   0.888411 0.816901 0.394813 -0.785649
H100  H     H_    0.950336 0.847124 0.373129 0.255209
H101  H     H_    0.775006 0.836562 0.404867 0.242143
H102  H     H_    0.871481 0.774791 0.371471 0.230257
N18   N     N_2   0.779314 0.627438 0.439790 -0.103233
H103  H     H_    0.809415 0.636522 0.405193 0.102331
C105  C     C_3   0.841909 0.572904 0.452115 -0.496032
H104  H     H_    0.752939 0.539050 0.451061 0.250099
H105  H     H_    0.905248 0.577178 0.488166 0.210119
H106  H     H_    0.918628 0.556383 0.423318 0.196579

loop_
_geom_bond_atom_site_label_1
_geom_bond_atom_site_label_2
_geom_bond_distance
_ccdc_geom_bond_type
C11   C91   1.493430 S    
C101  H96   1.109755 S    
C86   H56   1.108600 S    
P7    O21   1.592759 D    
N15   C100  1.429920 S    
N1    C18   1.387068 Am   
C40   H24   1.085339 S    
C34   C35   1.401340 A    
P6    C41   1.901496 S    
P7    O22   1.784866 S    
C17   N1    1.387681 Am   
C17   O25   1.221816 D    
C3    H3    1.108433 S    
C11   N10   1.457918 S    
C26   H23   1.084056 S    
N8    H54   1.031473 S    
P2    O10   1.800877 S    
C68   N17   1.426339 S    
C6    C82   1.484094 S    
C54   C55   1.425639 A    
C53   C75   1.395394 A    
O10   C8    1.437565 S    
C55   O29   1.218418 D    
C38   N2    1.387077 Am   
C66   O31   1.219044 D    
C101  H94   1.109645 S    
C80   H41   1.107232 S    
C19   C20   1.504110 S    
C98   H85   1.110303 S    
C105  H106  1.077066 S    
C58   C62   1.421576 A    
N8    C86   1.443168 S    
C81   O34   1.211062 D    
C90   H65   1.099285 S    
H34   C63   1.083450 S    
N5    H39   1.023841 S    
C59   C102  1.483300 S    
C4    H6    1.111072 S    
C8    C85   1.500165 S    
P4    O12   1.579135 D    
C3    H4    1.108105 S    
N17   H99   1.029144 S    
C91   O39   1.212428 D    
C71   C103  1.470091 S    
C100  H90   1.095786 S    
C92   H72   1.111544 S    
P3    O11   1.753319 S    
N7    C84   1.441305 S    
C57   C63   1.405409 A    
C7    H9    1.109045 S    
C53   C74   1.386916 A    
C62   C65   1.406233 A    
P8    O24   1.762188 S    
C84   H51   1.108121 S    
C86   H57   1.110426 S    
C10   C79   1.516151 S    
C45   C46   1.426639 A    
Ba1   O13   2.785583 S    
C13   H16   1.110666 S    
C66   N4    1.394735 Am   
N15   H89   1.027106 S    
C40   C44   1.356585 D    
C50   C51   1.394649 A    
C85   O36   1.218262 D    
C9    H11   1.087321 S    
O16   Ba2   3.064130 S    
C38   O28   1.222159 D    
C14   H18   1.110517 S    
C93   H74   1.110852 S    
C51   H29   1.083619 S    
C82   H44   1.078212 S    
C96   H82   1.084907 S    
C43   C44   1.515608 S    
P3    C74   1.873004 S    
C68   C72   1.377297 D    
N10   H64   1.026701 S    
C65   C66   1.410839 A    
O5    C6    1.390077 S    
C36   C37   1.409670 A    
C9    C88   1.528766 S    
C87   H59   1.109581 S    
C97   O42   1.221277 D    
C4    C5    1.568642 S    
C30   C45   1.441893 A    
C8    N7    1.469701 S    
C73   C74   1.404405 A    
C94   H79   1.111028 S    
P4    Ba2   3.499210 S    
H21   C16   1.114117 S    
C11   O22   1.414608 S    
C18   O27   1.217044 D    
C31   C50   1.417933 A    
C29   N15   1.411405 S    
C94   H78   1.110249 S    
P5    O17   1.747504 S    
C49   C52   1.402127 A    
O12   Ba2   2.852922 S    
C98   H87   1.110938 S    
C83   H48   1.107847 S    
P1    Ba1   3.498739 S    
C5    C81   1.493787 S    
C13   C14   1.519449 S    
C86   H55   1.106581 S    
P2    C75   1.899834 S    
C53   H37   1.064962 S    
C92   H71   1.110952 S    
C95   H81   1.077547 S    
C83   H47   1.111280 S    
O14   P8    1.772721 S    
C47   C52   1.411023 A    
C1    N12   1.456618 S    
C42   C43   1.337572 D    
C1    H12   1.117632 S    
C94   H80   1.111705 S    
C98   H86   1.111699 S    
O7    Ba1   2.846077 S    
C8    C9    1.572208 S    
C80   H42   1.110095 S    
C79   O33   1.220530 D    
C39   O26   1.221535 D    
N14   C98   1.447479 S    
O19   C13   1.403876 S    
O13   Ba2   3.058442 S    
O11   C2    1.404928 S    
C68   C69   1.524559 S    
O8    Ba1   2.786997 S    
C11   C12   1.565819 S    
O4    P6    1.541898 D    
C91   H68   1.082067 S    
C37   C51   1.400347 A    
P4    O15   1.767417 S    
C104  H102  1.110213 S    
C63   C64   1.396083 A    
C54   C58   1.406702 A    
H33   C64   1.083614 S    
C80   H40   1.109308 S    
N16   C101  1.447070 S    
C4    O15   1.393133 S    
C56   O30   1.217921 D    
C84   H52   1.110482 S    
C52   H31   1.076886 S    
N6    C83   1.447181 S    
C105  H104  1.100448 S    
P4    C21   1.896970 S    
C56   C57   1.413836 A    
C89   H63   1.065393 S    
P1    O2    1.551702 S    
O6    P6    1.783753 S    
C69   C78   1.509807 S    
C14   H19   1.110210 S    
N7    H49   1.031264 S    
C1    C10   1.579815 S    
C76   H36   1.063020 S    
C92   H70   1.110495 S    
O16   P7    1.812786 S    
N11   C92   1.446144 S    
C67   O32   1.216872 D    
C9    N9    1.454239 S    
C15   C16   1.537025 S    
P5    C69   1.901509 S    
C90   H67   1.109525 S    
C19   C23   1.353746 D    
C46   C47   1.420673 A    
P8    O23   1.526600 D    
C49   C99   1.484685 S    
C37   C38   1.420482 A    
C96   O41   1.220652 D    
N12   H73   1.030017 S    
C29   C41   1.507983 S    
C12   H14   1.097769 S    
C35   C36   1.406681 A    
N13   C94   1.446489 S    
C2    H2    1.105251 S    
C70   C78   1.320250 D    
C24   C46   1.437094 A    
C70   C71   1.345800 D    
C30   C33   1.416087 A    
C33   C34   1.395931 A    
P2    O7    1.590321 D    
C81   H43   1.084759 S    
C76   C77   1.433391 A    
N9    H58   1.025016 S    
P3    O8    1.760580 S    
C34   H25   1.083635 S    
O14   Ba2   2.751561 S    
Ba1   Ba2   4.714682 S    
N17   C104  1.445981 S    
C93   H75   1.108926 S    
C104  H100  1.110008 S    
C90   H66   1.108421 S    
C48   N14   1.424141 S    
C24   C25   1.407726 A    
C45   C48   1.431238 A    
C73   C77   1.426077 A    
C95   O40   1.218665 D    
O1    Ba1   2.852495 S    
C28   H32   1.086145 S    
P5    O18   1.535067 D    
C103  O45   1.221516 D    
C21   C22   1.358156 D    
C25   C26   1.399317 A    
C30   C32   1.422989 A    
C82   O35   1.220785 D    
C31   C32   1.418402 A    
N3    C56   1.393113 Am   
N11   H69   1.029800 S    
O3    Ba1   2.752220 S    
C12   H13   1.114220 S    
P2    Ba1   3.490454 S    
C99   O43   1.221434 D    
C79   H38   1.081885 S    
C85   H53   1.078372 S    
C101  H95   1.112558 S    
N14   H84   1.031963 S    
C6    H8    1.107406 S    
C12   N11   1.456253 S    
P8    C20   1.885029 S    
P1    O5    1.751838 S    
C54   C59   1.425069 A    
C104  H101  1.111239 S    
C21   C28   1.331597 D    
C103  H98   1.076742 S    
C33   H26   1.076287 S    
P2    O20   1.558352 S    
C88   O37   1.221791 D    
C22   C23   1.528212 S    
P3    O9    1.545410 D    
Ba2   O21   2.846472 S    
C29   C42   1.338513 D    
C102  H97   1.083144 S    
Ba1   O20   3.064924 S    
C57   C58   1.408922 A    
N1    C23   1.479271 S    
C105  H105  1.112472 S    
C24   C27   1.413599 A    
C60   C61   1.428563 A    
Ba2   O20   2.810678 S    
O2    Ba2   2.786203 S    
N10   C90   1.460374 S    
C26   C48   1.404068 A    
C22   C97   1.473887 S    
C87   H61   1.108984 S    
N4    C67   1.400720 Am   
C100  H92   1.067730 S    
C5    N5    1.453499 S    
O6    C10   1.421531 S    
N4    C77   1.487257 S    
O2    Ba1   3.057636 S    
C5    H7    1.087574 S    
N18   H103  1.027159 S    
C31   C47   1.432391 A    
C16   H22   1.111962 S    
C15   C95   1.496657 S    
C19   H27   1.085498 S    
C71   C72   1.537311 S    
C16   C96   1.490448 S    
P4    O13   1.551728 S    
C7    H10   1.115290 S    
C102  O44   1.220795 D    
Ba1   O16   2.811313 S    
C20   C28   1.501516 S    
C84   H50   1.096338 S    
N16   H93   1.024280 S    
C35   C39   1.418685 A    
C1    N8    1.462109 S    
C2    C3    1.526019 S    
N2    C44   1.468775 S    
P1    O1    1.579004 D    
C10   C89   1.481868 S    
C6    C7    1.546430 S    
C40   C41   1.513309 S    
N12   C93   1.449897 S    
C7    N6    1.451947 S    
C15   H20   1.112610 S    
P7    C70   1.867416 S    
N18   C105  1.438911 S    
C14   H17   1.108714 S    
O17   Ba2   2.787698 S    
C13   H15   1.110669 S    
P1    C42   1.873316 S    
C27   C49   1.419572 A    
C61   C62   1.405233 A    
N6    H45   1.026637 S    
C32   C36   1.437730 A    
C83   H46   1.111715 S    
C15   O24   1.409132 S    
C50   H28   1.076985 S    
C93   H76   1.111699 S    
C88   H62   1.075672 S    
N5    C80   1.453797 S    
N2    C39   1.390436 Am   
C78   N18   1.405379 S    
N13   H77   1.026810 S    
C89   O38   1.213245 D    
P5    O19   1.752909 S    
C4    H5    1.101286 S    
C59   C60   1.418899 A    
N3    C72   1.499011 S    
N9    C87   1.454306 S    
C61   C67   1.427383 A    
C100  H91   1.091368 S    
C75   C76   1.404747 A    
C64   C65   1.406338 A    
C43   H30   1.082729 S    
C3    N13   1.443355 S    
C18   C27   1.428929 A    
C17   C25   1.420580 A    
C87   H60   1.109973 S    
C97   H83   1.075259 S    
C2    H1    1.101473 S    
C73   H35   1.079837 S    
C99   H88   1.082836 S    
C55   N3    1.393133 Am   
O3    P6    1.800979 S    
C60   N16   1.427618 S    
