data_mof_unit_59447.cif
_audit_creation_date              2012-12-10T17:03:01-0500
_audit_creation_method            fapswitch 2.2
_symmetry_space_group_name_H-M    P1
_symmetry_Int_Tables_number       1
_space_group_crystal_system       triclinic
_cell_length_a                    9.808612
_cell_length_b                    11.034637
_cell_length_c                    13.50142
_cell_angle_alpha                 94.32625
_cell_angle_beta                  81.21025
_cell_angle_gamma                 111.561375
_cell_volume                      1342.8057698

loop_
_atom_site_label
_atom_site_type_symbol
_atom_type_description
_atom_site_fract_x
_atom_site_fract_y
_atom_site_fract_z
_atom_type_partial_charge
C1    C     C_R   0.556502 0.745567 0.508320 0.687632
C2    C     C_R   0.444360 0.470053 0.965166 0.013059
C3    C     C_R   0.476739 0.524079 0.868700 -0.026181
C4    C     C_R   0.552956 0.517487 0.032183 0.009333
C5    C     C_R   0.699304 0.599932 0.995809 0.028691
C6    C     C_R   0.729455 0.652465 0.899365 0.020529
C7    C     C_R   0.614444 0.623968 0.842151 -0.156759
C8    C     C_R   0.517885 0.491860 0.135453 0.521290
C9    C     C_R   0.776167 0.602270 0.159955 -0.075812
C10   C     C_R   0.373394 0.473014 0.798906 -0.311770
C11   C     C_2   0.589118 0.885152 0.513662 0.449058
C12   C     C_R   0.422459 0.491153 0.690547 0.836789
C13   C     C_2   0.480262 0.930236 0.513305 -0.256485
C14   C     C_2   0.407295 0.114463 0.496490 0.416255
C15   C     C_2   0.511380 0.069352 0.511419 -0.200316
C16   C     C_2   0.921046 0.489393 0.490719 0.630653
C17   C     C_2   0.074864 0.507696 0.508749 0.616327
C18   C     C_R   0.442360 0.254257 0.494459 0.762420
C19   C     C_R   0.578964 0.514762 0.309300 0.832468
C20   C     C_R   0.809714 0.635720 0.059086 -0.228459
C21   C     C_R   0.627459 0.534065 0.200155 -0.197980
C22   C     C_R   0.231985 0.381735 0.830282 0.498012
C23   C     C_R   0.200467 0.328205 0.924527 0.536632
C24   C     C_R   0.307485 0.366204 0.988823 -0.269704
Cu1   Cu    Cu3+1 0.362000 0.479240 0.482530 1.159455
Cu2   Cu    Cu3+1 0.638000 0.520760 0.517470 1.023392
H1    H     H_    0.366896 0.863429 0.512440 0.202482
H2    H     H_    0.893969 0.616132 0.598796 0.201924
H3    H     H_    0.922395 0.696440 0.032157 0.170715
H4    H     H_    0.282317 0.307421 0.054037 0.262609
H5    H     H_    0.636721 0.677479 0.773931 0.159953
H6    H     H_    0.622513 0.136116 0.520389 0.231983
N1    N     N_2   0.845330 0.551960 0.543750 -0.342431
N2    N     N_2   0.154690 0.448120 0.456210 0.083525
O1    O     O_R   0.426290 0.668220 0.490680 -0.607978
O2    O     O_R   0.659360 0.703290 0.520190 -0.553567
O3    O     O_R   0.326580 0.473880 0.629020 -0.486028
O4    O     O_R   0.559660 0.508940 0.658530 -0.599395
O5    O     O_R   0.340640 0.296710 0.479810 -0.487009
O6    O     O_R   0.573710 0.331780 0.509320 -0.574416
O7    O     O_R   0.440340 0.491060 0.341470 -0.489400
O8    O     O_R   0.673420 0.526120 0.370980 -0.539841
C25   C     C_R   0.898445 0.651969 0.221592 0.121308
C26   C     C_R   0.908297 0.756983 0.289314 -0.104414
C27   C     C_R   0.026867 0.806214 0.344946 -0.040706
C28   C     C_R   0.137552 0.752736 0.331841 -0.167819
C29   C     C_R   0.129497 0.649490 0.263512 -0.117174
C30   C     C_R   0.010411 0.599188 0.208356 -0.043467
H7    H     H_    0.823933 0.800017 0.299193 0.142067
H8    H     H_    0.033058 0.886139 0.397825 0.233482
H9    H     H_    0.229672 0.791256 0.374406 0.179653
H10   H     H_    0.215517 0.608476 0.253340 0.209504
H11   H     H_    0.005464 0.519463 0.155304 0.169717
F1    F     F_    0.268039 0.031926 0.484493 -0.666003
F2    F     F_    0.731252 0.967715 0.517132 -0.625547
F3    F     F_    0.133331 0.590793 0.583717 -0.719891
F4    F     F_    0.858782 0.405450 0.417274 -0.586752
F5    F     F_    0.098690 0.368549 0.380850 -0.481911
C31   C     C_R   0.879196 0.738351 0.855398 0.045534
C32   C     C_R   0.993128 0.688324 0.830900 -0.139778
C33   C     C_R   0.132677 0.767580 0.785681 -0.067967
C34   C     C_R   0.159062 0.896728 0.763768 -0.114779
C35   C     C_R   0.046041 0.946935 0.787301 -0.031388
C36   C     C_R   0.906350 0.868055 0.832694 -0.108634
H12   H     H_    0.973480 0.587922 0.846361 0.171989
H13   H     H_    0.220122 0.728645 0.767127 0.165931
H14   H     H_    0.266913 0.957780 0.728326 0.146946
H15   H     H_    0.066555 0.046871 0.770057 0.206498
H16   H     H_    0.819411 0.907813 0.850035 0.161170
F6    F     F_    0.373913 0.439147 0.175927 -0.650877
F7    F     F_    0.129428 0.333500 0.766273 -0.614864
F8    F     F_    0.068908 0.231167 0.951052 -0.623481

loop_
_geom_bond_atom_site_label_1
_geom_bond_atom_site_label_2
_ccdc_geom_bond_type
C26   H7    S    
H2    N1    S    
C2    C4    A    
C18   O5    A    
C29   H10   S    
C16   N1    D    
C25   C30   A    
C14   C18   S    
C9    C20   A    
C8    F6    S    
C29   C30   A    
C1    C11   S    
C19   O8    A    
C4    C8    A    
Cu1   N2    S    
C23   C24   A    
Cu2   O6    S    
C34   C35   A    
C14   C15   D    
C8    C21   A    
C15   H6    S    
C3    C10   A    
C36   H16   S    
Cu1   O5    S    
C12   O4    A    
C4    C5    A    
C11   C13   D    
C17   F3    S    
C9    C21   A    
C31   C36   A    
C6    C7    A    
C30   H11   S    
C10   C12   S    
C34   H14   S    
Cu1   O1    S    
C5    C6    A    
C6    C31   S    
Cu2   O2    S    
C14   F1    S    
C32   H12   S    
C2    C3    A    
C3    C7    A    
C16   F4    S    
C13   C15   S    
C25   C26   A    
C2    C24   A    
C33   C34   A    
C24   H4    S    
C9    C25   S    
C7    H5    S    
C17   N2    D    
C33   H13   S    
C35   C36   A    
C16   C17   S    
C22   F7    S    
C31   C32   A    
C11   F2    S    
C26   C27   A    
Cu2   O8    S    
C20   H3    S    
N2    F5    S    
C28   C29   A    
C23   F8    S    
Cu1   O7    S    
C12   O3    A    
C5    C20   A    
C1    O1    A    
C18   O6    A    
C35   H15   S    
Cu2   O4    S    
C27   H8    S    
Cu2   N1    S    
C19   C21   S    
Cu1   Cu2   S    
C27   C28   A    
C28   H9    S    
C10   C22   A    
C22   C23   A    
C13   H1    S    
C19   O7    A    
C1    O2    A    
Cu1   O3    S    
C32   C33   A    
