data_mof_unit_10667.cif
_audit_creation_date              2012-12-10T17:09:34-0500
_audit_creation_method            fapswitch 2.2
_symmetry_space_group_name_H-M    P1
_symmetry_Int_Tables_number       1
_space_group_crystal_system       triclinic
_cell_length_a                    10.538938
_cell_length_b                    10.759806
_cell_length_c                    10.109767
_cell_angle_alpha                 89.998531
_cell_angle_beta                  87.988688
_cell_angle_gamma                 90.134352
_cell_volume                      1145.70707996

loop_
_atom_site_label
_atom_site_type_symbol
_atom_type_description
_atom_site_fract_x
_atom_site_fract_y
_atom_site_fract_z
_atom_type_partial_charge
C1    C     C_R   0.503359 0.263046 0.499327 0.969435
C2    C     C_2   0.541249 0.590070 0.067501 0.474711
C3    C     C_R   0.257996 0.501239 0.502416 0.929327
C4    C     C_R   0.508196 0.736819 0.500478 0.834069
C5    C     C_R   0.742392 0.497770 0.497490 0.981277
C6    C     C_3   0.031403 0.500542 0.626833 0.400056
C7    C     C_3   0.956168 0.397437 0.561077 0.333592
C8    C     C_3   0.877620 0.495917 0.492348 -0.266467
C9    C     C_3   0.952073 0.600675 0.558919 -0.301675
C10   C     C_3   0.046919 0.601097 0.438060 -0.256617
C11   C     C_2   0.628566 0.903742 0.615059 0.436004
C12   C     C_3   0.971401 0.496329 0.373320 0.450406
C13   C     C_2   0.632910 0.113339 0.282448 0.567590
C14   C     C_3   0.050395 0.396530 0.441038 -0.328895
C15   C     C_3   0.123602 0.501156 0.507160 -0.228727
C16   C     C_2   0.525838 0.933897 0.396750 -0.201318
C17   C     C_2   0.550417 0.863552 0.501818 -0.166613
C18   C     C_2   0.552288 0.064916 0.394699 -0.004306
C19   C     C_2   0.501970 0.130951 0.496451 -0.247888
C20   C     C_2   0.506167 0.597528 0.925927 -0.134629
H1    H     H_    0.450213 0.085264 0.577928 0.140012
H2    H     H_    0.799824 0.804532 0.005960 0.396203
H3    H     H_    0.906077 0.416021 0.894058 0.412179
H4    H     H_    0.147485 0.458831 0.144277 0.359212
H5    H     H_    0.619224 0.856087 0.709519 0.094696
H6    H     H_    0.636449 0.063410 0.189197 0.094787
H7    H     H_    0.502661 0.688209 0.879288 0.191929
H8    H     H_    0.517567 0.417096 0.896896 0.187678
H9    H     H_    0.439889 0.438261 0.107819 0.131982
H10   H     H_    0.909392 0.684163 0.607171 0.216387
H11   H     H_    0.087232 0.684895 0.387970 0.200812
H12   H     H_    0.093372 0.312694 0.393775 0.213808
H13   H     H_    0.470672 0.897952 0.316753 0.210101
H14   H     H_    0.978484 0.110060 0.751370 0.398106
N1    N     N_2   0.501360 0.501330 0.852150 -0.186583
N2    N     N_2   0.501400 0.501360 0.147810 -0.235631
O1    O     O_R   0.499980 0.319060 0.613040 -0.587431
O2    O     O_2   0.867059 0.169803 0.519994 -0.214942
O3    O     O_3   0.015002 0.189798 0.718964 -0.511438
O4    O     O_2   0.569144 0.831150 0.111292 -0.399765
O5    O     O_2   0.705487 0.696000 0.240757 -0.229097
O6    O     O_3   0.757658 0.723674 0.990668 -0.480056
O7    O     O_2   0.148053 0.401078 0.835062 -0.239986
O8    O     O_2   0.134338 0.628201 0.824883 -0.253980
O9    O     O_3   0.928174 0.505198 0.885756 -0.415210
O10   O     O_2   0.826870 0.429370 0.168952 -0.191836
O11   O     O_2   0.952977 0.620832 0.145188 -0.201387
O12   O     O_R   0.500020 0.319100 0.386900 -0.613945
O13   O     O_3   0.070155 0.409261 0.128399 -0.485296
O14   O     O_2   0.708002 0.985771 0.602841 -0.469219
O15   O     O_2   0.701860 0.203572 0.294899 -0.487303
O16   O     O_R   0.313930 0.499950 0.613050 -0.559075
O17   O     O_R   0.313970 0.499990 0.386910 -0.645609
O18   O     O_R   0.499980 0.680900 0.613100 -0.652779
O19   O     O_R   0.500020 0.680940 0.386960 -0.560655
O20   O     O_R   0.686030 0.500010 0.613090 -0.588524
O21   O     O_R   0.686070 0.500050 0.386950 -0.525683
O22   O     O_2   0.784580 0.276746 0.719601 -0.284861
S1    S     S_3+6 0.900018 0.254918 0.631333 0.071165
S2    S     S_3+6 0.643720 0.712572 0.110858 0.074346
S3    S     S_3+6 0.066110 0.508696 0.797473 0.124946
S4    S     S_3+6 0.950385 0.490971 0.199613 0.133785
Zn1   Zn    Zn3+2 0.499970 0.499970 0.650990 1.061964
Zn2   Zn    Zn3+2 0.500030 0.500030 0.349010 1.066864

loop_
_geom_bond_atom_site_label_1
_geom_bond_atom_site_label_2
_ccdc_geom_bond_type
C8    C9    S    
C5    C8    S    
C3    O16   A    
C1    O12   A    
C6    C7    S    
H3    O9    S    
C20   H7    S    
C1    O1    A    
O8    S3    D    
C12   S4    S    
C9    C10   S    
C5    O20   A    
C5    O21   A    
C8    C12   S    
O3    S1    S    
O19   Zn2   S    
O11   S4    D    
O22   S1    D    
O20   Zn1   S    
C7    C8    S    
C11   O14   D    
C13   O15   D    
C3    O17   A    
H9    N2    S    
H2    O6    S    
C10   C12   S    
C13   C18   S    
O10   S4    D    
O4    S2    D    
C4    C17   S    
C9    H10   S    
C6    S3    S    
C7    S1    S    
O1    Zn1   S    
C12   C14   S    
C10   C15   S    
C4    O19   A    
C16   H13   S    
O17   Zn2   S    
C2    S2    S    
C13   H6    S    
C1    C19   S    
O12   Zn2   S    
O18   Zn1   S    
C11   H5    S    
C2    N2    D    
O2    S1    D    
O6    S2    S    
C6    C9    S    
C3    C15   S    
O7    S3    D    
O21   Zn2   S    
C16   C18   S    
C18   C19   D    
O9    S3    S    
H4    O13   S    
C14   C15   S    
C11   C17   S    
N1    Zn1   S    
O13   S4    S    
O5    S2    D    
C4    O18   A    
C6    C15   S    
N2    Zn2   S    
C20   N1    D    
C2    C20   S    
C10   H11   S    
C7    C14   S    
H14   O3    S    
H8    N1    S    
C14   H12   S    
C16   C17   D    
C19   H1    S    
O16   Zn1   S    
