data_mof_unit_34599.cif
_audit_creation_date              2012-12-10T20:34:55-0500
_audit_creation_method            fapswitch 2.2
_symmetry_space_group_name_H-M    P1
_symmetry_Int_Tables_number       1
_space_group_crystal_system       triclinic
_cell_length_a                    10.646948
_cell_length_b                    10.652169
_cell_length_c                    9.852289
_cell_angle_alpha                 90.051155
_cell_angle_beta                  90.224854
_cell_angle_gamma                 90.133257
_cell_volume                      1117.36645239

loop_
_atom_site_label
_atom_site_type_symbol
_atom_type_description
_atom_site_fract_x
_atom_site_fract_y
_atom_site_fract_z
_atom_type_partial_charge
C1    C     C_R   0.495890 0.259829 0.499912 0.874623
C2    C     C_R   0.461277 0.936026 0.622042 0.141966
C3    C     C_3   0.538107 0.928474 0.749256 -0.500083
C4    C     C_R   0.257556 0.500184 0.499855 0.852697
C5    C     C_3   0.541340 0.070768 0.748004 -0.481898
C6    C     C_R   0.450814 0.400705 0.071002 0.212381
C7    C     C_R   0.559389 0.591958 0.072387 -0.117475
C8    C     C_R   0.559581 0.591837 0.928306 -0.135207
C9    C     C_R   0.450325 0.401016 0.928354 0.216432
C10   C     C_3   0.317641 0.356397 0.922582 -0.514398
C11   C     C_3   0.318648 0.354944 0.076612 -0.513552
C12   C     C_3   0.878466 0.501687 0.501047 0.087062
C13   C     C_R   0.494098 0.739963 0.500004 0.883140
C14   C     C_R   0.742252 0.499534 0.500407 0.868135
C15   C     C_3   0.071918 0.483218 0.646639 -0.424482
C16   C     C_3   0.929291 0.482077 0.647563 -0.353409
C17   C     C_3   0.071089 0.630996 0.445547 -0.219154
C18   C     C_3   0.070769 0.390942 0.412293 -0.391232
C19   C     C_3   0.120902 0.501782 0.499242 0.033760
C20   C     C_2   0.122210 0.669132 0.307828 0.864706
C21   C     C_3   0.807989 0.817687 0.456257 0.059807
C22   C     C_3   0.890990 0.915479 0.386081 -0.347110
C23   C     C_3   0.925380 0.630042 0.444451 0.288852
C24   C     C_3   0.812343 0.023165 0.329284 -0.954664
C25   C     C_3   0.927017 0.393176 0.410122 -0.485108
C26   C     C_R   0.463161 0.064063 0.621784 0.131025
C27   C     C_R   0.473727 0.128525 0.499489 -0.118802
C28   C     C_R   0.457293 0.064512 0.376210 -0.241349
C29   C     C_R   0.456185 0.934899 0.376345 -0.165082
C30   C     C_R   0.471182 0.871056 0.499789 -0.117340
H1    H     H_    0.106041 0.560205 0.714062 0.190454
H2    H     H_    0.605349 0.667378 0.127060 0.139356
H3    H     H_    0.106833 0.392835 0.689055 0.183748
H4    H     H_    0.605953 0.666960 0.874211 0.149764
H5    H     H_    0.253062 0.428026 0.879753 0.217239
H6    H     H_    0.309114 0.261375 0.876808 0.196832
H7    H     H_    0.254144 0.424919 0.121933 0.244151
H8    H     H_    0.311874 0.258940 0.120103 0.195088
H9    H     H_    0.895581 0.390659 0.688686 0.168349
H10   H     H_    0.895271 0.557336 0.716729 0.217695
H11   H     H_    0.103621 0.703833 0.519308 0.154606
H12   H     H_    0.894091 0.405302 0.303545 0.209930
H13   H     H_    0.106747 0.394940 0.306863 0.219809
H14   H     H_    0.103553 0.300245 0.455855 0.169035
H15   H     H_    0.890036 0.301486 0.446913 0.179153
H16   H     H_    0.126728 0.639013 0.105702 0.339483
H17   H     H_    0.748540 0.866928 0.531389 0.168865
H18   H     H_    0.742367 0.772732 0.382468 0.129316
H19   H     H_    0.960225 0.953850 0.460074 0.239233
H20   H     H_    0.942976 0.870682 0.301523 0.226527
H21   H     H_    0.742635 0.987010 0.254601 0.266495
H22   H     H_    0.874570 0.091803 0.277680 0.267004
H23   H     H_    0.890925 0.637111 0.337320 0.096160
H24   H     H_    0.762129 0.072191 0.412520 0.260757
H25   H     H_    0.455341 0.113183 0.279732 0.170649
H26   H     H_    0.453803 0.885957 0.279921 0.185895
H27   H     H_    0.483471 0.889369 0.835430 0.208147
H28   H     H_    0.631745 0.885061 0.733902 0.202110
H29   H     H_    0.489805 0.113455 0.834284 0.202356
H30   H     H_    0.636672 0.110030 0.729606 0.202793
N1    N     N_R   0.499150 0.499140 0.142800 -0.102868
N2    N     N_R   0.499150 0.499180 0.857150 -0.107442
O1    O     O_R   0.500020 0.316790 0.614690 -0.618158
O2    O     O_R   0.086279 0.603963 0.190646 -0.842486
O3    O     O_3   0.881384 0.729371 0.528584 -0.664492
O4    O     O_R   0.500000 0.316760 0.385350 -0.623094
O5    O     O_R   0.314800 0.500000 0.614670 -0.628937
O6    O     O_R   0.314790 0.499960 0.385330 -0.605947
O7    O     O_R   0.500000 0.683240 0.614650 -0.616926
O8    O     O_R   0.499980 0.683210 0.385310 -0.619925
O9    O     O_R   0.685210 0.500040 0.614670 -0.617320
O10   O     O_R   0.685200 0.500000 0.385330 -0.642248
O11   O     O_2   0.193954 0.758603 0.299449 -0.641812
Zn1   Zn    Zn3+2 0.500010 0.500020 0.653130 0.942494
Zn2   Zn    Zn3+2 0.499990 0.499980 0.346870 0.953921

loop_
_geom_bond_atom_site_label_1
_geom_bond_atom_site_label_2
_ccdc_geom_bond_type
C24   H22   S    
C14   O9    A    
C6    C9    A    
C7    C8    A    
N1    Zn2   S    
O6    Zn2   S    
C15   C19   S    
C12   C23   S    
C26   C27   A    
C17   C23   S    
C6    N1    A    
C28   C29   A    
C13   O8    A    
C24   H24   S    
C15   C16   S    
C17   C20   S    
C18   C19   S    
C11   H7    S    
C7    N1    A    
C4    C19   S    
C12   C16   S    
C10   H5    S    
C9    C10   S    
C22   H20   S    
C21   H18   S    
C24   H21   S    
C21   C22   S    
C18   C25   S    
O10   Zn2   S    
C1    O1    A    
C28   H25   S    
C23   H23   S    
C5    H29   S    
C9    N2    A    
C13   C30   S    
C6    C11   S    
C4    O6    A    
H16   O2    S    
C20   O2    S    
C11   H8    S    
C29   C30   A    
C18   H14   S    
C4    O5    A    
C1    O4    A    
O7    Zn1   S    
C2    C26   A    
O5    Zn1   S    
C8    H4    S    
C16   H10   S    
C22   H19   S    
C3    H27   S    
O1    Zn1   S    
C12   C14   S    
C22   C24   S    
C25   H15   S    
C27   C28   A    
C7    H2    S    
C5    H30   S    
C21   O3    S    
C14   O10   A    
C3    C5    S    
C25   H12   S    
O9    Zn1   S    
C15   H1    S    
C29   H26   S    
C12   C25   S    
C2    C30   A    
C23   O3    S    
C2    C3    S    
C18   H13   S    
C13   O7    A    
O4    Zn2   S    
C17   C19   S    
C20   O11   D    
C17   H11   S    
C10   C11   S    
C16   H9    S    
C5    C26   S    
C3    H28   S    
O8    Zn2   S    
C1    C27   S    
N2    Zn1   S    
C10   H6    S    
C15   H3    S    
C8    N2    A    
C21   H17   S    
