data_mof_unit_66794.cif
_audit_creation_date              2013-03-05T15:41:07-0500
_audit_creation_method            fapswitch 2.2
_symmetry_space_group_name_H-M    P1
_symmetry_Int_Tables_number       1
_space_group_crystal_system       triclinic
_cell_length_a                    8.49596
_cell_length_b                    14.946428
_cell_length_c                    15.513184
_cell_angle_alpha                 94.861157
_cell_angle_beta                  99.564272
_cell_angle_gamma                 92.006557
_cell_volume                      1933.14271533

loop_
_atom_site_label
_atom_site_type_symbol
_atom_site_description
_atom_site_fract_x
_atom_site_fract_y
_atom_site_fract_z
_atom_type_partial_charge
P1    P     P_3+3 0.947560 0.714050 0.560480 0.498248
O1    O     O_2   0.113690 0.728200 0.532750 -0.379051
O2    O     O_3   0.871900 0.612110 0.540440 -0.343126
O3    O     O_3   0.325660 0.668890 0.372600 -0.399447
O4    O     O_2   0.210669 0.821290 0.422266 -0.395635
O5    O     O_3   0.946382 0.725816 0.675105 -0.585322
O6    O     O_3   0.305824 0.819093 0.277455 -0.563138
H1    H     H_    0.222035 0.723877 0.176506 0.143499
C1    C     C_3   0.435993 0.796648 0.153812 -0.304384
H2    H     H_    0.551525 0.819371 0.194646 0.141162
P2    P     P_3+3 0.325150 0.423860 0.297970 0.497019
P3    P     P_3+3 0.859955 0.607271 0.213041 0.443678
O7    O     O_2   0.147570 0.451710 0.282630 -0.350434
O8    O     O_3   0.905540 0.621350 0.329600 -0.418984
O9    O     O_2   0.987531 0.547819 0.180880 -0.380910
O10   O     O_3   0.295238 0.308468 0.274567 -0.545143
O11   O     O_3   0.894458 0.711001 0.172492 -0.527130
C2    C     C_3   0.896112 0.779310 0.240917 0.256071
H3    H     H_    0.990029 0.767640 0.297005 0.174575
H4    H     H_    0.779310 0.779363 0.264034 0.011164
C3    C     C_3   0.938370 0.872691 0.213044 -0.064127
H5    H     H_    0.063000 0.871402 0.201209 0.228937
C4    C     C_3   0.921119 0.254201 0.281632 0.162522
H6    H     H_    0.009830 0.311216 0.293972 0.181340
H7    H     H_    0.977604 0.191903 0.301931 0.070205
C5    C     C_3   0.850291 0.241259 0.184173 -0.393042
H8    H     H_    0.753827 0.187803 0.175589 0.199396
H9    H     H_    0.796892 0.304414 0.162936 0.196149
Ba1   Ba    Ba6+2 0.142880 0.544780 0.454020 1.565305
C6    C     C_3   0.081904 0.735928 0.741473 0.217156
H10   H     H_    0.193529 0.747358 0.715058 0.065597
C7    C     C_3   0.046677 0.814741 0.810312 -0.323534
H11   H     H_    0.974247 0.863448 0.772925 0.148184
C8    C     C_3   0.432831 0.275253 0.247336 0.458185
H12   H     H_    0.520184 0.267018 0.306536 0.193676
H13   H     H_    0.486124 0.318215 0.203416 0.013129
C9    C     C_3   0.390919 0.184110 0.197649 -1.083656
H14   H     H_    0.324151 0.141867 0.236205 0.281950
H15   H     H_    0.501324 0.150903 0.187132 0.240546
H16   H     H_    0.317111 0.191277 0.132748 0.260019
P4    P     P_3+3 0.862730 0.285940 0.439440 0.471689
O12   O     O_2   0.696600 0.271740 0.467230 -0.317383
O13   O     O_3   0.938380 0.387880 0.459490 -0.345910
O14   O     O_3   0.484630 0.331100 0.627330 -0.303638
O15   O     O_3   0.795369 0.272767 0.326630 -0.617382
P5    P     P_3+3 0.952408 0.378773 0.784916 0.498369
O16   O     O_3   0.389110 0.548970 0.605210 -0.397386
O17   O     O_3   0.904740 0.378630 0.670330 -0.357047
O18   O     O_2   0.834218 0.441275 0.822916 -0.310432
O19   O     O_3   0.900404 0.271509 0.812128 -0.528381
Ba2   Ba    Ba6+2 0.667290 0.455210 0.545900 1.658777
P6    P     P_3+3 0.353034 0.785417 0.382416 0.389949
C10   C     C_3   0.337857 0.753031 0.214111 0.332358
H17   H     H_    0.408043 0.697284 0.240642 0.037254
O20   O     O_3   0.421180 0.451020 0.394720 -0.360750
C11   C     C_3   0.534833 0.729729 0.659584 0.380588
H18   H     H_    0.608621 0.686732 0.621650 0.113116
H19   H     H_    0.416664 0.733463 0.617875 0.064352
C12   C     C_3   0.621467 0.823678 0.676914 -0.707974
H20   H     H_    0.749525 0.817844 0.689385 0.212944
H21   H     H_    0.598444 0.860631 0.617967 0.109358
P7    P     P_3+3 0.484830 0.576633 0.717769 0.497648
O21   O     O_2   0.662730 0.548230 0.717350 -0.258807
O22   O     O_3   0.511637 0.693818 0.738004 -0.562879
C13   C     C_3   0.925199 0.207508 0.744354 0.498654
H22   H     H_    0.830810 0.210350 0.685987 0.160371
H23   H     H_    0.043463 0.218997 0.724663 -0.005714
C14   C     C_3   0.918796 0.113796 0.775836 -0.960491
H24   H     H_    0.809410 0.103020 0.804341 0.298441
H25   H     H_    0.916934 0.061876 0.720201 0.226915
H26   H     H_    0.024656 0.105105 0.826438 0.237022
P8    P     P_3+3 0.452239 0.213071 0.618546 0.475788
C15   C     C_3   0.467286 0.193968 0.785117 0.468857
H27   H     H_    0.339676 0.205995 0.762668 -0.070423
O23   O     O_2   0.551846 0.174952 0.550811 -0.377423
O24   O     O_3   0.548016 0.171322 0.714740 -0.546454
H28   H     H_    0.391997 0.120009 0.889599 0.240397
C16   C     C_3   0.472207 0.113964 0.840584 -1.056806
H29   H     H_    0.594981 0.105440 0.875150 0.271548
H30   H     H_    0.430075 0.052835 0.797016 0.288567
C17   C     C_R   0.004161 0.959575 0.567638 0.092006
C18   C     C_R   0.824120 0.810156 0.511490 0.216065
C19   C     C_R   0.670437 0.778596 0.469589 -0.497297
C20   C     C_R   0.553887 0.835205 0.435278 0.257568
C21   C     C_R   0.593127 0.926914 0.434873 -0.301915
C22   C     C_R   0.744875 0.965291 0.474664 0.061050
C23   C     C_R   0.861926 0.909646 0.519548 -0.067117
H31   H     H_    0.636933 0.708073 0.468043 0.137247
C24   C     C_R   0.925441 0.103938 0.506636 -0.016145
C25   C     C_R   0.029725 0.055119 0.563914 0.088768
C26   C     C_R   0.982530 0.192773 0.488787 0.096445
C27   C     C_R   0.147880 0.212938 0.510946 -0.414746
C28   C     C_R   0.239332 0.173234 0.578287 0.166474
C29   C     C_R   0.169872 0.102516 0.612302 -0.355022
C30   C     C_R   0.779533 0.058809 0.466202 -0.153509
H32   H     H_    0.503782 0.968863 0.402996 0.146306
H33   H     H_    0.239407 0.078695 0.669148 0.172287
H34   H     H_    0.694456 0.094957 0.424001 0.170889
C31   C     C_R   0.246673 0.465335 0.771084 -0.569721
C32   C     C_R   0.164053 0.422327 0.828844 0.126362
C33   C     C_R   0.236421 0.419116 0.918382 0.088571
C34   C     C_R   0.376355 0.475852 0.954172 0.038460
C35   C     C_R   0.452598 0.521475 0.892275 -0.102412
C36   C     C_R   0.390537 0.515317 0.800927 0.253717
C37   C     C_R   0.601272 0.524457 0.084281 -0.309055
C38   C     C_R   0.654866 0.553099 0.173315 0.255041
C39   C     C_R   0.410956 0.486731 0.211233 0.206334
C40   C     C_R   0.344364 0.479488 0.120845 -0.302056
C41   C     C_R   0.441144 0.491108 0.053976 0.158270
C42   C     C_R   0.555687 0.536061 0.235132 -0.186027
H35   H     H_    0.684212 0.531950 0.039394 0.147814
H36   H     H_    0.216540 0.467793 0.104747 0.168542
H37   H     H_    0.559979 0.563091 0.913495 0.117689
C43   C     C_3   0.972997 0.213048 0.126882 -0.340621
C44   C     C_3   0.890695 0.180970 0.033338 -0.828422
H38   H     H_    0.768850 0.150561 0.031393 0.276162
H39   H     H_    0.881298 0.237912 0.992353 0.306353
H40   H     H_    0.960454 0.128879 0.003985 0.241524
H41   H     H_    0.058568 0.270554 0.125532 0.227418
H42   H     H_    0.041556 0.157684 0.155221 0.213206
C45   C     C_2   0.087699 0.650490 0.786898 0.930756
O25   O     O_2   0.981088 0.592160 0.764634 -0.528492
O26   O     O_R   0.194070 0.645820 0.864651 -0.828380
H43   H     H_    0.156649 0.599547 0.901804 0.346002
C46   C     C_3   0.190618 0.874695 0.860676 -0.411641
C47   C     C_3   0.337262 0.824140 0.893283 -0.618901
H44   H     H_    0.310033 0.785362 0.945882 0.297220
H45   H     H_    0.371805 0.777507 0.841759 0.290437
H46   H     H_    0.440333 0.872146 0.918167 0.212945
H47   H     H_    0.222684 0.927723 0.821005 0.233098
H48   H     H_    0.154903 0.913582 0.918153 0.201555
C48   C     C_2   0.945223 0.780886 0.874834 1.128661
O27   O     O_2   0.807628 0.752533 0.848391 -0.601217
O28   O     O_R   0.014722 0.771865 0.961673 -0.810858
H49   H     H_    0.946074 0.732395 0.992147 0.338699
C49   C     C_3   0.358541 0.877871 0.112086 -0.271740
C50   C     C_3   0.385598 0.965552 0.170654 -0.933716
H50   H     H_    0.515071 0.984231 0.189641 0.252734
H51   H     H_    0.326673 0.017712 0.131991 0.256754
H52   H     H_    0.332754 0.963282 0.230420 0.303782
H53   H     H_    0.228960 0.863164 0.088018 0.229379
H54   H     H_    0.416614 0.892192 0.056018 0.190820
C51   C     C_2   0.465437 0.728265 0.082491 0.923392
O29   O     O_2   0.359482 0.672969 0.048004 -0.632674
O30   O     O_R   0.609495 0.733077 0.051047 -0.807056
H55   H     H_    0.610373 0.691120 0.996641 0.335977
C52   C     C_2   0.580898 0.881151 0.751989 1.223052
O31   O     O_2   0.442585 0.897180 0.752778 -0.727110
O32   O     O_R   0.701033 0.919491 0.818795 -0.823154
H56   H     H_    0.657430 0.953941 0.867920 0.303739
C53   C     C_3   0.836152 0.891807 0.125373 -0.223853
C54   C     C_3   0.890614 0.977335 0.090648 -0.980758
H57   H     H_    0.861413 0.035576 0.132947 0.284125
H58   H     H_    0.020734 0.978811 0.088934 0.275174
H59   H     H_    0.825111 0.981298 0.023026 0.267887
H60   H     H_    0.844269 0.836492 0.074987 0.272617
H61   H     H_    0.709919 0.897641 0.131987 0.200208
C55   C     C_2   0.545498 0.278058 0.837381 1.040868
O33   O     O_2   0.547616 0.347469 0.801774 -0.617268
O34   O     O_R   0.613926 0.278150 0.925675 -0.835186
H62   H     H_    0.658887 0.339858 0.952677 0.322254
C56   C     C_2   0.234206 0.261845 0.454685 1.092875
O35   O     O_2   0.231763 0.343140 0.457280 -0.479492
O36   O     O_R   0.334128 0.215601 0.405677 -0.773964
H63   H     H_    0.325486 0.148026 0.407724 0.269053
C57   C     C_3   0.142112 0.917273 0.619359 -0.307272
C58   C     C_3   0.294395 0.926753 0.578485 -0.648755
H64   H     H_    0.272576 0.957263 0.515016 0.242360
H65   H     H_    0.388276 0.971154 0.620928 0.229945
H66   H     H_    0.342125 0.860336 0.568199 0.241442
H67   H     H_    0.161442 0.949124 0.686859 0.164056
H68   H     H_    0.117612 0.850063 0.630631 0.211161
C59   C     C_3   0.173352 0.345736 0.968033 -0.336114
C60   C     C_3   0.221315 0.254518 0.934919 -0.943906
H69   H     H_    0.157667 0.200331 0.960978 0.264729
H70   H     H_    0.197704 0.244993 0.862982 0.259280
H71   H     H_    0.349735 0.249066 0.959955 0.281418
H72   H     H_    0.223274 0.346556 0.037449 0.185998
H73   H     H_    0.042428 0.348925 0.963554 0.222577
C61   C     C_3   0.616108 0.560948 0.328568 -0.388016
C62   C     C_3   0.728632 0.487617 0.359268 -0.445036
H74   H     H_    0.666117 0.423670 0.365806 0.212172
H75   H     H_    0.810229 0.467643 0.312891 0.205968
H76   H     H_    0.801813 0.513359 0.420951 0.289084
H77   H     H_    0.658937 0.631839 0.336906 0.155623
H78   H     H_    0.527605 0.574192 0.369812 0.227332
C63   C     C_2   0.182302 0.454898 0.676601 1.227322
O37   O     O_2   0.115990 0.516117 0.640572 -0.532575
O38   O     O_R   0.183559 0.372234 0.629371 -0.738992
H79   H     H_    0.213688 0.324061 0.670153 0.227035
C64   C     C_3   0.925824 0.945882 0.288543 -0.276710
C65   C     C_3   0.073800 0.009525 0.311181 -0.934844
H80   H     H_    0.056234 0.062161 0.362472 0.230975
H81   H     H_    0.178988 0.972620 0.338106 0.288332
H82   H     H_    0.096911 0.042057 0.252732 0.259447
H83   H     H_    0.913940 0.914302 0.349336 0.191718
H84   H     H_    0.817940 0.985336 0.272663 0.190805

loop_
_geom_bond_atom_site_label_1
_geom_bond_atom_site_label_2
_geom_bond_distance
_ccdc_geom_bond_type
C6    C7    1.592263 S    
C57   H68   1.053683 S    
C33   C34   1.439112 A    
C4    O15   1.393357 S    
C19   H31   1.079387 S    
C8    C9    1.507836 S    
C15   H27   1.108059 S    
C33   C59   1.523965 S    
C52   O31   1.209300 D    
C7    C48   1.530643 S    
P8    O24   1.751657 S    
O16   P7    1.806532 S    
C31   C63   1.469930 S    
O30   H55   1.009159 S    
C1    C51   1.499860 S    
C30   H34   1.083056 S    
O26   H43   1.012257 S    
C58   H65   1.106569 S    
H28   C16   1.102544 S    
C11   H18   1.113117 S    
C50   H51   1.106769 S    
P5    O18   1.548401 D    
C5    H8    1.107980 S    
P7    O21   1.585064 D    
C46   C47   1.516683 S    
C50   H50   1.109763 S    
O3    P6    1.739426 S    
O1    Ba1   2.941033 S    
C53   H61   1.099968 S    
O7    Ba1   2.901403 S    
O36   H63   1.013671 S    
C35   H37   1.073932 S    
O6    P6    1.732483 S    
C2    H3    1.108572 S    
C9    H16   1.109760 S    
C21   C22   1.412778 A    
C6    H10   1.107318 S    
C21   H32   1.083968 S    
C16   H30   1.100806 S    
C3    C64   1.553174 S    
C59   H73   1.105872 S    
C18   C23   1.500574 A    
C2    C3    1.543587 S    
C62   H74   1.097570 S    
C40   C41   1.444420 A    
C2    H4    1.109785 S    
O2    Ba1   3.011579 S    
C8    H12   1.099287 S    
P4    O12   1.555566 D    
C4    C5    1.524892 S    
C38   C42   1.410467 A    
P6    C20   1.865695 S    
C60   H69   1.099651 S    
C32   C33   1.428035 A    
C49   H54   1.101159 S    
C35   C36   1.421557 A    
O10   C8    1.400225 S    
C64   H83   1.107321 S    
C46   H47   1.097454 S    
O17   Ba2   2.889301 S    
C19   C20   1.392683 A    
C11   H19   1.106289 S    
C48   O27   1.221031 D    
C44   H39   1.102083 S    
P3    O11   1.755024 S    
P7    O22   1.753078 S    
C17   C57   1.497512 S    
C54   H59   1.110195 S    
O4    P6    1.539585 D    
C24   C26   1.461762 A    
C1    H2    1.101655 S    
Ba2   O20   2.865775 S    
O3    Ba1   2.880115 S    
O12   Ba2   2.941569 S    
C44   H40   1.107567 S    
C4    H7    1.107812 S    
C31   C36   1.398483 A    
C37   H35   1.079218 S    
C53   C54   1.515439 S    
C12   H20   1.080870 S    
C3    H5    1.104841 S    
Ba1   O13   2.884910 S    
C55   O34   1.396116 S    
P4    O13   1.617398 S    
O38   H79   1.010200 S    
P8    O23   1.540358 D    
O19   C13   1.407880 S    
C25   C29   1.427176 A    
C58   H66   1.094620 S    
P7    C36   1.907422 S    
C62   H75   1.109577 S    
C50   H52   1.097698 S    
P5    O17   1.756112 S    
C12   H21   1.101480 S    
C63   O38   1.383324 S    
C64   C65   1.523693 S    
C65   H82   1.106503 S    
Ba2   O21   2.901715 S    
C20   C21   1.400074 A    
C61   H77   1.098154 S    
C43   C44   1.531695 S    
C26   C27   1.405271 A    
O2    Ba2   2.885421 S    
C16   H29   1.107617 S    
C14   H24   1.106037 S    
O16   Ba2   3.021940 S    
Ba1   O20   3.022746 S    
C29   H33   1.071571 S    
C13   H23   1.109573 S    
P1    C18   1.940740 S    
C59   C60   1.509471 S    
C15   C16   1.529042 S    
C15   C55   1.506100 S    
C40   H36   1.077714 S    
P1    O2    1.617421 S    
C65   H81   1.107659 S    
C7    C46   1.547915 S    
C24   C30   1.412954 A    
C5    C43   1.526331 S    
C9    H14   1.108985 S    
P2    O10   1.733062 S    
C46   H48   1.113264 S    
C31   C32   1.408484 A    
C6    C45   1.508339 S    
C42   C61   1.466589 S    
C4    H6    1.100139 S    
C13   C14   1.524054 S    
C47   H44   1.090316 S    
P1    Ba1   3.518331 S    
O11   C2    1.407020 S    
C28   C29   1.377769 A    
C53   H60   1.100737 S    
C60   H71   1.103925 S    
C45   O25   1.220443 D    
C17   C23   1.454872 A    
C61   H78   1.078313 S    
C17   C25   1.444389 A    
O14   Ba2   2.879603 S    
C48   O28   1.397732 S    
P4    C26   1.892637 S    
Ba1   O16   2.866486 S    
C13   H22   1.110105 S    
P3    O9    1.544450 D    
P2    C39   1.928028 S    
C55   O33   1.216905 D    
C39   C42   1.389877 A    
C1    C10   1.523052 S    
O6    C10   1.399246 S    
C39   C40   1.415750 A    
C58   H64   1.110455 S    
P2    O20   1.596795 S    
C61   C62   1.533826 S    
C56   O35   1.213348 D    
Ba1   Ba2   4.691346 S    
C62   H76   1.083235 S    
C27   C56   1.455095 S    
C51   O30   1.392566 S    
P5    C32   1.886019 S    
C47   H45   1.099389 S    
O5    C6    1.405736 S    
C22   C23   1.446192 A    
C64   H84   1.111745 S    
C54   H58   1.109711 S    
C49   C50   1.517735 S    
H1    C10   1.111127 S    
C10   H17   1.109318 S    
O28   H49   1.013149 S    
C52   O32   1.396800 S    
C37   C38   1.405508 A    
P5    O19   1.752381 S    
C5    H9    1.112849 S    
C47   H46   1.107881 S    
C11   C12   1.543919 S    
C7    H11   1.108774 S    
C51   O29   1.221706 D    
P3    O8    1.777908 S    
C63   O37   1.218676 D    
C9    H15   1.105674 S    
C56   O36   1.393896 S    
O32   H56   1.011832 S    
C65   H80   1.102693 S    
P3    C38   1.879157 S    
P2    O7    1.564473 D    
O13   Ba2   3.012290 S    
C11   O22   1.410617 S    
C57   C58   1.539825 S    
C43   H41   1.110003 S    
C37   C41   1.421455 A    
C59   H72   1.088720 S    
C14   H26   1.110338 S    
P1    O1    1.555060 D    
C27   C28   1.383772 A    
C15   O24   1.406913 S    
C49   H53   1.110091 S    
P8    C28   1.871540 S    
O14   P8    1.766115 S    
C8    H13   1.112587 S    
C3    C53   1.541534 S    
C34   C35   1.446846 A    
O34   H62   1.014265 S    
C60   H70   1.096622 S    
C45   O26   1.390306 S    
C22   C30   1.439715 A    
C1    C49   1.540569 S    
C57   H67   1.096809 S    
C54   H57   1.105580 S    
P2    Ba1   3.496442 S    
C14   H25   1.108349 S    
C18   C19   1.404536 A    
P1    O5    1.773710 S    
P4    O15   1.740642 S    
C34   C41   1.549288 S    
O8    Ba1   2.888576 S    
C24   C25   1.414389 A    
P4    Ba2   3.518917 S    
C43   H42   1.107968 S    
C44   H38   1.110606 S    
C12   C52   1.482464 S    
