data_mof_unit_67394.cif
_audit_creation_date              2012-12-11T19:52:02-0500
_audit_creation_method            fapswitch 2.2
_symmetry_space_group_name_H-M    P1
_symmetry_Int_Tables_number       1
_space_group_crystal_system       triclinic
_cell_length_a                    17.220168
_cell_length_b                    28.225744
_cell_length_c                    8.517625
_cell_angle_alpha                 90.283304
_cell_angle_beta                  103.845834
_cell_angle_gamma                 89.664246
_cell_volume                      4019.61774437

loop_
_atom_site_label
_atom_site_type_symbol
_atom_type_description
_atom_site_fract_x
_atom_site_fract_y
_atom_site_fract_z
_atom_type_partial_charge
Ba1   Ba    Ba6+2 0.000400 0.534870 0.845190 1.686964
Ba2   Ba    Ba6+2 0.000400 0.465130 0.345190 1.690450
Ba3   Ba    Ba6+2 0.500400 0.034870 0.845190 1.669043
Ba4   Ba    Ba6+2 0.500400 0.965130 0.345190 1.647448
C1    C     C_3   0.002066 0.784304 0.625865 -0.096764
C2    C     C_2   0.748821 0.638446 0.397027 -0.145989
C3    C     C_3   0.391030 0.385421 0.533940 -0.387114
C4    C     C_3   0.893345 0.931225 0.917809 0.268728
C5    C     C_3   0.947163 0.897615 0.036299 -0.485785
C6    C     C_3   0.904073 0.976750 0.520807 0.259113
C7    C     C_3   0.884692 0.923973 0.533776 -0.352713
C8    C     C_3   0.661149 0.564539 0.036218 0.275155
C9    C     C_3   0.738212 0.582812 0.005292 -0.294966
C10   C     C_3   0.627850 0.446192 0.452218 0.234526
C11   C     C_3   0.657051 0.398312 0.406935 -0.380639
C12   C     C_3   0.204020 0.062692 0.042802 0.184082
C13   C     C_2   0.261665 0.856443 0.925821 -0.148945
C14   C     C_3   0.286567 0.066209 0.015380 -0.252001
C15   C     C_3   0.245391 0.940367 0.594478 0.170367
C16   C     C_3   0.329691 0.947328 0.589295 -0.213267
C17   C     C_2   0.252896 0.139868 0.406955 -0.155245
C18   C     C_2   0.814568 0.390902 0.909180 0.063445
C19   C     C_2   0.816797 0.609872 0.410942 0.094324
C20   C     C_2   0.327599 0.885581 0.931504 0.104278
C21   C     C_2   0.321083 0.111795 0.418515 0.134034
C22   C     C_2   0.844197 0.346131 0.681012 -0.038152
C23   C     C_2   0.853679 0.657102 0.196551 -0.018519
C24   C     C_2   0.360550 0.836225 0.709076 -0.037780
C25   C     C_3   0.020310 0.221804 0.037223 -0.065456
C26   C     C_2   0.352699 0.158373 0.192452 -0.021218
C27   C     C_3   0.771780 0.318856 0.675070 -0.030146
C28   C     C_3   0.794159 0.691849 0.217399 -0.040632
C29   C     C_3   0.282270 0.814869 0.692019 -0.044269
C30   C     C_3   0.274325 0.180645 0.172320 -0.067955
C31   C     C_3   0.748501 0.315631 0.829080 0.042608
C32   C     C_3   0.726224 0.671527 0.267304 -0.050606
C33   C     C_3   0.255573 0.812248 0.842376 0.019931
C34   C     C_3   0.243351 0.183013 0.317858 -0.023199
C35   C     C_2   0.756766 0.273856 0.570188 -0.089483
C36   C     C_3   0.505494 0.285520 0.596863 -0.102242
C37   C     C_2   0.765945 0.728076 0.084784 -0.089638
C38   C     C_2   0.260752 0.772103 0.579551 -0.078099
C39   C     C_2   0.250821 0.222443 0.056152 -0.079590
C40   C     C_2   0.251357 0.726519 0.623819 0.118655
C41   C     C_2   0.241728 0.268527 0.098577 0.122195
C42   C     C_2   0.751378 0.228353 0.621679 0.114004
C43   C     C_2   0.752948 0.773913 0.120633 0.129921
C44   C     C_R   0.256105 0.683832 0.360255 -0.027370
C45   C     C_R   0.232290 0.307992 0.823064 -0.047857
C46   C     C_R   0.765154 0.181053 0.372210 -0.035923
C47   C     C_3   0.518526 0.728741 0.995755 -0.062333
C48   C     C_R   0.747497 0.812024 0.845319 -0.040893
C49   C     C_R   0.219371 0.689859 0.498979 -0.028205
C50   C     C_R   0.205070 0.304616 0.974287 -0.038477
C51   C     C_R   0.723675 0.189341 0.503044 -0.018314
C52   C     C_R   0.716623 0.808556 0.992390 -0.020974
C53   C     C_3   0.031945 0.706435 0.121052 0.381473
C54   C     C_3   0.987508 0.274375 0.632816 0.325610
C55   C     C_3   0.549309 0.202630 0.113542 0.366056
C56   C     C_3   0.538000 0.786820 0.603155 0.401295
C57   C     C_R   0.237537 0.641812 0.253999 -0.148183
C58   C     C_R   0.145127 0.614949 0.412015 -0.305181
C59   C     C_R   0.220113 0.352411 0.728314 -0.086513
C60   C     C_R   0.744734 0.139787 0.262642 -0.131532
C61   C     C_R   0.728992 0.854056 0.739349 -0.155162
C62   C     C_R   0.185599 0.608976 0.278174 0.047835
C63   C     C_R   0.178809 0.389157 0.768923 0.124314
C64   C     C_R   0.688725 0.108745 0.280064 0.037953
C65   C     C_R   0.683577 0.889765 0.773289 0.061396
C66   C     C_R   0.159008 0.653917 0.517974 -0.004531
C67   C     C_R   0.153371 0.344161 0.008017 -0.006628
C68   C     C_R   0.660992 0.154270 0.518695 -0.011315
C69   C     C_R   0.140906 0.384032 0.906255 -0.275983
C70   C     C_R   0.660178 0.846348 0.017951 -0.001936
C71   C     C_3   0.077184 0.753238 0.132924 -0.104322
C72   C     C_3   0.035628 0.230412 0.607486 -0.083576
C73   C     C_3   0.604513 0.244307 0.103517 -0.109890
C74   C     C_3   0.587011 0.743289 0.576284 -0.093541
C75   C     C_3   0.690200 0.481058 0.071058 0.686428
C76   C     C_3   0.708696 0.506784 0.601996 0.707731
C77   C     C_3   0.188774 0.980169 0.076716 0.762594
C78   C     C_3   0.190806 0.016775 0.565624 0.777120
C79   C     C_3   0.616997 0.456517 0.959662 0.259907
C80   C     C_R   0.646432 0.115770 0.410589 -0.318168
C81   C     C_3   0.643385 0.545155 0.582056 0.262033
C82   C     C_3   0.099912 0.970880 0.993211 0.272689
C83   C     C_3   0.102829 0.007295 0.475979 0.310423
C84   C     C_3   0.248044 0.475482 0.114860 0.453234
C85   C     C_3   0.260175 0.518171 0.609560 0.428412
C86   C     C_3   0.737993 0.973305 0.109378 0.474663
C87   C     C_3   0.743060 0.025308 0.618079 0.458755
C88   C     C_3   0.331092 0.460514 0.097657 0.255092
C89   C     C_3   0.336461 0.510423 0.552103 0.319183
C90   C     C_3   0.813658 0.946145 0.096859 0.337550
C91   C     C_R   0.645798 0.884872 0.910661 -0.303756
C92   C     C_3   0.819903 0.037704 0.571419 0.316343
C93   C     C_3   0.027558 0.734335 0.583772 0.471239
C94   C     C_3   0.004005 0.274144 0.069353 0.563357
C95   C     C_3   0.531972 0.235317 0.563464 0.476388
C96   C     C_3   0.499883 0.777086 0.060973 0.500220
C97   C     C_2   0.866067 0.380067 0.798166 -0.052191
C98   C     C_2   0.872668 0.621731 0.308920 -0.046007
C99   C     C_2   0.384723 0.869007 0.832591 -0.052981
C100  C     C_2   0.376037 0.125514 0.314897 -0.033873
C101  C     C_3   0.500391 0.498933 0.961771 0.255604
C102  C     C_2   0.753047 0.359528 0.913782 -0.154364
C103  C     C_3   0.469148 0.549801 0.929187 -0.376242
C104  C     C_3   0.548917 0.588472 0.398341 0.236503
C105  C     C_3   0.468735 0.563851 0.367615 -0.364204
C106  C     C_3   0.018297 0.038912 0.953048 0.208855
C107  C     C_3   0.003447 0.084749 0.855220 -0.390435
C108  C     C_3   0.068745 0.925480 0.446678 0.192985
C109  C     C_3   0.097471 0.879529 0.381254 -0.364247
C110  C     C_3   0.370789 0.381246 0.087140 0.213981
C111  C     C_3   0.460986 0.387313 0.121248 -0.410401
C112  C     C_3   0.390961 0.434929 0.602194 0.238671
H1    H     H_    0.591214 0.430434 0.029921 -0.103008
H2    H     H_    0.208138 0.519080 0.502762 -0.009835
H3    H     H_    0.280489 0.590106 0.625117 0.110064
H4    H     H_    0.638988 0.944454 0.166542 0.191415
H5    H     H_    0.724863 0.914485 0.247767 0.151508
H6    H     H_    0.662715 0.063642 0.701157 0.196753
H7    H     H_    0.749318 0.093313 0.713580 0.122958
H8    H     H_    0.356408 0.348707 0.013596 0.094149
H9    H     H_    0.351880 0.374596 0.200155 0.058552
H10   H     H_    0.489547 0.360272 0.210190 0.094738
H11   H     H_    0.480885 0.382770 0.007383 0.126195
H12   H     H_    0.480411 0.422165 0.175837 0.089751
H13   H     H_    0.697913 0.976249 0.986779 -0.015967
H14   H     H_    0.370063 0.432249 0.715215 0.116502
H15   H     H_    0.453365 0.448447 0.629929 0.077563
H16   H     H_    0.434203 0.383393 0.456252 0.094700
H17   H     H_    0.409033 0.360216 0.635461 0.068228
H18   H     H_    0.330527 0.375677 0.462590 0.170229
H19   H     H_    0.931754 0.949339 0.851474 0.089047
H20   H     H_    0.849611 0.909969 0.831237 0.049657
H21   H     H_    0.912011 0.868607 0.072790 0.124743
H22   H     H_    0.992713 0.881732 0.978963 0.099337
H23   H     H_    0.976918 0.917688 0.143929 0.155300
H24   H     H_    0.694597 0.023443 0.505000 -0.015428
H25   H     H_    0.942646 0.989081 0.636854 0.053724
H26   H     H_    0.939257 0.982866 0.430970 0.076149
H27   H     H_    0.877959 0.904034 0.419636 0.075486
H28   H     H_    0.933444 0.906108 0.623018 0.034245
H29   H     H_    0.827589 0.920085 0.568975 0.158330
H30   H     H_    0.933330 0.431822 0.732919 0.208547
H31   H     H_    0.985052 0.381704 0.820990 0.139289
H32   H     H_    0.931045 0.567431 0.228673 0.201360
H33   H     H_    0.989826 0.613974 0.321544 0.153371
H34   H     H_    0.460517 0.922638 0.802786 0.186934
H35   H     H_    0.372184 0.457753 0.219885 0.072893
H36   H     H_    0.500147 0.867424 0.820109 0.128143
H37   H     H_    0.452367 0.074580 0.268220 0.194676
H38   H     H_    0.494217 0.128157 0.333270 0.149813
H39   H     H_    0.333119 0.723811 0.839908 0.185366
H40   H     H_    0.235997 0.724820 0.853680 0.202263
H41   H     H_    0.329595 0.273769 0.305694 0.156609
H42   H     H_    0.235048 0.271267 0.334654 0.205373
H43   H     H_    0.832195 0.229877 0.838855 0.180029
H44   H     H_    0.734557 0.228142 0.850611 0.199314
H45   H     H_    0.837245 0.786617 0.327091 0.151703
H46   H     H_    0.336303 0.536497 0.456313 0.016483
H47   H     H_    0.746984 0.770301 0.356158 0.193029
H48   H     H_    0.095076 0.802061 0.813527 0.199542
H49   H     H_    0.051598 0.848022 0.704690 0.160951
H50   H     H_    0.070450 0.197816 0.265244 0.205981
H51   H     H_    0.019713 0.156798 0.140463 0.170817
H52   H     H_    0.581764 0.307071 0.806392 0.197926
H53   H     H_    0.557145 0.349447 0.668338 0.172375
H54   H     H_    0.565389 0.695643 0.210654 0.202316
H55   H     H_    0.527310 0.659161 0.056024 0.157600
H56   H     H_    0.988023 0.788187 0.210071 0.177409
H57   H     H_    0.796197 0.908768 0.065121 -0.108776
H58   H     H_    0.986669 0.796571 0.013330 0.213397
H59   H     H_    0.950317 0.182480 0.634481 0.173879
H60   H     H_    0.943841 0.198784 0.441342 0.227873
H61   H     H_    0.557742 0.286061 0.255698 0.175093
H62   H     H_    0.519655 0.296478 0.056405 0.209788
H63   H     H_    0.514608 0.696601 0.659093 0.177201
H64   H     H_    0.494547 0.701112 0.455508 0.217676
H65   H     H_    0.635236 0.593259 0.097203 0.055977
H66   H     H_    0.619994 0.559559 0.917522 0.069146
H67   H     H_    0.789067 0.570801 0.101164 0.101067
H68   H     H_    0.813792 0.072275 0.508557 -0.037907
H69   H     H_    0.747703 0.568825 0.891514 0.123186
H70   H     H_    0.733616 0.621644 0.990066 0.051175
H71   H     H_    0.626591 0.471069 0.351648 0.126982
H72   H     H_    0.565441 0.442616 0.464842 0.054742
H73   H     H_    0.625750 0.388338 0.282096 0.082360
H74   H     H_    0.722024 0.400104 0.413826 0.160885
H75   H     H_    0.645874 0.370793 0.490998 0.138723
H76   H     H_    0.188655 0.096221 0.096811 0.036300
H77   H     H_    0.163962 0.059797 0.921612 0.111816
H78   H     H_    0.331945 0.057439 0.125831 0.068765
H79   H     H_    0.353290 0.490073 0.036940 0.038673
H80   H     H_    0.295232 0.041818 0.921510 0.184011
H81   H     H_    0.290749 0.101202 0.965304 0.072698
H82   H     H_    0.215463 0.934940 0.467144 0.106764
H83   H     H_    0.237054 0.907987 0.658948 0.020326
H84   H     H_    0.356251 0.914662 0.589024 0.034661
H85   H     H_    0.332227 0.958765 0.468009 0.171357
H86   H     H_    0.362541 0.969242 0.691272 0.117967
H87   H     H_    0.389227 0.518950 0.649898 -0.011615
H88   H     H_    0.855605 0.946779 0.215034 0.066536
H89   H     H_    0.596372 0.533025 0.641683 0.053067
H90   H     H_    0.867438 0.041933 0.683964 0.005363
H91   H     H_    0.070438 0.738402 0.505673 -0.004788
H92   H     H_    0.009055 0.294056 0.960215 -0.163247
H93   H     H_    0.581118 0.238524 0.500328 -0.005232
H94   H     H_    0.496400 0.802227 0.961094 -0.056137
H95   H     H_    0.967434 0.801760 0.513988 0.044803
H96   H     H_    0.079875 0.218409 0.009152 0.040360
H97   H     H_    0.478705 0.302737 0.479078 0.047138
H98   H     H_    0.578202 0.729796 0.966816 0.047318
H99   H     H_    0.962648 0.781960 0.711791 0.103801
H100  H     H_    0.066373 0.964974 0.086455 0.040168
H101  H     H_    0.974709 0.209096 0.930236 0.059354
H102  H     H_    0.459182 0.283682 0.668156 0.105286
H103  H     H_    0.472937 0.721242 0.882427 0.061373
H104  H     H_    0.124441 0.754101 0.247150 0.057972
H105  H     H_    0.077998 0.220952 0.723310 0.039137
H106  H     H_    0.663523 0.238473 0.187201 0.066818
H107  H     H_    0.639853 0.739736 0.679980 0.055983
H108  H     H_    0.713639 0.365946 0.993785 0.052036
H109  H     H_    0.706848 0.631381 0.469975 0.095145
H110  H     H_    0.214009 0.867594 0.981358 0.049464
H111  H     H_    0.065930 0.005986 0.566374 -0.006217
H112  H     H_    0.207090 0.129473 0.467845 0.055600
H113  H     H_    0.268789 0.637128 0.158839 0.113720
H114  H     H_    0.248141 0.355360 0.628654 0.098170
H115  H     H_    0.777752 0.134109 0.170836 0.110593
H116  H     H_    0.756506 0.856515 0.638361 0.098133
H117  H     H_    0.108603 0.586164 0.436027 0.071902
H118  H     H_    0.105158 0.413258 0.932022 0.049550
H119  H     H_    0.606223 0.088242 0.428191 0.067033
H120  H     H_    0.606341 0.912990 0.928088 0.058081
H121  H     H_    0.741203 0.280204 0.440786 0.087365
H122  H     H_    0.637676 0.434862 0.868573 0.059481
H123  H     H_    0.747112 0.715845 0.960418 0.074128
H124  H     H_    0.244828 0.780438 0.451557 0.084697
H125  H     H_    0.231614 0.212883 0.929173 0.073106
H126  H     H_    0.069283 0.678819 0.080748 0.056646
H127  H     H_    0.030882 0.302074 0.691088 -0.031606
H128  H     H_    0.573247 0.171811 0.058443 0.076536
H129  H     H_    0.572296 0.818816 0.586106 0.043203
H130  H     H_    0.025096 0.697280 0.243602 -0.099728
H131  H     H_    0.947495 0.265107 0.712494 -0.031818
H132  H     H_    0.552650 0.195150 0.242371 -0.080411
H133  H     H_    0.670569 0.577901 0.643638 -0.088294
H134  H     H_    0.531352 0.786062 0.729036 -0.132541
H135  H     H_    0.107418 0.755660 0.032101 0.107715
H136  H     H_    0.071706 0.238515 0.519001 0.138633
H137  H     H_    0.615150 0.246249 0.980851 0.136681
H138  H     H_    0.609902 0.748018 0.466350 0.137994
H139  H     H_    0.709495 0.456971 0.174847 -0.014334
H140  H     H_    0.748754 0.510088 0.722538 0.003486
H141  H     H_    0.204132 0.953300 0.173742 -0.035902
H142  H     H_    0.190469 0.049675 0.637753 -0.112637
H143  H     H_    0.914837 0.707473 0.565289 0.188414
H144  H     H_    0.096713 0.937055 0.924810 -0.023148
H145  H     H_    0.932825 0.726908 0.390147 0.107665
H146  H     H_    0.915683 0.261539 0.189310 0.229199
H147  H     H_    0.913403 0.315991 0.109750 0.196203
H148  H     H_    0.416551 0.210743 0.515311 0.181379
H149  H     H_    0.447052 0.229045 0.351066 0.116665
H150  H     H_    0.424118 0.753724 0.197729 0.228247
H151  H     H_    0.410557 0.810351 0.138982 0.210567
H152  H     H_    0.522533 0.494919 0.095048 0.061005
H153  H     H_    0.450849 0.473889 0.919435 0.071586
H154  H     H_    0.404521 0.551880 0.925670 0.114350
H155  H     H_    0.080871 0.038318 0.397948 -0.008677
H156  H     H_    0.500146 0.573742 0.026963 0.092360
H157  H     H_    0.479021 0.563447 0.813532 0.121574
H158  H     H_    0.550275 0.610842 0.292940 0.078683
H159  H     H_    0.555099 0.612661 0.503990 0.058400
H160  H     H_    0.457365 0.543038 0.254189 0.114547
H161  H     H_    0.469418 0.539238 0.468409 0.112217
H162  H     H_    0.420337 0.590572 0.359302 0.078585
H163  H     H_    0.047852 0.048158 0.080487 0.081881
H164  H     H_    0.959659 0.023183 0.952194 0.121023
H165  H     H_    0.950532 0.103561 0.878893 0.091568
H166  H     H_    0.206939 0.478133 0.992912 0.004243
H167  H     H_    0.055351 0.108890 0.889907 0.093414
H168  H     H_    0.992664 0.077096 0.723806 0.135886
H169  H     H_    0.004133 0.923130 0.407750 0.049144
H170  H     H_    0.086441 0.925519 0.581292 0.075645
H171  H     H_    0.108146 0.884838 0.259072 0.134491
H172  H     H_    0.152579 0.865339 0.462364 0.100839
H173  H     H_    0.051508 0.851824 0.374336 0.121574
H174  H     H_    0.155938 0.443937 0.184927 0.190362
H175  H     H_    0.235080 0.407966 0.194631 0.150337
H176  H     H_    0.209096 0.570525 0.714340 0.203599
N1    N     N_3   0.957469 0.708306 0.496018 -0.512520
N2    N     N_3   0.941488 0.592232 0.322638 -0.450944
N3    N     N_3   0.461749 0.890301 0.860889 -0.459706
N4    N     N_3   0.452566 0.102981 0.346886 -0.450831
N5    N     N_3   0.275632 0.711331 0.789033 -0.470472
N6    N     N_3   0.270474 0.284868 0.262054 -0.497874
N7    N     N_3   0.775998 0.215400 0.789026 -0.482787
N8    N     N_3   0.775522 0.790684 0.284673 -0.480328
N9    N     N_3   0.071634 0.813332 0.695242 -0.507198
N10   N     N_3   0.017885 0.192202 0.176133 -0.486877
N11   N     N_3   0.573143 0.313672 0.683042 -0.506245
N12   N     N_3   0.922252 0.280151 0.087607 -0.512001
N13   N     N_3   0.517046 0.690974 0.111145 -0.500309
N14   N     N_3   0.024169 0.793930 0.129261 -0.509181
N15   N     N_3   0.983883 0.189881 0.550229 -0.499371
N16   N     N_3   0.572229 0.289314 0.143907 -0.510821
N17   N     N_3   0.540556 0.699687 0.560785 -0.520141
N18   N     N_3   0.464663 0.210600 0.459968 -0.520903
N19   N     N_3   0.421757 0.776395 0.100038 -0.502368
N20   N     N_3   0.218231 0.442277 0.215890 -0.415870
N21   N     N_3   0.265664 0.563150 0.696186 -0.515490
N22   N     N_3   0.699789 0.947922 0.218153 -0.452201
N23   N     N_3   0.724818 0.060403 0.728892 -0.454081
N24   N     N_3   0.939070 0.405749 0.821551 -0.458548
O1    O     O_2   0.163830 0.569270 0.980510 -0.454785
O2    O     O_3   0.941349 0.290031 0.483491 -0.582666
O3    O     O_3   0.469838 0.212989 0.031255 -0.590050
O4    O     O_3   0.462510 0.786715 0.493917 -0.592922
O5    O     O_3   0.904940 0.476110 0.001150 -0.454194
O6    O     O_3   0.904940 0.523890 0.501150 -0.452300
O7    O     O_3   0.404940 0.976110 0.001150 -0.495978
O8    O     O_3   0.404940 0.023890 0.501150 -0.495414
O9    O     O_3   0.095420 0.524330 0.188510 -0.505819
O10   O     O_3   0.095420 0.475670 0.688510 -0.503912
O11   O     O_3   0.595420 0.024330 0.188510 -0.514384
O12   O     O_2   0.163830 0.430730 0.480510 -0.450671
O13   O     O_3   0.595420 0.975670 0.688510 -0.508589
O14   O     O_3   0.028940 0.612400 0.656050 -0.440714
O15   O     O_3   0.028940 0.387600 0.156050 -0.466715
O16   O     O_3   0.528940 0.112400 0.656050 -0.435858
O17   O     O_3   0.528940 0.887600 0.156050 -0.453022
O18   O     O_2   0.163575 0.644294 0.843108 -0.465352
O19   O     O_2   0.162092 0.352877 0.340259 -0.471932
O20   O     O_2   0.659746 0.147858 0.845972 -0.481161
O21   O     O_2   0.658323 0.851047 0.348540 -0.474895
O22   O     O_3   0.258761 0.518966 0.194828 -0.657871
O23   O     O_2   0.663830 0.069270 0.980510 -0.447093
O24   O     O_3   0.256347 0.482423 0.719738 -0.624253
O25   O     O_3   0.758123 0.018105 0.175656 -0.559604
O26   O     O_3   0.756629 0.982309 0.699605 -0.599433
O27   O     O_3   0.063768 0.710204 0.726958 -0.580805
O28   O     O_3   0.058932 0.289386 0.211205 -0.586325
O29   O     O_3   0.557758 0.210896 0.710335 -0.578748
O30   O     O_3   0.559624 0.788601 0.200157 -0.601611
O31   O     O_2   0.837400 0.570350 0.710350 -0.514683
O32   O     O_2   0.837400 0.429650 0.210350 -0.472158
O33   O     O_2   0.337400 0.070350 0.710350 -0.510307
O34   O     O_2   0.663830 0.930730 0.480510 -0.454110
O35   O     O_2   0.337400 0.929650 0.210350 -0.507666
O36   O     O_3   0.972820 0.612580 0.035550 -0.488968
O37   O     O_3   0.972820 0.387420 0.535550 -0.476286
O38   O     O_3   0.472820 0.112580 0.035550 -0.497671
O39   O     O_3   0.472820 0.887420 0.535550 -0.486333
O40   O     O_2   0.844514 0.653659 0.856005 -0.475593
O41   O     O_2   0.838197 0.352953 0.349362 -0.478604
O42   O     O_2   0.355682 0.161836 0.856861 -0.473408
O43   O     O_2   0.344766 0.843990 0.371631 -0.489321
O44   O     O_3   0.559151 0.488854 0.875134 -0.669324
O45   O     O_3   0.753248 0.510860 0.483828 -0.613085
O46   O     O_3   0.611006 0.554597 0.416572 -0.634689
O47   O     O_3   0.064371 0.006795 0.882776 -0.669067
O48   O     O_3   0.094115 0.966335 0.374904 -0.675426
O49   O     O_3   0.328594 0.419657 0.999245 -0.689147
O50   O     O_3   0.339555 0.464259 0.488741 -0.631196
O51   O     O_3   0.853563 0.966652 0.988691 -0.628910
O52   O     O_3   0.833271 0.002559 0.463222 -0.624193
O53   O     O_3   0.670691 0.524334 0.139813 -0.626421
O54   O     O_3   0.676873 0.460523 0.602775 -0.696430
O55   O     O_3   0.198314 0.025489 0.150419 -0.652448
O56   O     O_3   0.751707 0.488088 0.990330 -0.688221
O57   O     O_3   0.218120 0.979155 0.671652 -0.659337
O58   O     O_3   0.239523 0.022467 0.455977 -0.647633
O59   O     O_3   0.236355 0.975074 0.964454 -0.646437
O60   O     O_3   0.956942 0.710257 0.010161 -0.585992
P1    P     P_3+3 0.171820 0.553000 0.158080 0.964567
P2    P     P_3+3 0.897615 0.344240 0.513815 0.966194
P3    P     P_3+3 0.411043 0.162333 0.029898 0.951799
P4    P     P_3+3 0.410292 0.837315 0.530284 0.927901
P5    P     P_3+3 0.102148 0.343277 0.177338 0.968811
P6    P     P_3+3 0.104026 0.655847 0.681679 0.991808
P7    P     P_3+3 0.603065 0.843498 0.178757 0.957813
P8    P     P_3+3 0.602756 0.156814 0.678812 0.977782
P9    P     P_3+3 0.171820 0.447000 0.658080 1.017489
P10   P     P_3+3 0.671820 0.053000 0.158080 1.011301
P11   P     P_3+3 0.671820 0.947000 0.658080 0.989511
P12   P     P_3+3 0.829210 0.554130 0.532500 1.021498
P13   P     P_3+3 0.829210 0.445870 0.032500 0.982494
P14   P     P_3+3 0.329210 0.054130 0.532500 0.989804
P15   P     P_3+3 0.329210 0.945870 0.032500 0.983748
P16   P     P_3+3 0.903843 0.658550 0.023498 0.961546

loop_
_geom_bond_atom_site_label_1
_geom_bond_atom_site_label_2
_ccdc_geom_bond_type
O13   P11   S    
C107  H168  S    
C70   P7    S    
C110  C111  S    
C101  H152  S    
C21   P14   S    
H38   N4    S    
H146  N12   S    
C53   O60   S    
C54   H131  S    
C16   H85   S    
C3    H17   S    
C75   O53   S    
H54   N13   S    
C109  H173  S    
C78   C83   S    
C104  C105  S    
C58   C66   A    
C106  C107  S    
C12   H77   S    
C87   C92   S    
C47   N13   S    
C40   C49   S    
C15   C16   S    
Ba1   O1    S    
C42   C51   S    
C55   H132  S    
C94   N12   S    
O22   P1    S    
C77   C82   S    
C4    H19   S    
C94   H92   S    
C38   C40   D    
O43   P4    D    
C105  H162  S    
O6    P12   S    
O38   P3    S    
C84   N20   S    
C9    H69   S    
C14   H80   S    
C80   H119  S    
C26   P3    S    
C15   O57   S    
O23   P10   D    
Ba4   O39   S    
C67   C69   A    
C38   H124  S    
C22   P2    S    
O59   P15   S    
H33   N2    S    
O60   P16   S    
C6    H25   S    
H4    N22   S    
O7    P15   S    
C53   H126  S    
O25   P10   S    
Ba3   P10   S    
C5    H22   S    
C8    H65   S    
C74   N17   S    
C14   H81   S    
C111  H10   S    
C3    H16   S    
C68   C80   A    
C59   H114  S    
C24   C29   A    
O16   P8    S    
C93   N1    S    
C72   H136  S    
C101  O44   S    
H151  N19   S    
C25   H96   S    
C106  H163  S    
C96   N19   S    
C11   H75   S    
C15   H82   S    
C76   H140  S    
C61   H116  S    
C103  H156  S    
C86   O25   S    
C65   C91   S    
C84   H166  S    
C60   H115  S    
O34   P11   D    
C41   N6    S    
C79   H1    S    
O8    P14   S    
C43   N8    S    
C109  H171  S    
C10   H71   S    
O14   P6    S    
C87   O26   S    
H60   N15   S    
C89   H87   S    
C82   H100  S    
C7    H27   S    
C87   H24   S    
C112  O50   S    
C112  H14   S    
H64   N17   S    
C1    N9    S    
O5    P13   S    
C48   C61   S    
C95   O29   S    
C81   H133  S    
H145  N1    S    
C78   H142  S    
Ba4   O35   S    
C104  H159  S    
Ba1   O6    S    
C62   P1    S    
C81   H89   S    
Ba2   O32   S    
Ba3   O16   S    
C101  C103  S    
C56   C74   S    
C29   C38   S    
C28   C32   A    
C20   P15   S    
C6    H26   S    
O26   P11   S    
H50   N10   S    
C73   N16   S    
C1    H99   S    
C2    H109  S    
O24   P9    S    
C16   H84   S    
C86   H13   S    
Ba3   O7    S    
C17   C34   A    
C28   C37   S    
C25   N10   S    
C11   H73   S    
Ba4   O17   S    
C103  H154  S    
H43   N7    S    
Ba1   O36   S    
C103  H157  S    
C44   C49   S    
C26   C30   A    
H40   N5    S    
C73   H137  S    
O33   P14   D    
H148  N18   S    
C71   N14   S    
C94   O28   S    
C67   P5    S    
C84   O22   S    
O56   P13   S    
C78   O57   S    
C47   H103  S    
H5    N22   S    
O4    P4    S    
C111  H12   S    
C55   H128  S    
C3    C112  S    
C36   N11   S    
C92   O52   S    
O9    P1    S    
Ba2   O5    S    
C88   H35   S    
O35   P15   D    
C37   C43   D    
C39   C41   D    
C82   H144  S    
C68   P8    S    
C23   P16   S    
C47   H98   S    
C1    C93   S    
H7    N23   S    
C88   O49   S    
C90   H88   S    
C108  H169  S    
Ba3   Ba4   S    
C90   O51   S    
C35   H121  S    
C95   H93   S    
C47   C96   S    
C17   C21   A    
C108  O48   S    
C107  H167  S    
C83   O48   S    
C53   H130  S    
H63   N17   S    
C105  H161  S    
C21   C100  S    
C99   N3    S    
C72   H105  S    
C23   C98   D    
C15   H83   S    
C89   O50   S    
C20   C99   S    
H147  N12   S    
C66   P6    S    
H53   N11   S    
C16   H86   S    
Ba1   O31   S    
C75   O56   S    
O11   P10   S    
C63   P9    S    
C85   N21   S    
C2    C32   A    
Ba4   P11   S    
C85   C89   S    
C105  H160  S    
C6    C7    S    
C90   H57   S    
C73   H106  S    
C8    C9    S    
C91   H120  S    
C4    O51   S    
C10   C11   S    
C95   N18   S    
H45   N8    S    
C76   O45   S    
C43   C52   S    
H174  N20   S    
C4    H20   S    
O32   P13   D    
C77   O55   S    
C98   N2    S    
H6    N23   S    
C18   C97   S    
C25   C94   S    
Ba4   O34   S    
H34   N3    S    
H44   N7    S    
C76   O54   S    
C104  H158  S    
Ba3   O23   S    
C14   H78   S    
C12   O55   S    
C8    O53   S    
C93   O27   S    
H42   N6    S    
C86   N22   S    
C5    H21   S    
C8    H66   S    
C50   C67   S    
C9    H67   S    
Ba4   O7    S    
C57   H113  S    
Ba1   P1    S    
C63   C69   S    
C55   O3    S    
Ba1   O10   S    
C56   O4    S    
O19   P5    D    
C79   H122  S    
C58   H117  S    
C107  H165  S    
Ba3   O38   S    
C71   H135  S    
C49   C66   S    
C19   P12   S    
C86   C90   S    
C106  H164  S    
H37   N4    S    
C101  H153  S    
C1    H95   S    
C71   H104  S    
C52   C70   S    
C30   C39   S    
C54   C72   S    
C64   C80   S    
H36   N3    S    
C42   N7    S    
C3    H18   S    
Ba3   O33   S    
O20   P8    D    
O10   P9    S    
C29   C33   A    
Ba2   O15   S    
C76   C81   S    
C97   N24   S    
C10   H72   S    
Ba1   O14   S    
C83   H111  S    
C27   C31   A    
O42   P3    D    
C60   C64   D    
O2    P2    S    
Ba2   P9    S    
C37   H123  S    
C17   H112  S    
H59   N15   S    
C9    H70   S    
C23   C28   A    
Ba1   O5    S    
C100  N4    S    
Ba2   O9    S    
H32   N2    S    
H39   N5    S    
O41   P2    D    
H61   N16   S    
O28   P5    S    
H48   N9    S    
C109  H172  S    
C75   C79   S    
H47   N8    S    
C5    H23   S    
C24   C99   D    
C53   C71   S    
C89   H46   S    
C110  O49   S    
C61   C65   D    
C96   H94   S    
C54   H127  S    
C106  O47   S    
H143  N1    S    
C40   N5    S    
H149  N18   S    
O15   P5    S    
C10   O54   S    
O27   P6    S    
C45   C50   S    
O39   P4    S    
C45   C59   S    
H31   N24   S    
C46   C60   S    
H58   N14   S    
H62   N16   S    
C65   P11   S    
C88   H79   S    
C55   C73   S    
C36   C95   S    
O12   P9    D    
O36   P16   S    
C39   H125  S    
C64   P10   S    
O37   P2    S    
Ba4   P15   S    
C22   C97   D    
C104  O46   S    
C19   C98   S    
C78   O58   S    
C81   O46   S    
C111  H11   S    
O1    P1    D    
Ba1   Ba2   S    
C12   H76   S    
C83   H155  S    
C57   C62   D    
C102  H108  S    
C82   O47   S    
C4    C5    S    
Ba2   O6    S    
C36   H97   S    
H52   N11   S    
O30   P7    S    
H3    N21   S    
H41   N6    S    
C7    H28   S    
C77   O59   S    
C51   C68   S    
O58   P14   S    
C74   H107  S    
Ba3   P14   S    
C110  H8    S    
Ba1   P12   S    
C25   H101  S    
C22   C27   A    
O21   P7    D    
C56   H134  S    
C108  H170  S    
C92   H68   S    
C108  C109  S    
O45   P12   S    
Ba3   O13   S    
C59   C63   D    
C13   C20   A    
C74   H138  S    
C84   C88   S    
H176  N21   S    
C79   O44   S    
C58   C62   S    
C110  H9    S    
C87   N23   S    
C7    H29   S    
O31   P12   D    
C18   C102  A    
Ba4   O11   S    
C54   O2    S    
C13   H110  S    
C92   H90   S    
Ba3   O8    S    
C24   P4    S    
C69   H118  S    
C96   O30   S    
C13   C33   A    
C93   H91   S    
H150  N19   S    
C35   C42   D    
C11   H74   S    
C41   C50   S    
C85   O24   S    
C26   C100  D    
H55   N13   S    
C36   H102  S    
H175  N20   S    
C30   C34   A    
C70   C91   A    
Ba2   O37   S    
O17   P7    S    
O3    P3    S    
C6    O52   S    
C77   H141  S    
C46   C51   S    
C72   N15   S    
C31   C102  A    
C44   C57   S    
C112  H15   S    
H51   N10   S    
Ba2   O12   S    
C2    C19   A    
H30   N24   S    
C27   C35   S    
Ba2   P13   S    
C18   P13   S    
H49   N9    S    
C48   C52   S    
C56   H129  S    
C85   H2    S    
C12   C14   S    
H56   N14   S    
Ba4   O8    S    
C75   H139  S    
O40   P16   D    
O29   P8    S    
O18   P6    D    
