data_mof_unit_22350.cif
_audit_creation_date              2012-12-10T20:43:40-0500
_audit_creation_method            fapswitch 2.2
_symmetry_space_group_name_H-M    P1
_symmetry_Int_Tables_number       1
_space_group_crystal_system       triclinic
_cell_length_a                    18.952316
_cell_length_b                    18.762465
_cell_length_c                    18.819013
_cell_angle_alpha                 109.347363
_cell_angle_beta                  109.710729
_cell_angle_gamma                 109.709927
_cell_volume                      5128.7186569

loop_
_atom_site_label
_atom_site_type_symbol
_atom_type_description
_atom_site_fract_x
_atom_site_fract_y
_atom_site_fract_z
_atom_type_partial_charge
C1    C     C_R   0.379326 0.499755 0.379881 0.945209
C2    C     C_R   0.288678 0.436968 0.048985 -0.151774
C3    C     C_R   0.120012 0.116450 0.497002 0.981458
C4    C     C_R   0.003738 0.379545 0.883908 0.956923
C5    C     C_R   0.119418 0.496683 0.117059 0.842634
C6    C     C_R   0.002054 0.620965 0.121297 0.862301
C7    C     C_R   0.880400 0.500378 0.879552 0.931218
C8    C     C_R   0.019088 0.743033 0.530750 -0.227160
C9    C     C_R   0.040280 0.761835 0.472394 -0.019977
C10   C     C_R   0.978095 0.715756 0.383453 0.045679
C11   C     C_R   0.898717 0.642477 0.352361 -0.156552
C12   C     C_R   0.876897 0.621726 0.409734 0.475984
C13   C     C_R   0.314613 0.524327 0.072651 0.328299
C14   C     C_R   0.839564 0.864423 0.822951 0.514379
C15   C     C_R   0.936308 0.675750 0.501036 -0.049187
C16   C     C_R   0.002240 0.677587 0.259066 0.434659
C17   C     C_R   0.009521 0.690399 0.191889 -0.183619
C18   C     C_R   0.023510 0.769443 0.192056 -0.016732
C19   C     C_R   0.015164 0.829743 0.251172 -0.078636
C20   C     C_R   0.002023 0.813904 0.315495 -0.223818
C21   C     C_R   0.996742 0.738228 0.320275 -0.045723
C22   C     C_R   0.142733 0.835425 0.164620 0.325651
C23   C     C_R   0.173207 0.852692 0.109709 0.284115
C24   C     C_R   0.082346 0.257914 0.757775 0.404365
C25   C     C_R   0.113662 0.832205 0.026634 0.283214
C26   C     C_2   0.793916 0.939704 0.922408 0.505473
C27   C     C_2   0.679475 0.695711 0.077602 0.512723
C28   C     C_2   0.499840 0.933242 0.601506 0.370435
C29   C     C_2   0.272844 0.618472 0.458310 0.518395
C30   C     C_2   0.219772 0.330622 0.243077 0.446600
C31   C     C_2   0.632187 0.875017 0.767717 0.413845
C32   C     C_2   0.868179 0.198505 0.100510 0.443603
C33   C     C_2   0.101395 0.328670 0.401933 0.373294
C34   C     C_2   0.086939 0.486765 0.467705 0.633627
C35   C     C_R   0.818973 0.829201 0.577689 0.402393
C36   C     C_2   0.354208 0.192143 0.675124 0.538429
C37   C     C_2   0.275068 0.881811 0.529041 0.346474
C38   C     C_2   0.713933 0.689953 0.842693 0.630721
C39   C     C_2   0.865471 0.367798 0.682581 0.441736
C40   C     C_2   0.914102 0.667688 0.567432 0.386546
C41   C     C_2   0.018869 0.907113 0.242115 0.443315
C42   C     C_2   0.963295 0.764270 0.906899 0.561211
C43   C     C_2   0.192257 0.276183 0.944381 0.459939
C44   C     C_2   0.870441 0.211601 0.520013 0.443672
C45   C     C_2   0.609432 0.918698 0.339891 0.521358
C46   C     C_R   0.001665 0.188343 0.685627 -0.110825
C47   C     C_2   0.546601 0.694784 0.125880 0.305868
C48   C     C_R   0.922668 0.183735 0.675104 -0.140768
C49   C     C_R   0.924169 0.242675 0.745542 0.324765
C50   C     C_R   0.004901 0.312171 0.819044 -0.223704
C51   C     C_R   0.084795 0.320112 0.826647 -0.158551
C52   C     C_R   0.815258 0.132904 0.519221 -0.019161
C53   C     C_R   0.778370 0.887452 0.833832 -0.203588
C54   C     C_R   0.738488 0.068911 0.440167 -0.309510
C55   C     C_R   0.688089 0.986365 0.426419 -0.051160
C56   C     C_R   0.713143 0.967655 0.494194 0.460891
C57   C     C_R   0.785981 0.034110 0.577867 0.333811
C58   C     C_R   0.813230 0.812241 0.497161 -0.196106
C59   C     C_R   0.838994 0.117091 0.590476 -0.053801
C60   C     C_R   0.740560 0.739016 0.417524 -0.112734
C61   C     C_R   0.681100 0.673706 0.421318 0.501485
C62   C     C_R   0.686415 0.689616 0.502063 -0.123927
C63   C     C_R   0.752484 0.769940 0.580587 -0.076702
C64   C     C_R   0.023926 0.788941 0.996218 -0.090707
C65   C     C_R   0.644415 0.718228 0.271636 0.442856
C66   C     C_R   0.629359 0.708644 0.188440 -0.148498
C67   C     C_R   0.693703 0.710933 0.165279 -0.026850
C68   C     C_R   0.621543 0.621051 0.501967 0.989258
C69   C     C_R   0.771827 0.724893 0.225533 -0.123160
C70   C     C_R   0.786427 0.735577 0.306752 -0.253920
C71   C     C_R   0.723614 0.731057 0.330497 0.097655
C72   C     C_R   0.395352 0.772409 0.535283 0.470647
C73   C     C_R   0.349405 0.685156 0.465995 0.009815
C74   C     C_R   0.372249 0.663052 0.400839 -0.143038
C75   C     C_R   0.992760 0.768561 0.049347 0.302066
C76   C     C_R   0.433452 0.730088 0.400374 -0.125550
C77   C     C_R   0.469726 0.817910 0.460964 0.506207
C78   C     C_R   0.454925 0.840205 0.532186 -0.226081
C79   C     C_R   0.255404 0.572231 0.249872 -0.185123
C80   C     C_R   0.618486 0.499046 0.620598 0.952481
C81   C     C_R   0.183627 0.492808 0.180972 -0.074407
C82   C     C_R   0.168961 0.413473 0.180140 -0.002875
C83   C     C_R   0.234155 0.414713 0.245437 -0.054211
C84   C     C_R   0.308891 0.496591 0.314177 -0.119820
C85   C     C_R   0.314822 0.575758 0.319861 0.031429
C86   C     C_R   0.052871 0.792303 0.134143 -0.124630
C87   C     C_R   0.022575 0.301868 0.142749 0.399558
C88   C     C_R   0.937682 0.227966 0.079209 -0.084433
C89   C     C_R   0.917042 0.184376 0.991903 -0.052069
C90   C     C_R   0.976952 0.214648 0.966897 -0.127388
C91   C     C_R   0.058327 0.288622 0.028459 -0.233770
C92   C     C_R   0.379864 0.379729 0.500370 0.967232
C93   C     C_R   0.082681 0.331503 0.116344 0.071146
C94   C     C_R   0.298579 0.550524 0.656073 -0.284031
C95   C     C_R   0.305655 0.476751 0.623542 -0.115567
C96   C     C_R   0.244422 0.406220 0.538685 0.073788
C97   C     C_R   0.275975 0.544255 0.008637 0.371447
C98   C     C_R   0.170832 0.407903 0.487657 -0.150948
C99   C     C_R   0.162334 0.482651 0.521445 -0.065946
C100  C     C_R   0.227635 0.554690 0.605815 0.587793
C101  C     C_R   0.183105 0.255014 0.506263 -0.194762
C102  C     C_R   0.187375 0.180658 0.496842 -0.069116
C103  C     C_R   0.259862 0.173825 0.498684 -0.046751
C104  C     C_R   0.701890 0.860729 0.758851 -0.222641
C105  C     C_R   0.323135 0.239774 0.498169 0.430654
C106  C     C_R   0.315760 0.313691 0.503682 -0.106174
C107  C     C_R   0.248136 0.323863 0.513597 -0.052443
C108  C     C_R   0.205081 0.475902 0.926973 -0.106014
C109  C     C_R   0.315350 0.111280 0.591913 0.030446
C110  C     C_R   0.318320 0.039252 0.597042 -0.333250
C111  C     C_R   0.276349 0.958103 0.521593 0.040400
C112  C     C_R   0.234448 0.950089 0.440034 -0.066696
C113  C     C_R   0.234712 0.022144 0.433489 -0.202439
C114  C     C_R   0.272136 0.102409 0.508626 0.062544
C115  C     C_R   0.579411 0.634644 0.850904 0.466787
C116  C     C_R   0.692856 0.821418 0.675136 0.536640
C117  C     C_R   0.636460 0.616766 0.826097 -0.023234
C118  C     C_R   0.619788 0.529549 0.785927 -0.161468
C119  C     C_R   0.169893 0.388742 0.908364 -0.098693
C120  C     C_R   0.547110 0.461209 0.774823 0.507828
C121  C     C_R   0.493692 0.480919 0.804581 0.456476
C122  C     C_R   0.508892 0.566669 0.840484 -0.567991
C123  C     C_R   0.748796 0.511830 0.828941 0.482401
C124  C     C_R   0.816478 0.506010 0.816339 -0.181241
C125  C     C_R   0.824367 0.509349 0.744875 0.023634
C126  C     C_R   0.755829 0.502390 0.678287 0.425101
C127  C     C_R   0.686279 0.502870 0.688849 -0.234609
C128  C     C_R   0.752563 0.796329 0.664983 -0.038091
C129  C     C_R   0.684732 0.512735 0.766077 -0.114611
C130  C     C_R   0.217547 0.368233 0.966621 -0.122916
C131  C     C_R   0.957090 0.608400 0.754740 -0.327670
C132  C     C_R   0.037482 0.632609 0.758941 0.295544
C133  C     C_R   0.065193 0.571076 0.745026 0.527609
C134  C     C_R   0.011250 0.485889 0.724191 0.319728
C135  C     C_R   0.929056 0.461346 0.719365 -0.222965
C136  C     C_R   0.905668 0.526118 0.741427 0.035016
C137  C     C_R   0.998465 0.878174 0.380093 0.929950
C138  C     C_R   0.879958 0.878372 0.498046 0.946200
C139  C     C_R   0.000736 0.120754 0.619913 1.001005
C140  C     C_R   0.823933 0.815979 0.739140 -0.285616
H1    H     H_    0.821935 0.726986 0.209510 0.178574
H2    H     H_    0.130753 0.261561 0.513514 0.196962
H3    H     H_    0.350538 0.045428 0.660360 0.123271
H4    H     H_    0.199951 0.887251 0.381700 0.229251
H5    H     H_    0.204029 0.014876 0.369643 0.193543
H6    H     H_    0.466019 0.580724 0.861282 0.181604
H7    H     H_    0.871922 0.799887 0.732139 0.206980
H8    H     H_    0.933002 0.653194 0.759377 0.184429
H9    H     H_    0.066759 0.783150 0.599845 0.167361
H10   H     H_    0.104459 0.814037 0.497177 0.172683
H11   H     H_    0.852083 0.602741 0.282942 0.184470
H12   H     H_    0.848161 0.749688 0.352879 0.121776
H13   H     H_    0.174839 0.491382 0.878695 0.223415
H14   H     H_    0.321967 0.422896 0.097139 0.223434
H15   H     H_    0.720099 0.082152 0.386892 0.207452
H16   H     H_    0.740131 0.927377 0.934474 0.121212
H17   H     H_    0.616493 0.674828 0.026169 0.109008
H18   H     H_    0.466993 0.957017 0.632047 0.059166
H19   H     H_    0.425232 0.846076 0.654906 0.336599
H20   H     H_    0.252432 0.549609 0.425265 0.029878
H21   H     H_    0.510287 0.932384 0.470253 0.358640
H22   H     H_    0.183317 0.270334 0.180839 0.097006
H23   H     H_    0.445886 0.714508 0.346643 0.206174
H24   H     H_    0.647909 0.933673 0.822193 0.080558
H25   H     H_    0.010618 0.312472 0.243663 0.335471
H26   H     H_    0.873563 0.240027 0.160341 0.087473
H27   H     H_    0.273463 0.673566 0.695958 0.342774
H28   H     H_    0.118491 0.291337 0.360011 0.144321
H29   H     H_    0.051857 0.447426 0.397112 0.085294
H30   H     H_    0.613513 0.855782 0.621785 0.374684
H31   H     H_    0.388662 0.179289 0.485756 0.344127
H32   H     H_    0.399184 0.201224 0.735883 0.075577
H33   H     H_    0.305061 0.888545 0.592987 0.104683
H34   H     H_    0.260803 0.632837 0.252984 0.166046
H35   H     H_    0.548200 0.720408 0.899229 0.354621
H36   H     H_    0.735506 0.681086 0.795621 0.067837
H37   H     H_    0.562522 0.367363 0.710383 0.342118
H38   H     H_    0.395014 0.438720 0.821419 0.335468
H39   H     H_    0.804340 0.548829 0.953027 0.343573
H40   H     H_    0.796095 0.479190 0.594369 0.352307
H41   H     H_    0.061804 0.751015 0.787046 0.352370
H42   H     H_    0.177971 0.653879 0.769377 0.387130
H43   H     H_    0.016888 0.384737 0.723204 0.333195
H44   H     H_    0.877693 0.317459 0.652618 0.093801
H45   H     H_    0.853111 0.128448 0.941967 0.184055
H46   H     H_    0.965599 0.697820 0.633906 0.099045
H47   H     H_    0.907305 0.891418 0.941371 0.388935
H48   H     H_    0.802190 0.524060 0.412911 0.381288
H49   H     H_    0.039227 0.591388 0.247065 0.347600
H50   H     H_    0.995480 0.901212 0.178163 0.106455
H51   H     H_    0.254182 0.911888 0.271870 0.341682
H52   H     H_    0.286672 0.867392 0.173469 0.361723
H53   H     H_    0.204932 0.883593 0.001945 0.415015
H54   H     H_    0.987003 0.793339 0.872686 0.113505
H55   H     H_    0.870469 0.929445 0.693503 0.363303
H56   H     H_    0.959256 0.182325 0.899015 0.151726
H57   H     H_    0.890582 0.717670 0.060533 0.354373
H58   H     H_    0.367534 0.638217 0.173312 0.327982
H59   H     H_    0.364184 0.667596 0.072740 0.348251
H60   H     H_    0.132978 0.221852 0.885198 0.091163
H61   H     H_    0.207508 0.322692 0.801318 0.357032
H62   H     H_    0.796785 0.182567 0.692247 0.367786
H63   H     H_    0.840892 0.230257 0.474439 0.077356
H64   H     H_    0.632193 0.581952 0.302152 0.351940
H65   H     H_    0.565883 0.857121 0.330443 0.147522
H66   H     H_    0.692954 0.877489 0.527130 0.400654
H67   H     H_    0.101428 0.314937 0.007473 0.134223
H68   H     H_    0.852414 0.066974 0.700569 0.343027
H69   H     H_    0.535193 0.714242 0.255793 0.338079
H70   H     H_    0.485545 0.642734 0.108433 0.110433
H71   H     H_    0.348233 0.604295 0.721438 0.159825
H72   H     H_    0.358757 0.473815 0.665573 0.178598
O1    O     O_R   0.408360 0.551710 0.460090 -0.637652
O2    O     O_R   0.948290 0.356630 0.908390 -0.557959
O3    O     O_R   0.143340 0.551690 0.091580 -0.619453
O4    O     O_R   0.408400 0.448280 0.356670 -0.587435
O5    O     O_R   0.039900 0.448270 0.091610 -0.617808
O6    O     O_R   0.051710 0.643320 0.091560 -0.608712
O7    O     O_R   0.948270 0.539900 0.091590 -0.607971
O8    O     O_R   0.960100 0.551680 0.908340 -0.627215
O9    O     O_R   0.856660 0.448270 0.908370 -0.583304
O10   O     O_R   0.591600 0.643340 0.551710 -0.602764
O11   O     O_R   0.591630 0.539900 0.448290 -0.552833
O12   O     O_R   0.948280 0.908380 0.356650 -0.579992
O13   O     O_R   0.591600 0.551720 0.643330 -0.687813
O14   O     O_R   0.591640 0.448290 0.539910 -0.551850
O15   O     O_R   0.408370 0.460100 0.551710 -0.665210
O16   O     O_R   0.408400 0.356660 0.448290 -0.548281
O17   O     O_R   0.051730 0.908360 0.460060 -0.657049
O18   O     O_2   0.866596 0.998633 0.982343 -0.534103
O19   O     O_2   0.738129 0.705562 0.061338 -0.541226
O20   O     O_2   0.574863 0.984148 0.626385 -0.534761
O21   O     O_3   0.378760 0.788219 0.603504 -0.693686
O22   O     O_2   0.229118 0.639806 0.485740 -0.471244
O23   O     O_R   0.960110 0.908350 0.551690 -0.589894
O24   O     O_3   0.514254 0.879561 0.444584 -0.740783
O25   O     O_2   0.244441 0.326983 0.309950 -0.607233
O26   O     O_2   0.555982 0.819532 0.715022 -0.552961
O27   O     O_3   0.048479 0.348950 0.229657 -0.793434
O28   O     O_2   0.801986 0.127066 0.049792 -0.545671
O29   O     O_3   0.221642 0.628925 0.637419 -0.649180
O30   O     O_2   0.024882 0.301145 0.380137 -0.578636
O31   O     O_2   0.062946 0.534081 0.501432 -0.487187
O32   O     O_3   0.628762 0.810274 0.602546 -0.729727
O33   O     O_3   0.395158 0.237216 0.497531 -0.753698
O34   O     O_R   0.856660 0.908370 0.448270 -0.639498
O35   O     O_2   0.334317 0.247886 0.677701 -0.485568
O36   O     O_2   0.239981 0.810533 0.464160 -0.533606
O37   O     O_3   0.593992 0.719125 0.885410 -0.710815
O38   O     O_2   0.755223 0.760393 0.910056 -0.503146
O39   O     O_3   0.527005 0.374878 0.737348 -0.698302
O40   O     O_3   0.426885 0.414851 0.798379 -0.657788
O41   O     O_3   0.745057 0.520674 0.903430 -0.708554
O42   O     O_3   0.756846 0.499915 0.604187 -0.710889
O43   O     O_3   0.089485 0.715382 0.776067 -0.743843
O44   O     O_3   0.144669 0.591137 0.750340 -0.684878
O45   O     O_R   0.051720 0.091580 0.643310 -0.574161
O46   O     O_3   0.041848 0.428789 0.708242 -0.675843
O47   O     O_2   0.797107 0.344672 0.682625 -0.544712
O48   O     O_2   0.838900 0.631910 0.550468 -0.562627
O49   O     O_3   0.916604 0.889948 0.892371 -0.739108
O50   O     O_3   0.797581 0.548882 0.373760 -0.732261
O51   O     O_3   0.002279 0.607225 0.267945 -0.714794
O52   O     O_2   0.050163 0.978478 0.304949 -0.586642
O53   O     O_3   0.199191 0.857931 0.247690 -0.780755
O54   O     O_3   0.259938 0.886563 0.134117 -0.743120
O55   O     O_3   0.140750 0.850082 0.971665 -0.748553
O56   O     O_R   0.948270 0.091600 0.539890 -0.620685
O57   O     O_2   0.886496 0.710010 0.869097 -0.590239
O58   O     O_3   0.888376 0.907417 0.651337 -0.737425
O59   O     O_3   0.903986 0.727092 0.016928 -0.676385
O60   O     O_3   0.375916 0.587054 0.158535 -0.788891
O61   O     O_3   0.304023 0.628395 0.022851 -0.740339
O62   O     O_2   0.237283 0.259777 0.992792 -0.549486
O63   O     O_3   0.157085 0.263184 0.757645 -0.733456
O64   O     O_3   0.848706 0.236856 0.744086 -0.707629
O65   O     O_2   0.949109 0.254030 0.567697 -0.533244
O66   O     O_3   0.614407 0.595162 0.346509 -0.699421
O67   O     O_R   0.143340 0.091590 0.551680 -0.610876
O68   O     O_2   0.591844 0.931051 0.277974 -0.539957
O69   O     O_3   0.665929 0.883107 0.475938 -0.709250
O70   O     O_3   0.803320 0.014856 0.644543 -0.790407
O71   O     O_3   0.585101 0.717436 0.299036 -0.720448
O72   O     O_2   0.546277 0.742430 0.094753 -0.521340
O73   O     O_R   0.039890 0.091610 0.448270 -0.582689
O74   O     O_R   0.051730 0.460050 0.908360 -0.649765
Zn1   Zn    Zn3+2 0.499980 0.569060 0.569060 1.021889
Zn2   Zn    Zn3+2 0.500020 0.430940 0.430940 1.131806
Zn3   Zn    Zn3+2 0.069070 0.999960 0.569030 1.021683
Zn4   Zn    Zn3+2 0.930930 0.999990 0.430930 1.062196
Zn5   Zn    Zn3+2 0.069070 0.569030 0.999960 1.022304
Zn6   Zn    Zn3+2 0.930930 0.430930 0.000000 1.057442

loop_
_geom_bond_atom_site_label_1
_geom_bond_atom_site_label_2
_ccdc_geom_bond_type
C101  C107  A    
O3    Zn5   S    
C55   C56   A    
C116  O32   S    
C16   C21   A    
C32   H26   S    
H19   O21   S    
C73   C74   A    
C26   H16   S    
C95   C96   A    
C108  C119  A    
C120  O39   S    
C7    C124  S    
C87   C88   A    
C49   C50   A    
C81   C82   A    
C138  O23   A    
O45   Zn3   S    
C123  C124  A    
C43   O62   D    
C39   C135  S    
C77   C78   A    
C26   O18   D    
C1    C84   S    
C137  O12   A    
C18   C86   S    
C37   O36   D    
C74   C76   A    
O74   Zn5   S    
H31   O33   S    
C35   C58   A    
C95   H72   S    
O13   Zn1   S    
C29   C73   S    
H30   O32   S    
C52   C59   A    
C40   O48   D    
O14   Zn2   S    
C18   C19   A    
C42   O57   D    
C7    O9    A    
O7    Zn6   S    
C57   C59   A    
C90   H56   S    
O2    Zn6   S    
C106  C107  A    
C53   C104  A    
C58   C60   A    
C32   C88   S    
H48   O50   S    
C122  H6    S    
C119  C130  A    
C72   O21   S    
H49   O51   S    
C33   C98   S    
C101  H2    S    
C113  H5    S    
C30   C83   S    
C42   H54   S    
C2    C13   A    
C110  C111  A    
C72   C78   A    
H41   O43   S    
C132  O43   S    
C6    O6    A    
C16   O51   S    
C38   H36   S    
C38   C117  S    
C5    O5    A    
C108  H13   S    
C111  C112  A    
C92   O15   A    
C16   C17   A    
C115  C117  A    
C96   C98   A    
C44   H63   S    
C51   C119  S    
C110  H3    S    
H66   O69   S    
C70   C71   A    
H64   O66   S    
C80   O13   A    
H57   O59   S    
C28   C78   S    
C9    C10   A    
C28   O20   D    
C47   C66   S    
H58   O60   S    
C39   H44   S    
O6    Zn5   S    
C58   C138  S    
C24   C51   A    
O4    Zn2   S    
C66   C67   A    
C139  O45   A    
C116  C128  A    
C94   H71   S    
C2    H14   S    
C82   C93   S    
C104  C116  A    
C123  C129  A    
H51   O53   S    
C79   H34   S    
O67   Zn3   S    
C33   O30   D    
C69   C70   A    
C61   O66   S    
C140  H7    S    
C112  C113  A    
C25   O55   S    
C52   C54   A    
C34   C99   S    
C29   H20   S    
C118  C120  A    
C41   O52   D    
C10   C21   S    
C133  O44   S    
C11   H11   S    
C46   C48   A    
C9    H10   S    
H25   O27   S    
C87   O27   S    
C31   H24   S    
C102  C103  A    
H53   O55   S    
C101  C102  A    
O23   Zn3   S    
C135  C136  A    
C103  C114  S    
C4    O2    A    
C76   C77   A    
C49   O64   S    
C137  O17   A    
C131  C136  A    
C47   O72   D    
C13   O60   S    
C54   H15   S    
C79   C81   A    
H40   O42   S    
C8    C9    A    
C121  O40   S    
H52   O54   S    
C32   O28   D    
C60   C71   S    
H27   O29   S    
C65   C71   A    
C92   O16   A    
O73   Zn4   S    
H47   O49   S    
C77   O24   S    
C4    O74   A    
C6    O7    A    
C123  O41   S    
C4    C50   S    
C60   C61   A    
C67   C69   A    
C25   C64   A    
H39   O41   S    
C20   C137  S    
C127  C129  A    
O10   Zn1   S    
C138  O34   A    
C14   O49   S    
O15   Zn1   S    
C91   C93   A    
C5    C81   S    
C57   O70   S    
O16   Zn2   S    
C75   C86   A    
C3    O67   A    
C83   C84   A    
C97   C108  A    
C12   C15   A    
C94   C100  A    
C134  O46   S    
C45   O68   D    
C15   C40   S    
C14   C53   A    
C1    O4    A    
C28   H18   S    
C17   C18   A    
H37   O39   S    
C36   H32   S    
C70   H12   S    
C131  H8    S    
C65   O71   S    
C12   O50   S    
C84   C85   A    
H43   O46   S    
C105  O33   S    
C121  C122  A    
C43   H60   S    
C34   H29   S    
C39   O47   D    
C109  C114  A    
H61   O63   S    
C7    O8    A    
C41   H50   S    
O8    Zn5   S    
C92   C106  S    
C48   C49   A    
H59   O61   S    
C96   C107  S    
C14   C140  A    
C82   C83   A    
C8    C15   A    
C1    O1    A    
C125  C126  A    
H62   O64   S    
C103  C105  A    
C68   O11   A    
C56   C57   A    
C30   H22   S    
C30   O25   D    
O56   Zn4   S    
C131  C132  A    
C89   C90   A    
C26   C53   S    
C42   C64   S    
C79   C85   A    
C40   H46   S    
C120  C121  A    
C125  C136  S    
C48   C59   S    
C113  C114  A    
C27   O19   D    
C3    O73   A    
C6    C17   S    
C54   C55   A    
O34   Zn4   S    
C45   H65   S    
O5    Zn6   S    
H35   O37   S    
C34   O31   D    
C89   H45   S    
C31   O26   D    
C43   C130  S    
C68   O10   A    
C63   C128  S    
H42   O44   S    
C72   C73   A    
H69   O71   S    
C91   H67   S    
C11   C12   A    
H68   O70   S    
C134  C135  A    
C115  O37   S    
C80   C127  S    
C27   H17   S    
O1    Zn1   S    
C105  C106  A    
C23   O54   S    
O9    Zn6   S    
C44   O65   D    
C62   C68   S    
C24   C46   A    
C31   C104  S    
C112  H4    S    
C19   C20   A    
O17   Zn3   S    
C8    H9    S    
C128  C140  A    
C65   C66   A    
C118  C129  S    
C99   C100  A    
C22   O53   S    
C44   C52   S    
C90   C91   A    
C133  C134  A    
H21   O24   S    
C75   O59   S    
C126  O42   S    
C126  C127  A    
C87   C93   A    
C2    C130  A    
C64   C75   A    
O12   Zn4   S    
C132  C133  A    
C22   C86   A    
C74   C85   S    
C13   C97   A    
C61   C62   A    
C3    C102  S    
C29   O22   D    
C37   C111  S    
C27   C67   S    
C10   C11   A    
C37   H33   S    
O11   Zn2   S    
C33   H28   S    
C139  O56   A    
C23   C25   A    
H38   O40   S    
C88   C89   A    
C45   C55   S    
C20   C21   A    
C98   C99   A    
C38   O38   D    
C47   H70   S    
C109  C110  A    
C36   C109  S    
C115  C122  A    
C36   O35   D    
C50   C51   A    
C22   C23   A    
C56   O69   S    
C76   H23   S    
C35   C63   A    
C69   H1    S    
C35   O58   S    
C80   O14   A    
C62   C63   A    
C117  C118  A    
H55   O58   S    
C97   O61   S    
C94   C95   A    
C124  C125  A    
C100  O29   S    
C19   C41   S    
C46   C139  S    
C24   O63   S    
C5    O3    A    
