data_mof_unit_18873.cif
_audit_creation_date              2013-03-05T15:46:14-0500
_audit_creation_method            fapswitch 2.2
_symmetry_space_group_name_H-M    P1
_symmetry_Int_Tables_number       1
_space_group_crystal_system       triclinic
_cell_length_a                    10.983124
_cell_length_b                    11.038051
_cell_length_c                    9.820847
_cell_angle_alpha                 108.404073
_cell_angle_beta                  98.670334
_cell_angle_gamma                 92.050259
_cell_volume                      1112.37846713

loop_
_atom_site_label
_atom_site_type_symbol
_atom_site_description
_atom_site_fract_x
_atom_site_fract_y
_atom_site_fract_z
_atom_type_partial_charge
O1    O     O_R   0.511820 0.332340 0.577400 -0.534435
O2    O     O_R   0.474400 0.295500 0.332650 -0.587536
C1    C     C_R   0.491526 0.255321 0.444044 0.820956
O3    O     O_R   0.336400 0.518400 0.622370 -0.590273
O4    O     O_R   0.298980 0.481560 0.377620 -0.619089
C2    C     C_R   0.261277 0.505569 0.502956 0.914856
Cu1   Cu    Cu3+1 0.522160 0.521810 0.644910 1.078334
Cu2   Cu    Cu3+1 0.477840 0.478190 0.355090 0.975290
O5    O     O_R   0.525600 0.704500 0.667350 -0.556217
O6    O     O_R   0.488180 0.667660 0.422600 -0.603057
O7    O     O_R   0.701020 0.518440 0.622380 -0.495324
O8    O     O_R   0.663600 0.481600 0.377630 -0.560611
C3    C     C_R   0.513620 0.744948 0.554765 0.966301
C4    C     C_R   0.740398 0.503252 0.500619 0.920873
C5    C     C_3   0.096380 0.533789 0.675082 0.134412
C6    C     C_3   0.951913 0.555906 0.675763 0.428185
C7    C     C_3   0.075334 0.627902 0.449155 0.187337
C8    C     C_3   0.054578 0.381349 0.402433 -0.101697
C9    C     C_3   0.125276 0.513630 0.509799 -0.117192
H1    H     H_    0.056118 0.381594 0.291415 0.243745
C10   C     C_3   0.879959 0.512154 0.505721 -0.324925
C11   C     C_3   0.922981 0.610868 0.423449 0.426418
C12   C     C_3   0.917856 0.373306 0.425333 -0.121551
H2    H     H_    0.914843 0.317519 0.498779 0.225001
C13   C     C_2   0.479577 0.117792 0.419020 0.040352
C14   C     C_2   0.564280 0.063110 0.491030 0.109627
H3    H     H_    0.522974 0.949727 0.679665 0.167953
C15   C     C_2   0.528702 0.881905 0.573477 -0.210703
C16   C     C_2   0.551045 0.925692 0.464389 0.168517
H4    H     H_    0.562045 0.595608 0.148541 0.160074
N1    N     N_2   0.444530 0.445420 0.137360 -0.169724
C17   C     C_2   0.506530 0.511388 0.077890 -0.035314
H5    H     H_    0.565096 0.649025 0.928469 0.186910
N2    N     N_2   0.555520 0.554510 0.862630 -0.306656
C18   C     C_2   0.516625 0.471514 0.919860 0.419398
C19   C     C_3   0.179304 0.641141 0.806548 -0.613982
H6    H     H_    0.196439 0.734667 0.794149 0.288809
H7    H     H_    0.135890 0.660137 0.905482 0.228253
H8    H     H_    0.271660 0.612565 0.841164 0.204525
C20   C     C_3   0.828148 0.283508 0.289790 -0.646992
H9    H     H_    0.782371 0.329987 0.214553 0.312549
H10   H     H_    0.876290 0.203248 0.226953 0.249150
H11   H     H_    0.750863 0.240122 0.324609 0.182352
C21   C     C_3   0.120822 0.628403 0.304535 -0.624922
H12   H     H_    0.216629 0.674190 0.325912 0.231979
H13   H     H_    0.124196 0.533388 0.223712 0.227320
H14   H     H_    0.063513 0.687357 0.251620 0.269779
N3    N     N_R   0.868759 0.557543 0.264169 0.132301
O9    O     O_R   0.776821 0.608838 0.210742 -0.330045
O10   O     O_R   0.915894 0.469398 0.169760 -0.366037
C22   C     C_3   0.572894 0.843070 0.316773 -0.721037
H15   H     H_    0.607376 0.901807 0.254779 0.228773
H16   H     H_    0.644377 0.778301 0.330104 0.300206
H17   H     H_    0.485068 0.788571 0.251691 0.200770
C23   C     C_3   0.684763 0.132348 0.580478 -0.639180
H18   H     H_    0.742229 0.068072 0.624882 0.266378
H19   H     H_    0.738219 0.167046 0.511356 0.202073
H20   H     H_    0.668118 0.212987 0.673187 0.310373
C24   C     C_3   0.367682 0.040708 0.313162 -0.836539
H21   H     H_    0.305452 0.103459 0.272984 0.231135
H22   H     H_    0.396383 0.972919 0.215956 0.238336
H23   H     H_    0.314201 0.987493 0.366965 0.268625
N4    N     N_R   0.510948 0.336749 0.844363 0.141041
O11   O     O_R   0.588891 0.270490 0.897706 -0.360264
O12   O     O_R   0.408216 0.277142 0.762359 -0.414750
C25   C     C_3   0.128049 0.410627 0.718634 -0.698882
H24   H     H_    0.131388 0.428835 0.836988 0.239633
H25   H     H_    0.060589 0.326916 0.667801 0.244212
H26   H     H_    0.218721 0.378442 0.696018 0.260520
C26   C     C_3   0.349863 0.343531 0.053739 -0.381562
H27   H     H_    0.284879 0.330068 0.124743 0.192984
H28   H     H_    0.294605 0.368603 0.964272 0.166313
H29   H     H_    0.391541 0.251557 0.014025 0.242807
N5    N     N_R   0.906240 0.481790 0.764902 0.151076
O13   O     O_R   0.937662 0.525518 0.906174 -0.269641
O14   O     O_R   0.842269 0.371327 0.709084 -0.410933
N6    N     N_R   0.928938 0.691328 0.752584 0.142442
O15   O     O_R   0.997274 0.790401 0.754940 -0.308280
O16   O     O_R   0.836921 0.714363 0.824165 -0.251321
N7    N     N_R   0.134624 0.753806 0.552960 0.147585
O17   O     O_R   0.088877 0.860883 0.553967 -0.238554
O18   O     O_R   0.253958 0.764757 0.594256 -0.436036
N8    N     N_R   0.872313 0.737983 0.474715 0.169441
O19   O     O_R   0.787081 0.757278 0.555778 -0.377790
O20   O     O_R   0.883558 0.818026 0.403031 -0.289909
C27   C     C_3   0.115479 0.254523 0.397761 -0.834574
H30   H     H_    0.107905 0.191721 0.282744 0.238516
H31   H     H_    0.214885 0.269917 0.445338 0.235638
H32   H     H_    0.069282 0.196102 0.451698 0.265101

loop_
_geom_bond_atom_site_label_1
_geom_bond_atom_site_label_2
_geom_bond_distance
_ccdc_geom_bond_type
C25   H25   1.095536 S    
C23   H18   1.111900 S    
N4    O12   1.301127 A    
C6    C10   1.646841 S    
C11   N3    1.503562 S    
C14   C23   1.503354 S    
Cu1   Cu2   2.696338 S    
N6    O15   1.296078 A    
Cu1   O7    2.010086 S    
C2    C9    1.509841 S    
C8    C27   1.563633 S    
N5    O14   1.296676 A    
C6    N5    1.497510 S    
C4    C10   1.524685 S    
C15   C16   1.356211 D    
N2    C18   1.306586 D    
O4    C2    1.308582 A    
Cu2   O6    1.977651 S    
O7    C4    1.295997 A    
C27   H31   1.105432 S    
C25   H26   1.099760 S    
C12   C20   1.557805 S    
C8    C9    1.595800 S    
O5    C3    1.308133 A    
N1    C26   1.447765 S    
N1    C17   1.299229 D    
C12   H2    1.089379 S    
C3    C15   1.464262 S    
C26   H27   1.107088 S    
C21   H14   1.110816 S    
C20   H10   1.109916 S    
C25   H24   1.109900 S    
C24   H21   1.108033 S    
C10   C11   1.642418 S    
O3    Cu1   2.016436 S    
C21   H13   1.103337 S    
N6    O16   1.303814 A    
C10   C12   1.589375 S    
C24   H22   1.107775 S    
N5    O13   1.303020 A    
C22   H15   1.111599 S    
C17   C18   1.496237 S    
C1    C13   1.456896 S    
O3    C2    1.292747 A    
C27   H30   1.111974 S    
C13   C14   1.356933 D    
C5    C25   1.583729 S    
C27   H32   1.107782 S    
C7    N7    1.495058 S    
C8    C12   1.555074 S    
C22   H16   1.101328 S    
C5    C9    1.648448 S    
N8    O19   1.298978 A    
Cu2   O8    2.016436 S    
C20   H11   1.108427 S    
C26   H29   1.108765 S    
H5    N2    1.031136 S    
N7    O18   1.301681 A    
N3    O9    1.297793 A    
N8    O20   1.304849 A    
O8    C4    1.312871 A    
C23   H19   1.104738 S    
Cu1   N2    2.025691 S    
C5    C19   1.582022 S    
C21   H12   1.111354 S    
C16   C22   1.508874 S    
Cu1   O5    1.956492 S    
C20   H9    1.098989 S    
C24   H23   1.110907 S    
O1    Cu1   1.977651 S    
Cu2   N1    2.025652 S    
C19   H8    1.109327 S    
O2    Cu2   1.956492 S    
N7    O17   1.298496 A    
O6    C3    1.290351 A    
O4    Cu2   2.010086 S    
C26   H28   1.105308 S    
C7    C11   1.649009 S    
C22   H17   1.109356 S    
C11   N8    1.492029 S    
C19   H7    1.110653 S    
O2    C1    1.295824 A    
C7    C21   1.576558 S    
H4    C17   1.068640 S    
N3    O10   1.298245 A    
C7    C9    1.634595 S    
C8    H1    1.093817 S    
N4    O11   1.301415 A    
C14   C16   1.453452 S    
C19   H6    1.090118 S    
C23   H20   1.097619 S    
H3    C15   1.087259 S    
C6    N6    1.496526 S    
C18   N4    1.431576 S    
C13   C24   1.515424 S    
O1    C1    1.297317 A    
C5    C6    1.614662 S    
