data_mof_unit_30238.cif
_audit_creation_date              2012-12-10T16:49:22-0500
_audit_creation_method            fapswitch 2.2
_symmetry_space_group_name_H-M    P1
_symmetry_Int_Tables_number       1
_space_group_crystal_system       triclinic
_cell_length_a                    7.747941
_cell_length_b                    8.626507
_cell_length_c                    12.836653
_cell_angle_alpha                 89.955639
_cell_angle_beta                  86.874505
_cell_angle_gamma                 93.196828
_cell_volume                      855.356309249

loop_
_atom_site_label
_atom_site_type_symbol
_atom_type_description
_atom_site_fract_x
_atom_site_fract_y
_atom_site_fract_z
_atom_type_partial_charge
C1    C     C_R   0.455347 0.205759 0.497333 0.846685
C2    C     C_R   0.683680 0.399124 0.139305 -0.034860
C3    C     C_R   0.549623 0.422764 0.869228 0.641305
C4    C     C_R   0.450380 0.577231 0.130772 0.641322
C5    C     C_R   0.557126 0.448307 0.975304 -0.297715
C6    C     C_R   0.442875 0.551683 0.024698 -0.297692
C7    C     C_2   0.431182 0.043560 0.496237 0.310210
C8    C     C_2   0.568818 0.956440 0.503762 0.310202
C9    C     C_3   0.973388 0.400227 0.198091 -0.472368
C10   C     C_3   0.026637 0.599605 0.801859 -0.472285
C11   C     C_R   0.544653 0.794241 0.502666 0.846708
C12   C     C_R   0.463443 0.501558 0.699926 0.945378
C13   C     C_R   0.536556 0.498441 0.300075 0.945377
C14   C     C_R   0.562937 0.495155 0.188384 -0.300932
C15   C     C_R   0.437061 0.504838 0.811617 -0.300926
C16   C     C_R   0.320790 0.624862 0.967560 0.689637
C17   C     C_R   0.679204 0.375119 0.032445 0.689669
C18   C     C_R   0.316311 0.600860 0.860700 -0.034864
F1    F     F_    0.346175 0.680113 0.179425 -0.567656
F2    F     F_    0.653835 0.319890 0.820574 -0.567669
F3    F     F_    0.206050 0.719971 0.014428 -0.597136
F4    F     F_    0.793922 0.279986 0.985581 -0.597123
F5    F     F_    0.985459 0.647186 0.412949 -0.509161
F6    F     F_    0.014539 0.352791 0.587033 -0.509232
F7    F     F_    0.265545 0.984151 0.487758 -0.564235
F8    F     F_    0.734456 0.015849 0.512240 -0.564236
H1    H     H_    0.810947 0.205238 0.178667 0.280559
H2    H     H_    0.053952 0.340521 0.252895 0.226098
H3    H     H_    0.962795 0.522286 0.224012 0.290059
H4    H     H_    0.038580 0.399341 0.118815 0.236184
H5    H     H_    0.188876 0.794709 0.821441 0.280591
H6    H     H_    0.946001 0.659377 0.747128 0.226064
H7    H     H_    0.961451 0.600249 0.881150 0.236193
H8    H     H_    0.037350 0.477614 0.775798 0.290084
N1    N     N_2   0.054030 0.541640 0.471970 0.260142
N2    N     N_2   0.945970 0.458360 0.528030 0.260106
N3    N     N_2   0.803821 0.320968 0.197637 -0.283325
N4    N     N_2   0.196141 0.678997 0.802377 -0.283309
O1    O     O_R   0.609680 0.261530 0.506880 -0.561370
O2    O     O_R   0.390320 0.738470 0.493120 -0.561371
O3    O     O_R   0.323330 0.288220 0.488910 -0.549008
O4    O     O_R   0.676670 0.711780 0.511090 -0.549014
O5    O     O_R   0.619510 0.488830 0.661140 -0.584752
O6    O     O_R   0.380490 0.511170 0.338860 -0.584748
O7    O     O_R   0.333160 0.515520 0.643180 -0.592186
O8    O     O_R   0.666840 0.484480 0.356820 -0.592111
Zn1   Zn    Zn3+2 0.691200 0.482180 0.511990 1.188362
Zn2   Zn    Zn3+2 0.308800 0.517820 0.488010 1.188348

loop_
_geom_bond_atom_site_label_1
_geom_bond_atom_site_label_2
_ccdc_geom_bond_type
C15   C18   A    
H5    N4    S    
C16   F3    S    
C17   F4    S    
C12   O5    A    
C8    F8    S    
N1    N2    D    
C7    F7    S    
C12   C15   S    
C9    H3    S    
C10   N4    S    
C9    N3    S    
C18   N4    S    
C3    F2    S    
C10   H8    S    
C13   C14   S    
C2    C17   A    
C4    F1    S    
C2    N3    S    
F6    N2    S    
C9    H4    S    
H1    N3    S    
C8    C11   S    
C5    C6    A    
N1    Zn2   S    
C1    O3    A    
O3    Zn2   S    
C10   H7    S    
F5    N1    S    
O4    Zn1   S    
C4    C14   A    
C13   O8    A    
C2    C14   A    
C4    C6    A    
C5    C17   A    
C1    O1    A    
C6    C16   A    
C11   O2    A    
C10   H6    S    
C7    C8    D    
C3    C15   A    
N2    Zn1   S    
C16   C18   A    
O7    Zn2   S    
O2    Zn2   S    
O8    Zn1   S    
C11   O4    A    
C1    C7    S    
O1    Zn1   S    
O5    Zn1   S    
C13   O6    A    
O6    Zn2   S    
C9    H2    S    
C12   O7    A    
C3    C5    A    
