data_mof_unit_65563.cif
_audit_creation_date              2013-03-05T16:10:27-0500
_audit_creation_method            fapswitch 2.2
_symmetry_space_group_name_H-M    P1
_symmetry_Int_Tables_number       1
_space_group_crystal_system       monoclinic
_cell_length_a                    30.393112
_cell_length_b                    30.393111
_cell_length_c                    23.675662
_cell_angle_alpha                 90.0
_cell_angle_beta                  89.999988
_cell_angle_gamma                 90.0
_cell_volume                      21870.1850577

loop_
_atom_site_label
_atom_site_type_symbol
_atom_site_description
_atom_site_fract_x
_atom_site_fract_y
_atom_site_fract_z
_atom_type_partial_charge
O1    O     O_R   0.564260 0.037220 0.500020 -0.582322
O2    O     O_R   0.962780 0.564260 0.500020 -0.582321
O3    O     O_R   0.435740 0.962780 0.500020 -0.582320
O4    O     O_R   0.037220 0.435740 0.500020 -0.582320
O5    O     O_R   0.435740 0.037220 0.499980 -0.582320
O6    O     O_R   0.037220 0.564260 0.499980 -0.582321
O7    O     O_R   0.564260 0.962780 0.499980 -0.582322
O8    O     O_R   0.962780 0.435740 0.499980 -0.582320
O9    O     O_R   0.064260 0.537220 0.000020 -0.582321
O10   O     O_R   0.462780 0.064260 0.000020 -0.582320
O11   O     O_R   0.935740 0.462780 0.000020 -0.582322
O12   O     O_R   0.537220 0.935740 0.000020 -0.582322
O13   O     O_R   0.935740 0.537220 0.999980 -0.582322
O14   O     O_R   0.537220 0.064260 0.999980 -0.582321
O15   O     O_R   0.064260 0.462780 0.999980 -0.582320
O16   O     O_R   0.462780 0.935740 0.999980 -0.582322
C1    C     C_R   0.585133 1.000000 0.500000 0.831518
C2    C     C_R   1.000000 0.585133 0.500000 0.831517
C3    C     C_R   0.414866 0.000000 0.500000 0.831518
C4    C     C_R   1.000000 0.414866 0.500000 0.831518
C5    C     C_R   0.085134 0.500000 0.000000 0.831517
C6    C     C_R   0.500000 0.085133 0.000000 0.831517
C7    C     C_R   0.914866 0.500000 0.000000 0.831519
C8    C     C_R   0.500000 0.914866 0.000000 0.831519
O17   O     O_R   0.499990 0.037220 0.581420 -0.570658
O18   O     O_R   0.962780 0.499990 0.581420 -0.570658
O19   O     O_R   0.500010 0.962780 0.581420 -0.570657
O20   O     O_R   0.037220 0.500010 0.581420 -0.570658
O21   O     O_R   0.500010 0.037220 0.418580 -0.570657
O22   O     O_R   0.037220 0.499990 0.418580 -0.570658
O23   O     O_R   0.499990 0.962780 0.418580 -0.570658
O24   O     O_R   0.962780 0.500010 0.418580 -0.570657
O25   O     O_R   0.999990 0.537220 0.081420 -0.570658
O26   O     O_R   0.462780 0.999990 0.081420 -0.570657
O27   O     O_R   0.000010 0.462780 0.081420 -0.570658
O28   O     O_R   0.537220 0.000010 0.081420 -0.570659
O29   O     O_R   0.000010 0.537220 0.918580 -0.570658
O30   O     O_R   0.537220 0.999990 0.918580 -0.570658
O31   O     O_R   0.999990 0.462780 0.918580 -0.570657
O32   O     O_R   0.462780 0.000010 0.918580 -0.570658
C9    C     C_R   0.500000 0.000000 0.608143 0.815090
C10   C     C_R   1.000000 0.500000 0.608143 0.815090
C11   C     C_R   0.500000 1.000000 0.391856 0.815091
C12   C     C_R   0.000000 0.500000 0.391856 0.815090
C13   C     C_R   0.000000 0.500000 0.108143 0.815090
C14   C     C_R   0.500000 0.000000 0.108143 0.815090
C15   C     C_R   0.000000 0.500000 0.891857 0.815091
C16   C     C_R   0.500000 1.000000 0.891857 0.815091
Cu1   Cu    Cu3+1 0.500000 0.044070 0.500000 1.021179
Cu2   Cu    Cu3+1 0.955930 0.500000 0.500000 1.021178
Cu3   Cu    Cu3+1 0.500000 0.955930 0.500000 1.021178
Cu4   Cu    Cu3+1 0.044070 0.500000 0.500000 1.021179
Cu5   Cu    Cu3+1 1.000000 0.544070 0.000000 1.021179
Cu6   Cu    Cu3+1 0.455930 0.000000 0.000000 1.021179
Cu7   Cu    Cu3+1 0.000000 0.455930 0.000000 1.021179
Cu8   Cu    Cu3+1 0.544070 0.000000 0.000000 1.021178
C17   C     C_1   0.500000 0.000000 0.668998 -0.143213
C18   C     C_1   1.000000 0.500000 0.668998 -0.143212
C19   C     C_1   0.500000 1.000000 0.331002 -0.143212
C20   C     C_1   0.000000 0.500000 0.331002 -0.143212
C21   C     C_1   0.000000 0.500000 0.168998 -0.143212
C22   C     C_1   0.500000 1.000000 0.168998 -0.143212
C23   C     C_1   0.000000 0.500000 0.831001 -0.143212
C24   C     C_1   0.500000 0.000000 0.831001 -0.143212
C25   C     C_1   0.500000 1.000000 0.720064 0.030785
C26   C     C_1   1.000000 0.500000 0.720064 0.030785
C27   C     C_1   0.500000 1.000000 0.279936 0.030785
C28   C     C_1   0.000000 0.500000 0.279936 0.030785
C29   C     C_1   1.000000 0.500000 0.220064 0.030785
C30   C     C_1   0.500000 1.000000 0.220064 0.030785
C31   C     C_1   1.000000 0.500000 0.779936 0.030785
C32   C     C_1   0.500000 0.000000 0.779936 0.030785
C33   C     C_R   0.702758 0.960199 0.508897 0.311290
C34   C     C_R   0.039800 0.702758 0.508905 0.311294
C35   C     C_R   0.297242 0.039800 0.508908 0.311294
C36   C     C_R   0.960201 0.297242 0.508910 0.311294
C37   C     C_R   0.297242 0.960200 0.491092 0.311294
C38   C     C_R   0.960200 0.702758 0.491095 0.311293
C39   C     C_R   0.702758 0.039801 0.491103 0.311291
C40   C     C_R   0.039799 0.297242 0.491090 0.311294
C41   C     C_R   0.202758 0.460200 0.008910 0.311294
C42   C     C_R   0.539799 0.202758 0.008910 0.311294
C43   C     C_R   0.797242 0.539802 0.008893 0.311290
C44   C     C_R   0.460198 0.797242 0.008894 0.311290
C45   C     C_R   0.797242 0.460198 0.991107 0.311291
C46   C     C_R   0.460201 0.202758 0.991090 0.311294
C47   C     C_R   0.202758 0.539799 0.991090 0.311294
C48   C     C_R   0.539802 0.797242 0.991106 0.311290
C49   C     C_R   0.656737 0.960859 0.509280 -0.218618
C50   C     C_R   0.039140 0.656737 0.509288 -0.218618
C51   C     C_R   0.343263 0.039139 0.509291 -0.218618
C52   C     C_R   0.960861 0.343263 0.509293 -0.218618
C53   C     C_R   0.343263 0.960861 0.490709 -0.218618
C54   C     C_R   0.960860 0.656737 0.490712 -0.218618
C55   C     C_R   0.656737 0.039141 0.490720 -0.218618
C56   C     C_R   0.039139 0.343263 0.490707 -0.218618
C57   C     C_R   0.156737 0.460861 0.009292 -0.218618
C58   C     C_R   0.539139 0.156737 0.009292 -0.218618
C59   C     C_R   0.843263 0.539141 0.009276 -0.218618
C60   C     C_R   0.460859 0.843263 0.009277 -0.218618
C61   C     C_R   0.843263 0.460859 0.990724 -0.218618
C62   C     C_R   0.460861 0.156737 0.990707 -0.218618
C63   C     C_R   0.156737 0.539139 0.990708 -0.218618
C64   C     C_R   0.539141 0.843263 0.990723 -0.218619
H1    H     H_    0.638976 0.930424 0.516106 0.206424
H2    H     H_    0.069573 0.638976 0.516121 0.206422
H3    H     H_    0.361024 0.069573 0.516127 0.206421
H4    H     H_    0.930428 0.361024 0.516129 0.206421
H5    H     H_    0.361024 0.930427 0.483873 0.206421
H6    H     H_    0.930427 0.638976 0.483879 0.206422
H7    H     H_    0.638976 0.069576 0.483894 0.206424
H8    H     H_    0.069572 0.361024 0.483870 0.206421
H9    H     H_    0.138976 0.430428 0.016129 0.206421
H10   H     H_    0.569572 0.138976 0.016129 0.206421
H11   H     H_    0.861023 0.569577 0.016099 0.206425
H12   H     H_    0.430424 0.861023 0.016101 0.206425
H13   H     H_    0.861023 0.430423 0.983900 0.206425
H14   H     H_    0.430428 0.138976 0.983871 0.206421
H15   H     H_    0.138976 0.569572 0.983871 0.206421
H16   H     H_    0.569576 0.861023 0.983899 0.206425
C65   C     C_R   0.633551 1.000000 0.500000 -0.158299
C66   C     C_R   1.000000 0.633551 0.500000 -0.158298
C67   C     C_R   0.366449 1.000000 0.500000 -0.158297
C68   C     C_R   1.000000 0.366449 0.500000 -0.158298
C69   C     C_R   0.133551 0.500000 0.000000 -0.158297
C70   C     C_R   0.500000 0.133551 0.000000 -0.158298
C71   C     C_R   0.866449 0.500000 1.000000 -0.158299
C72   C     C_R   0.500000 0.866449 0.000000 -0.158300
C73   C     C_R   0.726010 1.000000 0.500000 -0.174713
C74   C     C_R   1.000000 0.726010 0.500000 -0.174714
C75   C     C_R   0.273990 1.000000 0.500000 -0.174713
C76   C     C_R   1.000000 0.273990 0.500000 -0.174713
C77   C     C_R   0.226010 0.500000 0.000000 -0.174713
C78   C     C_R   0.500000 0.226010 0.000000 -0.174713
C79   C     C_R   0.773990 0.500000 1.000000 -0.174714
C80   C     C_R   0.500000 0.773990 0.000000 -0.174714
C81   C     C_R   0.797270 0.006394 0.449430 -0.048279
C82   C     C_R   0.993610 0.797270 0.449429 -0.048280
C83   C     C_R   0.202730 0.993612 0.449429 -0.048280
C84   C     C_R   0.006387 0.202730 0.449429 -0.048280
C85   C     C_R   0.202730 0.006387 0.550571 -0.048280
C86   C     C_R   0.006390 0.797270 0.550571 -0.048280
C87   C     C_R   0.797270 0.993605 0.550570 -0.048280
C88   C     C_R   0.993613 0.202730 0.550571 -0.048280
C89   C     C_R   0.297270 0.506387 0.949429 -0.048279
C90   C     C_R   0.493613 0.297270 0.949429 -0.048280
C91   C     C_R   0.702730 0.493603 0.949431 -0.048280
C92   C     C_R   0.506396 0.702730 0.949431 -0.048279
C93   C     C_R   0.702730 0.506397 0.050569 -0.048279
C94   C     C_R   0.506387 0.297270 0.050571 -0.048279
C95   C     C_R   0.297270 0.493613 0.050571 -0.048280
C96   C     C_R   0.493604 0.702730 0.050569 -0.048280
H17   H     H_    0.779656 0.011330 0.410159 0.144452
H18   H     H_    0.988679 0.779656 0.410157 0.144453
H19   H     H_    0.220344 0.988682 0.410156 0.144453
H20   H     H_    0.011316 0.220344 0.410156 0.144454
H21   H     H_    0.220344 0.011318 0.589843 0.144453
H22   H     H_    0.011321 0.779656 0.589843 0.144453
H23   H     H_    0.779656 0.988669 0.589841 0.144452
H24   H     H_    0.988684 0.220344 0.589844 0.144453
H25   H     H_    0.279656 0.511317 0.910156 0.144454
H26   H     H_    0.488684 0.279656 0.910156 0.144453
H27   H     H_    0.720344 0.488665 0.910160 0.144452
H28   H     H_    0.511334 0.720344 0.910160 0.144452
H29   H     H_    0.720344 0.511335 0.089840 0.144452
H30   H     H_    0.511316 0.279656 0.089844 0.144454
H31   H     H_    0.279656 0.488683 0.089844 0.144453
H32   H     H_    0.488666 0.720344 0.089840 0.144452
C97   C     C_R   0.843104 0.006247 0.449363 -0.153888
C98   C     C_R   0.993758 0.843104 0.449362 -0.153887
C99   C     C_R   0.156896 0.993760 0.449362 -0.153888
C100  C     C_R   0.006239 0.156896 0.449362 -0.153890
C101  C     C_R   0.156896 0.006240 0.550638 -0.153889
C102  C     C_R   0.006242 0.843104 0.550638 -0.153890
C103  C     C_R   0.843104 0.993753 0.550637 -0.153888
C104  C     C_R   0.993761 0.156896 0.550638 -0.153888
C105  C     C_R   0.343104 0.506239 0.949362 -0.153887
C106  C     C_R   0.493761 0.343104 0.949362 -0.153891
C107  C     C_R   0.656896 0.493751 0.949364 -0.153890
C108  C     C_R   0.506248 0.656896 0.949364 -0.153886
C109  C     C_R   0.656896 0.506249 0.050636 -0.153887
C110  C     C_R   0.506239 0.343104 0.050638 -0.153887
C111  C     C_R   0.343104 0.493761 0.050638 -0.153891
C112  C     C_R   0.493751 0.656896 0.050636 -0.153890
H33   H     H_    0.860254 0.011240 0.409787 0.163409
H34   H     H_    0.988769 0.860254 0.409786 0.163410
H35   H     H_    0.139746 0.988772 0.409785 0.163410
H36   H     H_    0.011226 0.139746 0.409784 0.163410
H37   H     H_    0.139746 0.011228 0.590215 0.163410
H38   H     H_    0.011231 0.860254 0.590214 0.163410
H39   H     H_    0.860254 0.988760 0.590213 0.163409
H40   H     H_    0.988774 0.139746 0.590215 0.163411
H41   H     H_    0.360254 0.511227 0.909785 0.163411
H42   H     H_    0.488774 0.360254 0.909785 0.163410
H43   H     H_    0.639746 0.488756 0.909788 0.163408
H44   H     H_    0.511243 0.639746 0.909788 0.163409
H45   H     H_    0.639746 0.511244 0.090212 0.163409
H46   H     H_    0.511226 0.360254 0.090215 0.163411
H47   H     H_    0.360254 0.488773 0.090215 0.163410
H48   H     H_    0.488757 0.639746 0.090212 0.163408
C113  C     C_R   0.866401 0.000000 0.500000 -0.046779
C114  C     C_R   1.000000 0.866401 0.500000 -0.046780
C115  C     C_R   0.133599 1.000000 0.500000 -0.046780
C116  C     C_R   0.000000 0.133599 0.500000 -0.046781
C117  C     C_R   0.366401 0.500000 0.000000 -0.046781
C118  C     C_R   0.500000 0.366401 0.000000 -0.046781
C119  C     C_R   0.633599 0.500000 1.000000 -0.046778
C120  C     C_R   0.500000 0.633599 0.000000 -0.046778
C121  C     C_R   0.774289 0.000000 0.500000 0.192317
C122  C     C_R   1.000000 0.774289 0.500000 0.192315
C123  C     C_R   0.225711 1.000000 0.500000 0.192314
C124  C     C_R   0.000000 0.225711 0.500000 0.192314
C125  C     C_R   0.274289 0.500000 0.000000 0.192314
C126  C     C_R   0.500000 0.274289 0.000000 0.192314
C127  C     C_R   0.725711 0.500000 1.000000 0.192318
C128  C     C_R   0.500000 0.725711 0.000000 0.192318
O33   O     O_R   0.999990 0.935770 0.547120 -0.584374
O34   O     O_R   0.064230 0.999990 0.547120 -0.584374
O35   O     O_R   0.000010 0.064230 0.547120 -0.584373
O36   O     O_R   0.935770 0.000010 0.547120 -0.584372
O37   O     O_R   0.000010 0.935770 0.452880 -0.584372
O38   O     O_R   0.935770 0.999990 0.452880 -0.584373
O39   O     O_R   0.999990 0.064230 0.452880 -0.584375
O40   O     O_R   0.064230 0.000010 0.452880 -0.584373
O41   O     O_R   0.499990 0.435770 0.047120 -0.584373
O42   O     O_R   0.564230 0.499990 0.047120 -0.584371
O43   O     O_R   0.500010 0.564230 0.047120 -0.584374
O44   O     O_R   0.435770 0.500010 0.047120 -0.584375
O45   O     O_R   0.500010 0.435770 0.952880 -0.584375
O46   O     O_R   0.435770 0.499990 0.952880 -0.584372
O47   O     O_R   0.499990 0.564230 0.952880 -0.584371
O48   O     O_R   0.564230 0.500010 0.952880 -0.584374
C129  C     C_R   1.000000 0.914746 0.500000 0.811653
C130  C     C_R   0.085253 1.000000 0.500000 0.811653
C131  C     C_R   0.000000 0.085253 0.500000 0.811653
C132  C     C_R   0.914746 0.000000 0.500000 0.811652
C133  C     C_R   0.500000 0.414746 0.000000 0.811654
C134  C     C_R   0.585253 0.500000 0.000000 0.811651
C135  C     C_R   0.500000 0.585253 0.000000 0.811651
C136  C     C_R   0.414747 0.500000 0.000000 0.811654
Cu9   Cu    Cu3+1 1.000000 1.000000 0.555800 0.999267
Cu10  Cu    Cu3+1 0.000000 0.000000 0.444200 0.999267
Cu11  Cu    Cu3+1 0.500000 0.500000 0.055800 0.999267
Cu12  Cu    Cu3+1 0.500000 0.500000 0.944200 0.999268
N1    N     N_R   0.725144 0.918862 0.516850 0.133383
O49   O     O_R   0.707335 0.888212 0.547690 -0.317889
O50   O     O_R   0.760527 0.909589 0.488283 -0.322518
N2    N     N_R   0.081135 0.725144 0.516868 0.133382
O51   O     O_R   0.111781 0.707335 0.547715 -0.317890
O52   O     O_R   0.090412 0.760526 0.488301 -0.322517
N3    N     N_R   0.274856 0.081135 0.516874 0.133381
O53   O     O_R   0.292665 0.111778 0.547725 -0.317891
O54   O     O_R   0.239474 0.090413 0.488309 -0.322516
N4    N     N_R   0.918866 0.274856 0.516877 0.133381
O55   O     O_R   0.888223 0.292665 0.547729 -0.317891
O56   O     O_R   0.909587 0.239474 0.488312 -0.322516
N5    N     N_R   0.274856 0.918865 0.483125 0.133381
O57   O     O_R   0.292665 0.888222 0.452275 -0.317892
O58   O     O_R   0.239474 0.909587 0.511691 -0.322516
N6    N     N_R   0.918864 0.725144 0.483132 0.133382
O59   O     O_R   0.888219 0.707335 0.452285 -0.317890
O60   O     O_R   0.909588 0.760526 0.511699 -0.322517
N7    N     N_R   0.725144 0.081138 0.483150 0.133383
O61   O     O_R   0.707335 0.111788 0.452310 -0.317888
O62   O     O_R   0.760527 0.090411 0.511717 -0.322518
N8    N     N_R   0.081134 0.274856 0.483122 0.133381
O63   O     O_R   0.111777 0.292665 0.452271 -0.317892
O64   O     O_R   0.090413 0.239474 0.511688 -0.322516
N9    N     N_R   0.225144 0.418866 0.016877 0.133381
O65   O     O_R   0.207335 0.388223 0.047728 -0.317891
O66   O     O_R   0.260526 0.409587 0.988311 -0.322516
N10   N     N_R   0.581134 0.225144 0.016877 0.133381
O67   O     O_R   0.611777 0.207335 0.047729 -0.317891
O68   O     O_R   0.590413 0.260526 0.988312 -0.322516
N11   N     N_R   0.774856 0.581139 0.016842 0.133384
O69   O     O_R   0.792665 0.611791 0.047679 -0.317886
O70   O     O_R   0.739472 0.590410 0.988274 -0.322520
N12   N     N_R   0.418861 0.774856 0.016844 0.133383
O71   O     O_R   0.388210 0.792665 0.047681 -0.317888
O72   O     O_R   0.409590 0.739473 0.988276 -0.322518
N13   N     N_R   0.774856 0.418861 0.983158 0.133383
O73   O     O_R   0.792665 0.388209 0.952321 -0.317887
O74   O     O_R   0.739472 0.409590 0.011726 -0.322518
N14   N     N_R   0.418866 0.225144 0.983123 0.133381
O75   O     O_R   0.388223 0.207335 0.952271 -0.317892
O76   O     O_R   0.409587 0.260526 0.011688 -0.322515
N15   N     N_R   0.225144 0.581134 0.983123 0.133381
O77   O     O_R   0.207335 0.611777 0.952272 -0.317890
O78   O     O_R   0.260526 0.590413 0.011689 -0.322516
N16   N     N_R   0.581139 0.774856 0.983156 0.133383
O79   O     O_R   0.611790 0.792665 0.952319 -0.317887
O80   O     O_R   0.590410 0.739472 0.011724 -0.322519

loop_
_geom_bond_atom_site_label_1
_geom_bond_atom_site_label_2
_geom_bond_distance
_ccdc_geom_bond_type
C96   C112  1.393031 A    
C48   C64   1.398883 A    
O14   Cu8   1.964123 S    
N1    O50   1.301301 A    
C40   C76   1.416735 A    
O2    C2    1.296986 A    
O25   C13   1.296143 A    
C47   C77   1.416736 A    
O46   C136  1.285628 A    
N11   O69   1.301489 A    
C76   C124  1.467352 S    
C87   C103  1.393028 A    
C3    C67   1.471562 S    
C109  H45   1.082899 S    
C10   C18   1.440782 S    
C60   C72   1.400016 A    
O38   Cu10  1.962937 S    
O11   Cu7   1.964127 S    
N7    O61   1.301489 A    
C87   C121  1.399673 A    
O21   Cu1   1.938885 S    
C53   H5    1.083123 S    
O10   C6    1.296986 A    
C51   C67   1.400010 A    
C89   C105  1.393028 A    
C106  H42   1.082898 S    
C18   C26   1.209021 T    
O8    C4    1.296986 A    
O23   C11   1.296146 A    
C14   C22   1.440782 S    
C40   N8    1.441106 S    
C42   N10   1.441106 S    
N14   O75   1.301484 A    
C109  C119  1.405235 A    
C47   N15   1.441105 S    
O41   C133  1.285626 A    
O44   C136  1.285626 A    
C116  C131  1.469367 S    
C91   C127  1.399674 A    
C88   C104  1.393028 A    
O18   Cu2   1.938883 S    
C15   C23   1.440782 S    
C35   N3    1.441108 S    
C41   C77   1.416739 A    
N3    O54   1.301299 A    
C33   N1    1.441111 S    
O39   Cu10  1.962934 S    
C21   C29   1.209021 T    
Cu11  Cu12  2.642202 S    
C94   H30   1.083317 S    
O6    Cu4   1.964123 S    
C102  C114  1.405234 A    
C39   N7    1.441111 S    
C22   C30   1.209021 T    
O47   C135  1.285628 A    
N5    O57   1.301487 A    
C37   C75   1.416740 A    
O34   Cu9   1.962934 S    
O11   C7    1.296986 A    
C100  C116  1.405234 A    
C104  C116  1.405233 A    
O40   C130  1.285628 A    
O2    Cu2   1.964123 S    
C119  C134  1.469364 S    
C19   C27   1.209021 T    
C52   H4    1.083119 S    
O31   Cu7   1.938885 S    
N15   O77   1.301485 A    
O19   Cu3   1.938882 S    
C28   C29   1.417488 S    
Cu1   Cu3   2.678852 S    
O17   Cu1   1.938882 S    
C60   H12   1.083120 S    
Cu2   Cu4   2.678852 S    
O30   Cu8   1.938885 S    
N15   O78   1.301300 A    
C62   C70   1.400013 A    
C83   C99   1.393028 A    
O26   C14   1.296146 A    
O45   C133  1.285628 A    
O20   C10   1.296143 A    
C88   H24   1.083317 S    
C36   N4    1.441105 S    
C97   H33   1.082900 S    
C85   C123  1.399672 A    
C110  H46   1.082900 S    
C43   C79   1.416738 A    
C62   H14   1.083121 S    
C101  C115  1.405236 A    
C35   C51   1.398880 A    
O29   Cu5   1.938885 S    
C13   C21   1.440782 S    
C94   C126  1.399671 A    
C38   N6    1.441106 S    
C89   C125  1.399671 A    
C46   C78   1.416738 A    
O37   C129  1.285628 A    
O16   C8    1.296986 A    
C45   N13   1.441108 S    
N1    O49   1.301491 A    
O21   C11   1.296143 A    
O48   C134  1.285628 A    
C50   C66   1.400010 A    
O5    Cu1   1.964127 S    
C36   C52   1.398883 A    
C86   H22   1.083316 S    
C64   C72   1.400014 A    
C43   N11   1.441111 S    
C92   C128  1.399673 A    
C120  C135  1.469364 S    
C45   C79   1.416741 A    
C96   H32   1.083318 S    
O13   C7    1.296983 A    
N2    O52   1.301300 A    
O4    Cu4   1.964127 S    
C33   C73   1.416740 A    
O33   Cu9   1.962937 S    
O37   Cu10  1.962937 S    
Cu5   Cu7   2.678852 S    
C84   H20   1.083314 S    
O25   Cu5   1.938882 S    
O6    C2    1.296983 A    
C79   C127  1.467352 S    
C9    C17   1.440782 S    
C98   C114  1.405236 A    
C42   C58   1.398879 A    
O27   Cu7   1.938882 S    
C44   C60   1.398883 A    
C51   H3    1.083121 S    
N3    O53   1.301486 A    
C93   H29   1.083317 S    
C48   C80   1.416739 A    
C115  C130  1.469367 S    
C57   C69   1.400012 A    
O1    Cu1   1.964124 S    
O33   C129  1.285626 A    
C93   C109  1.393028 A    
O23   Cu3   1.938885 S    
O45   Cu12  1.962937 S    
C56   C68   1.400011 A    
N10   O67   1.301484 A    
C113  C132  1.469364 S    
C59   C71   1.400013 A    
C83   C123  1.399673 A    
N13   O73   1.301490 A    
N8    O64   1.301301 A    
C101  H37   1.082899 S    
C82   C122  1.399672 A    
C111  H47   1.082898 S    
O35   Cu9   1.962934 S    
C20   C28   1.209021 T    
C44   N12   1.441111 S    
C110  C118  1.405232 A    
C92   H28   1.083316 S    
C40   C56   1.398880 A    
C42   C78   1.416735 A    
C117  C136  1.469367 S    
C93   C127  1.399675 A    
O13   Cu5   1.964127 S    
C39   C55   1.398880 A    
N4    O55   1.301484 A    
O28   Cu8   1.938882 S    
C73   C121  1.467352 S    
O35   C131  1.285626 A    
C91   H27   1.083319 S    
O7    Cu3   1.964124 S    
C34   N2    1.441106 S    
C55   C65   1.400012 A    
O19   C9    1.296146 A    
C43   C59   1.398883 A    
N4    O56   1.301299 A    
C26   C31   1.417488 S    
C105  C117  1.405235 A    
C107  C119  1.405234 A    
C83   H19   1.083315 S    
O43   C135  1.285626 A    
O3    C3    1.296986 A    
C98   H34   1.082899 S    
C41   N9    1.441104 S    
O24   C12   1.296146 A    
C81   H17   1.083318 S    
N12   O71   1.301489 A    
O12   Cu8   1.964127 S    
C12   C20   1.440782 S    
O28   C14   1.296143 A    
C50   H2    1.083120 S    
C90   C126  1.399673 A    
O39   C131  1.285628 A    
C102  H38   1.082899 S    
C90   H26   1.083317 S    
C47   C63   1.398880 A    
C54   C66   1.400013 A    
N6    O60   1.301300 A    
C49   H1    1.083125 S    
C104  H40   1.082900 S    
C2    C66   1.471565 S    
C48   N16   1.441108 S    
C105  H41   1.082898 S    
O32   Cu6   1.938885 S    
N14   O76   1.301301 A    
N9    O66   1.301299 A    
C75   C123  1.467352 S    
C111  C117  1.405233 A    
N12   O72   1.301301 A    
O15   C5    1.296986 A    
C74   C122  1.467355 S    
O29   C15   1.296143 A    
C86   C122  1.399669 A    
C16   C24   1.440782 S    
C57   H9    1.083123 S    
O27   C13   1.296146 A    
C34   C74   1.416735 A    
O8    Cu2   1.964127 S    
C88   C124  1.399671 A    
C45   C61   1.398883 A    
N2    O51   1.301485 A    
C84   C124  1.399673 A    
N16   O80   1.301302 A    
O31   C15   1.296146 A    
C38   C54   1.398883 A    
C64   H16   1.083120 S    
C85   C101  1.393028 A    
N7    O62   1.301300 A    
O22   Cu4   1.938885 S    
O32   C16   1.296146 A    
C44   C80   1.416739 A    
O3    Cu3   1.964127 S    
C49   C65   1.400014 A    
N11   O70   1.301302 A    
C41   C57   1.398880 A    
O48   Cu12  1.962934 S    
O30   C16   1.296143 A    
C81   C97   1.393028 A    
O36   C132  1.285626 A    
C103  C113  1.405236 A    
C63   H15   1.083123 S    
O41   Cu11  1.962937 S    
C53   C67   1.400013 A    
C23   C31   1.209021 T    
N6    O59   1.301485 A    
C94   C110  1.393028 A    
O7    C1    1.296986 A    
O34   C130  1.285626 A    
C92   C108  1.393031 A    
C96   C128  1.399672 A    
C46   C62   1.398879 A    
O42   C134  1.285626 A    
Cu6   Cu8   2.678852 S    
C95   C111  1.393028 A    
C112  H48   1.082899 S    
O5    C3    1.296983 A    
O40   Cu10  1.962934 S    
C11   C19   1.440782 S    
N13   O74   1.301302 A    
C25   C32   1.417488 S    
O36   Cu9   1.962937 S    
O12   C8    1.296983 A    
C7    C71   1.471568 S    
O1    C1    1.296983 A    
C78   C126  1.467352 S    
C99   H35   1.082899 S    
C107  H43   1.082899 S    
C27   C30   1.417488 S    
C77   C125  1.467352 S    
C61   H13   1.083123 S    
O14   C6    1.296983 A    
C52   C68   1.400011 A    
O47   Cu12  1.962934 S    
C38   C74   1.416738 A    
C82   C98   1.393028 A    
C33   C49   1.398880 A    
C55   H7    1.083125 S    
C36   C76   1.416737 A    
C114  C129  1.469367 S    
O43   Cu11  1.962934 S    
O20   Cu4   1.938882 S    
O26   Cu6   1.938883 S    
O9    C5    1.296983 A    
O42   Cu11  1.962934 S    
O44   Cu11  1.962937 S    
C89   H25   1.083317 S    
C100  H36   1.082900 S    
Cu9   Cu10  2.642202 S    
C95   H31   1.083315 S    
C34   C50   1.398883 A    
C106  C118  1.405237 A    
C59   H11   1.083123 S    
C37   C53   1.398880 A    
C61   C71   1.400016 A    
C86   C102  1.393028 A    
C54   H6    1.083120 S    
C108  H44   1.082899 S    
O24   Cu2   1.938885 S    
C118  C133  1.469367 S    
O22   C12   1.296143 A    
C87   H23   1.083316 S    
C24   C32   1.209021 T    
O18   C10   1.296146 A    
C99   C115  1.405234 A    
O10   Cu6   1.964123 S    
C103  H39   1.082899 S    
O16   Cu6   1.964127 S    
C4    C68   1.471561 S    
O46   Cu12  1.962937 S    
N8    O63   1.301482 A    
C84   C100  1.393028 A    
C97   C113  1.405236 A    
O4    C4    1.296983 A    
C91   C107  1.393028 A    
C58   C70   1.400010 A    
O9    Cu5   1.964124 S    
C85   H21   1.083318 S    
C1    C65   1.471568 S    
O38   C132  1.285628 A    
N10   O68   1.301301 A    
O17   C9    1.296143 A    
C95   C125  1.399672 A    
C81   C121  1.399672 A    
C8    C72   1.471568 S    
C46   N14   1.441106 S    
C112  C120  1.405234 A    
N16   O79   1.301492 A    
C37   N5    1.441106 S    
C6    C70   1.471561 S    
C58   H10   1.083121 S    
N5    O58   1.301300 A    
C82   H18   1.083316 S    
N9    O65   1.301486 A    
C63   C69   1.400009 A    
C5    C69   1.471562 S    
C35   C75   1.416738 A    
C56   H8    1.083121 S    
C17   C25   1.209021 T    
O15   Cu7   1.964124 S    
C108  C120  1.405235 A    
C80   C128  1.467352 S    
C90   C106  1.393028 A    
C39   C73   1.416738 A    
