data_mof_unit_29013.cif
_audit_creation_date              2012-12-10T17:12:35-0500
_audit_creation_method            fapswitch 2.2
_symmetry_space_group_name_H-M    P1
_symmetry_Int_Tables_number       1
_space_group_crystal_system       triclinic
_cell_length_a                    23.119869
_cell_length_b                    10.571815
_cell_length_c                    10.010843
_cell_angle_alpha                 92.682947
_cell_angle_beta                  88.815033
_cell_angle_gamma                 89.909119
_cell_volume                      2443.62722264

loop_
_atom_site_label
_atom_site_type_symbol
_atom_type_description
_atom_site_fract_x
_atom_site_fract_y
_atom_site_fract_z
_atom_type_partial_charge
C1    C     C_R   0.502405 0.261522 0.496073 0.973722
C2    C     C_R   0.124900 0.428980 0.363320 0.547469
C3    C     C_R   0.227223 0.509392 0.558562 -0.157453
C4    C     C_R   0.388986 0.498109 0.500892 0.937827
C5    C     C_R   0.285152 0.545505 0.565177 0.059410
C6    C     C_R   0.327413 0.467394 0.499687 -0.206361
C7    C     C_R   0.310967 0.355484 0.429077 0.531364
C8    C     C_R   0.252863 0.319623 0.422908 0.092395
C9    C     C_R   0.211006 0.398824 0.487175 0.165991
C10   C     C_R   0.753139 0.355322 0.399043 0.138354
C11   C     C_R   0.694254 0.382445 0.408646 -0.294752
C12   C     C_R   0.966333 0.263103 0.660370 -0.141446
C13   C     C_R   0.673189 0.482386 0.492743 -0.156156
C14   C     C_R   0.711346 0.558871 0.569554 -0.001435
C15   C     C_R   0.770706 0.531449 0.559765 0.629864
C16   C     C_R   0.490656 0.736724 0.504380 0.874918
C17   C     C_R   0.791347 0.430704 0.475724 0.131210
C18   C     C_2   0.453175 0.932008 0.412185 0.127979
C19   C     C_2   0.468814 0.867095 0.520387 -0.056893
C20   C     C_2   0.458814 0.070044 0.418187 -0.131004
C21   C     C_2   0.502277 0.126862 0.483200 -0.428560
C22   C     C_2   0.527640 0.582407 0.926755 -0.170962
C23   C     C_R   0.026508 0.256493 0.660767 -0.133820
C24   C     C_2   0.534830 0.569793 0.074502 0.181918
C25   C     C_R   0.610851 0.500102 0.498616 0.918762
C26   C     C_R   0.883062 0.458617 0.363589 0.598494
C27   C     C_R   0.878090 0.342010 0.562527 0.560118
C28   C     C_R   0.938220 0.326773 0.560181 -0.001301
C29   C     C_R   0.970959 0.379836 0.456565 -0.017919
C30   C     C_R   0.943119 0.443989 0.355718 -0.124539
C31   C     C_3   0.690124 0.670563 0.658359 -0.345713
C32   C     C_3   0.670098 0.779882 0.575862 -0.849256
C33   C     C_3   0.437004 0.867112 0.278375 -0.388265
C34   C     C_R   0.059586 0.313037 0.560707 0.009679
C35   C     C_3   0.392494 0.939650 0.200567 -0.868526
C36   C     C_3   0.465670 0.926748 0.664650 -0.393651
C37   C     C_3   0.421288 0.865407 0.756600 -0.849486
C38   C     C_3   0.585052 0.643099 0.133328 -0.361595
C39   C     C_3   0.641770 0.571188 0.106870 -0.805784
C40   C     C_3   0.299116 0.674071 0.627505 -0.395065
C41   C     C_3   0.301522 0.772191 0.520330 -0.849028
C42   C     C_3   0.236501 0.198738 0.345918 -0.311514
C43   C     C_3   0.250247 0.083113 0.425343 -0.837708
C44   C     C_3   0.773630 0.243996 0.309651 -0.380483
C45   C     C_R   0.031738 0.372501 0.456316 -0.090304
C46   C     C_3   0.765854 0.269052 0.162052 -0.776766
C47   C     C_R   0.064524 0.428576 0.354408 -0.172947
C48   C     C_R   0.035994 0.487073 0.250474 0.680913
C49   C     C_R   0.975874 0.494889 0.251854 -0.234502
C50   C     C_R   0.119961 0.316748 0.565262 0.534761
F1    F     F_    0.809259 0.603650 0.629812 -0.652842
F2    F     F_    0.065765 0.540052 0.149062 -0.604330
F3    F     F_    0.351671 0.282380 0.363280 -0.703434
H1    H     H_    0.942031 0.220805 0.740401 0.193773
H2    H     H_    0.193804 0.570638 0.603494 0.167355
H3    H     H_    0.705898 0.810511 0.509157 0.277465
H4    H     H_    0.632430 0.752053 0.514305 0.240797
H5    H     H_    0.656960 0.861285 0.643944 0.243038
H6    H     H_    0.654578 0.641160 0.726152 0.207493
H7    H     H_    0.724876 0.706774 0.724782 0.260801
H8    H     H_    0.354250 0.964671 0.265370 0.279525
H9    H     H_    0.411864 0.026642 0.160837 0.270138
H10   H     H_    0.377872 0.879248 0.114018 0.252596
H11   H     H_    0.476691 0.852848 0.214863 0.217765
H12   H     H_    0.664293 0.323269 0.352008 0.171233
H13   H     H_    0.417179 0.773455 0.294973 0.226012
H14   H     H_    0.377130 0.882646 0.721209 0.260904
H15   H     H_    0.428331 0.762657 0.765089 0.282303
H16   H     H_    0.424199 0.910291 0.858805 0.243047
H17   H     H_    0.509138 0.921523 0.709544 0.204340
H18   H     H_    0.452506 0.027511 0.669252 0.237158
H19   H     H_    0.639174 0.475419 0.147621 0.269707
H20   H     H_    0.651419 0.561393 0.997683 0.246506
H21   H     H_    0.677717 0.623739 0.155927 0.259151
H22   H     H_    0.588253 0.736604 0.087342 0.163850
H23   H     H_    0.427564 0.126195 0.367851 0.244192
H24   H     H_    0.579552 0.665566 0.240771 0.260522
H25   H     H_    0.338945 0.753020 0.451319 0.253253
H26   H     H_    0.261109 0.769729 0.462118 0.279175
H27   H     H_    0.305915 0.868571 0.567383 0.251757
H28   H     H_    0.265454 0.703432 0.703713 0.223947
H29   H     H_    0.340564 0.671161 0.680534 0.214998
H30   H     H_    0.296996 0.079873 0.448278 0.277577
H31   H     H_    0.224628 0.085866 0.520523 0.286750
H32   H     H_    0.238989 0.995659 0.365876 0.250224
H33   H     H_    0.189790 0.196662 0.322589 0.205279
H34   H     H_    0.535603 0.074817 0.532422 0.142217
H35   H     H_    0.260425 0.192214 0.248370 0.240902
H36   H     H_    0.719415 0.282335 0.140095 0.242330
H37   H     H_    0.790206 0.354804 0.134780 0.300359
H38   H     H_    0.782527 0.186974 0.099407 0.253580
H39   H     H_    0.819839 0.221563 0.325191 0.209614
H40   H     H_    0.748563 0.158438 0.335021 0.207060
H41   H     H_    0.549624 0.659264 0.878612 0.166587
H42   H     H_    0.484480 0.422256 0.895728 0.170463
H43   H     H_    0.047000 0.209506 0.741272 0.195007
H44   H     H_    0.465198 0.461300 0.102287 0.158120
H45   H     H_    0.955162 0.543020 0.172410 0.221359
N1    N     N_R   0.852186 0.408563 0.466249 -0.333510
N2    N     N_R   0.150805 0.376674 0.469268 -0.352974
N3    N     N_2   0.500610 0.501330 0.852150 -0.204614
N4    N     N_2   0.500630 0.501360 0.147810 -0.205634
O1    O     O_R   0.499990 0.319060 0.613040 -0.609766
O2    O     O_R   0.583840 0.500020 0.613040 -0.608182
O3    O     O_R   0.583850 0.500060 0.386900 -0.622689
O4    O     O_2   0.855681 0.524137 0.271052 -0.555308
O5    O     O_2   0.845718 0.292422 0.660779 -0.552385
O6    O     O_2   0.147674 0.264088 0.666256 -0.548065
O7    O     O_2   0.157732 0.484064 0.269447 -0.470415
O8    O     O_R   0.500010 0.319100 0.386900 -0.581946
O9    O     O_R   0.416150 0.499940 0.613100 -0.623390
O10   O     O_R   0.416160 0.499980 0.386960 -0.578094
O11   O     O_R   0.499990 0.680900 0.613100 -0.601004
O12   O     O_R   0.500010 0.680940 0.386960 -0.664092
Zn1   Zn    Zn3+2 0.499990 0.499970 0.650990 0.936009
Zn2   Zn    Zn3+2 0.500010 0.500030 0.349010 0.944479

loop_
_geom_bond_atom_site_label_1
_geom_bond_atom_site_label_2
_ccdc_geom_bond_type
C21   H34   S    
C2    O7    S    
C1    C21   S    
C37   H16   S    
C43   H30   S    
O3    Zn2   S    
C32   H5    S    
C14   C31   S    
C16   O11   A    
C26   O4    S    
C41   H27   S    
C25   O3    A    
C7    C8    A    
C46   H36   S    
C12   C23   A    
C27   N1    A    
C22   N3    D    
C12   C28   A    
C36   C37   S    
C8    C42   S    
C19   C36   S    
C16   C19   S    
C38   C39   S    
C10   C17   A    
C37   H15   S    
C23   H43   S    
C20   H23   S    
C18   C19   D    
C39   H21   S    
C31   H6    S    
C44   H40   S    
C49   H45   S    
C3    H2    S    
C31   C32   S    
C44   C46   S    
C8    C9    A    
C24   C38   S    
C39   H19   S    
C42   H33   S    
C15   F1    S    
C1    O1    A    
C18   C20   S    
H44   N4    S    
C44   H39   S    
C36   H18   S    
C26   N1    A    
C35   H10   S    
C4    O10   A    
C2    N2    A    
C13   C14   A    
C50   O6    S    
C43   H31   S    
C22   H41   S    
C13   C25   S    
C32   H4    S    
C36   H17   S    
C33   H13   S    
C38   H22   S    
C45   C47   A    
C34   C50   A    
C10   C44   S    
C43   H32   S    
C40   H29   S    
C4    C6    S    
C41   H25   S    
C40   C41   S    
C46   H38   S    
C29   C45   A    
C31   H7    S    
O1    Zn1   S    
C29   C30   A    
C3    C9    A    
C1    O8    A    
O2    Zn1   S    
C47   C48   A    
C27   O5    S    
C23   C34   A    
C35   H8    S    
C34   C45   A    
C17   N1    S    
C48   C49   A    
C30   C49   A    
C26   C30   A    
C9    N2    S    
N3    Zn1   S    
C22   C24   S    
C42   H35   S    
C42   C43   S    
C7    F3    S    
O8    Zn2   S    
O10   Zn2   S    
C15   C17   A    
C28   C29   A    
C40   H28   S    
C4    O9    A    
C3    C5    A    
C16   O12   A    
C41   H26   S    
O12   Zn2   S    
C25   O2    A    
C6    C7    A    
C46   H37   S    
C38   H24   S    
C2    C47   A    
C50   N2    A    
C11   C13   A    
C5    C6    A    
C33   H11   S    
C37   H14   S    
C33   C35   S    
C35   H9    S    
C24   N4    D    
C39   H20   S    
C18   C33   S    
N4    Zn2   S    
C10   C11   A    
C11   H12   S    
C48   F2    S    
C20   C21   D    
C5    C40   S    
C27   C28   A    
C14   C15   A    
O9    Zn1   S    
C32   H3    S    
C12   H1    S    
H42   N3    S    
O11   Zn1   S    
