data_mof_unit_18271.cif
_audit_creation_date              2012-12-10T17:12:37-0500
_audit_creation_method            fapswitch 2.2
_symmetry_space_group_name_H-M    P1
_symmetry_Int_Tables_number       1
_space_group_crystal_system       triclinic
_cell_length_a                    23.402099
_cell_length_b                    10.712308
_cell_length_c                    10.028189
_cell_angle_alpha                 91.122591
_cell_angle_beta                  90.629342
_cell_angle_gamma                 90.207393
_cell_volume                      2513.31900343

loop_
_atom_site_label
_atom_site_type_symbol
_atom_type_description
_atom_site_fract_x
_atom_site_fract_y
_atom_site_fract_z
_atom_type_partial_charge
C1    C     C_R   0.497338 0.262902 0.498409 0.794269
C2    C     C_R   0.969164 0.289544 0.410513 -0.157666
C3    C     C_R   0.028433 0.291518 0.405422 -0.176135
C4    C     C_R   0.059012 0.398103 0.448345 -0.010814
C5    C     C_R   0.029716 0.505021 0.495091 -0.031784
C6    C     C_R   0.060271 0.613336 0.537722 -0.071271
C7    C     C_R   0.029491 0.722401 0.576167 -0.008193
C8    C     C_R   0.969834 0.717854 0.581174 -0.209407
C9    C     C_R   0.118472 0.400403 0.445755 0.528022
C10   C     C_R   0.120398 0.606337 0.542103 0.523918
C11   C     C_R   0.237499 0.521756 0.375047 0.585461
C12   C     C_R   0.389339 0.499654 0.499295 0.895393
C13   C     C_R   0.297333 0.523189 0.378216 -0.331809
C14   C     C_R   0.327045 0.498823 0.497178 -0.101336
C15   C     C_R   0.296922 0.474500 0.613925 -0.226239
C16   C     C_R   0.237692 0.475673 0.612068 -0.201704
C17   C     C_R   0.208237 0.500483 0.493701 0.245656
C18   C     C_R   0.761669 0.443315 0.608017 -0.123846
C19   C     C_R   0.702345 0.443017 0.606710 -0.234884
C20   C     C_R   0.672528 0.498778 0.501660 -0.023443
C21   C     C_R   0.702318 0.553410 0.397126 -0.217689
C22   C     C_R   0.761607 0.553952 0.398861 -0.106624
C23   C     C_R   0.503165 0.737207 0.501326 0.927142
C24   C     C_R   0.791117 0.499139 0.504334 0.329291
C25   C     C_2   0.515446 0.932249 0.393231 -0.139196
C26   C     C_2   0.512953 0.868216 0.505296 -0.246963
C27   C     C_2   0.518189 0.066386 0.401415 -0.286145
C28   C     C_2   0.488043 0.130949 0.492195 0.393030
C29   C     C_2   0.532141 0.573943 0.928616 0.001245
C30   C     C_2   0.526700 0.582845 0.077909 -0.171602
C31   C     C_R   0.610517 0.499595 0.500572 0.870159
C32   C     C_R   0.880149 0.605311 0.546091 0.505239
C33   C     C_R   0.879804 0.395106 0.461560 0.501222
C34   C     C_R   0.939409 0.394747 0.456971 -0.013886
C35   C     C_R   0.969658 0.503121 0.498618 -0.020183
C36   C     C_R   0.939831 0.609342 0.543475 -0.025931
H1    H     H_    0.946792 0.205624 0.377438 0.190667
H2    H     H_    0.679812 0.398528 0.686774 0.152235
H3    H     H_    0.679799 0.596822 0.315337 0.155481
H4    H     H_    0.784726 0.596693 0.318575 0.136360
H5    H     H_    0.515445 0.887133 0.295231 0.167271
H6    H     H_    0.518281 0.913193 0.602596 0.187962
H7    H     H_    0.545058 0.113099 0.329800 0.142415
H8    H     H_    0.468092 0.452756 0.895811 0.152169
H9    H     H_    0.548288 0.659395 0.130381 0.163421
H10   H     H_    0.050163 0.209058 0.368302 0.180318
H11   H     H_    0.484307 0.423465 0.099476 0.161983
H12   H     H_    0.946764 0.801318 0.610876 0.192425
H13   H     H_    0.320532 0.545776 0.289054 0.174424
H14   H     H_    0.319057 0.454854 0.706544 0.166487
H15   H     H_    0.214477 0.457695 0.702584 0.151037
H16   H     H_    0.784803 0.400436 0.689132 0.138521
N1    N     N_R   0.851804 0.499452 0.505246 -0.359016
N2    N     N_R   0.147472 0.502512 0.493773 -0.331612
N3    N     N_2   0.500610 0.501330 0.852150 -0.210413
N4    N     N_2   0.500630 0.501360 0.147810 -0.194871
O1    O     O_R   0.499990 0.319060 0.613040 -0.604403
O2    O     O_2   0.849889 0.292751 0.421800 -0.555493
O3    O     O_2   0.147424 0.301181 0.396953 -0.614169
O4    O     O_2   0.151944 0.700317 0.596323 -0.549886
O5    O     O_R   0.500010 0.319100 0.386900 -0.636669
O6    O     O_R   0.416150 0.499940 0.613100 -0.623571
O7    O     O_R   0.416160 0.499980 0.386960 -0.612247
O8    O     O_R   0.499990 0.680900 0.613100 -0.607467
O9    O     O_R   0.500010 0.680940 0.386960 -0.615823
O10   O     O_R   0.583840 0.500020 0.613040 -0.609341
O11   O     O_R   0.583850 0.500060 0.386900 -0.613140
O12   O     O_2   0.850503 0.706058 0.588730 -0.567167
Zn1   Zn    Zn3+2 0.499990 0.499970 0.650990 0.952254
Zn2   Zn    Zn3+2 0.500010 0.500030 0.349010 0.942340
O13   O     O_3   0.449651 0.072767 0.576745 -0.613245
C37   C     C_3   0.397134 0.137273 0.580669 -0.281393
H17   H     H_    0.381772 0.162587 0.479188 0.146654
H18   H     H_    0.400389 0.221654 0.646486 0.172134
H19   H     H_    0.364460 0.075075 0.623772 0.198502
C38   C     C_R   0.575868 0.655248 0.870888 0.207477
C39   C     C_R   0.632209 0.612584 0.858623 -0.142024
C40   C     C_R   0.674924 0.692374 0.813190 -0.135248
C41   C     C_R   0.661843 0.815768 0.782525 -0.095151
C42   C     C_R   0.606233 0.860074 0.799222 -0.182898
C43   C     C_R   0.563413 0.780458 0.844533 -0.147532
H20   H     H_    0.642967 0.517799 0.884539 0.122270
H21   H     H_    0.718237 0.658829 0.802609 0.160457
H22   H     H_    0.694937 0.877453 0.747479 0.152474
H23   H     H_    0.596391 0.956316 0.777785 0.143225
H24   H     H_    0.520638 0.816196 0.858970 0.140522
C44   C     C_R   0.056938 0.845703 0.600696 0.180403
C45   C     C_R   0.051510 0.907776 0.724584 -0.136307
C46   C     C_R   0.076675 0.025223 0.746071 -0.135472
C47   C     C_R   0.107289 0.081314 0.644222 -0.089010
C48   C     C_R   0.112459 0.020353 0.520471 -0.122452
C49   C     C_R   0.086744 0.903880 0.497964 -0.088766
H25   H     H_    0.028057 0.865010 0.804346 0.134078
H26   H     H_    0.072551 0.072623 0.841769 0.138157
H27   H     H_    0.126921 0.171988 0.661105 0.144161
H28   H     H_    0.136299 0.063154 0.441644 0.184429
H29   H     H_    0.090577 0.858225 0.401146 0.137118
O14   O     O_3   0.206428 0.551512 0.261436 -0.605605
C50   C     C_3   0.221920 0.472915 0.153214 -0.283288
H30   H     H_    0.225879 0.373397 0.182319 0.179207
H31   H     H_    0.262042 0.506041 0.107288 0.154243
H32   H     H_    0.187810 0.477187 0.075761 0.197105

loop_
_geom_bond_atom_site_label_1
_geom_bond_atom_site_label_2
_ccdc_geom_bond_type
O5    Zn2   S    
C31   O10   A    
C44   C45   A    
C4    C9    A    
C33   O2    S    
C30   H9    S    
C19   C20   A    
C2    H1    S    
C16   H15   S    
C18   H16   S    
C7    C8    A    
C29   C38   S    
C39   C40   A    
C31   O11   A    
C29   C30   S    
C11   O14   S    
C18   C24   A    
C32   C36   A    
C18   C19   A    
C5    C6    A    
C15   H14   S    
O10   Zn1   S    
C15   C16   A    
C34   C35   A    
C8    C36   A    
C23   C26   S    
C46   H26   S    
C48   H28   S    
C40   H21   S    
C7    C44   S    
C35   C36   A    
C16   C17   A    
C1    C28   S    
C43   H24   S    
C32   O12   S    
C2    C34   A    
C21   C22   A    
C37   H19   S    
C49   H29   S    
C33   N1    A    
C47   H27   S    
C38   C39   A    
C37   H18   S    
C25   H5    S    
C48   C49   A    
C12   O7    A    
C40   C41   A    
C37   H17   S    
C29   N3    D    
C25   C26   D    
C30   N4    D    
O6    Zn1   S    
C9    O3    S    
C10   O4    S    
C8    H12   S    
C42   H23   S    
C19   H2    S    
C1    O1    A    
C12   O6    A    
C50   H30   S    
C21   H3    S    
O7    Zn2   S    
C22   H4    S    
C33   C34   A    
O8    Zn1   S    
C20   C21   A    
N3    Zn1   S    
C13   H13   S    
C23   O8    A    
C50   H31   S    
C12   C14   S    
N4    Zn2   S    
C22   C24   A    
C28   O13   S    
C3    C4    A    
C32   N1    A    
C44   C49   A    
C26   H6    S    
C45   H25   S    
C11   C17   A    
C42   C43   A    
C1    O5    A    
C38   C43   A    
C6    C10   A    
C6    C7    A    
C25   C27   S    
C3    H10   S    
O11   Zn2   S    
C23   O9    A    
C2    C3    A    
C24   N1    S    
O13   C37   S    
C11   C13   A    
H8    N3    S    
C47   C48   A    
C41   H22   S    
C39   H20   S    
C5    C35   A    
C10   N2    A    
C41   C42   A    
C27   H7    S    
C4    C5    A    
C50   H32   S    
C45   C46   A    
O14   C50   S    
C27   C28   D    
C14   C15   A    
C9    N2    A    
O1    Zn1   S    
C46   C47   A    
C13   C14   A    
C17   N2    S    
O9    Zn2   S    
H11   N4    S    
C20   C31   S    
