data_mof_unit_45528.cif
_audit_creation_date              2012-12-10T17:58:21-0500
_audit_creation_method            fapswitch 2.2
_symmetry_space_group_name_H-M    P1
_symmetry_Int_Tables_number       1
_space_group_crystal_system       triclinic
_cell_length_a                    9.6229
_cell_length_b                    10.773772
_cell_length_c                    15.556561
_cell_angle_alpha                 88.133063
_cell_angle_beta                  73.752016
_cell_angle_gamma                 91.476372
_cell_volume                      1546.56393983

loop_
_atom_site_label
_atom_site_type_symbol
_atom_type_description
_atom_site_fract_x
_atom_site_fract_y
_atom_site_fract_z
_atom_type_partial_charge
C1    C     C_R   0.998718 0.262451 0.500229 0.807365
C2    C     C_R   0.080850 0.064311 0.547297 -0.153131
C3    C     C_R   0.002489 0.871551 0.499129 -0.017476
C4    C     C_R   0.997593 0.128440 0.500786 -0.018250
C5    C     C_R   0.545104 0.409773 0.548682 0.499416
C6    C     C_R   0.454914 0.590195 0.451280 0.498400
C7    C     C_R   0.398565 0.411881 0.547463 -0.156002
C8    C     C_R   0.601441 0.588111 0.452528 -0.157740
C9    C     C_R   0.917895 0.499980 0.671839 0.813161
C10   C     C_R   0.082178 0.501891 0.328185 0.808774
C11   C     C_R   0.872219 0.499301 0.770048 -0.045893
C12   C     C_R   0.001303 0.737547 0.499737 0.805797
C13   C     C_R   0.129119 0.516196 0.230228 -0.041145
C14   C     C_R   0.921789 0.468935 0.913053 -0.203844
C15   C     C_R   0.088359 0.585768 0.090361 -0.209390
C16   C     C_R   0.969964 0.475633 0.819909 -0.185702
C17   C     C_R   0.035808 0.559618 0.182181 -0.189760
C18   C     C_R   0.727272 0.519706 0.814112 -0.203076
C19   C     C_R   0.273976 0.497077 0.185601 -0.189879
C20   C     C_R   0.676672 0.517181 0.908065 0.084926
C21   C     C_R   0.331328 0.528232 0.093910 0.090827
C22   C     C_R   0.776091 0.488293 0.957407 0.160696
C23   C     C_R   0.584643 0.492044 0.095507 -0.185792
C24   C     C_R   0.234880 0.570108 0.045892 0.159280
C25   C     C_R   0.529448 0.538291 0.954072 0.066744
C26   C     C_R   0.481125 0.518300 0.048806 0.065214
C27   C     C_R   0.429601 0.580636 0.908802 -0.191467
C28   C     C_R   0.729165 0.477962 0.050448 -0.227686
C29   C     C_R   0.285603 0.597040 0.954209 -0.223726
C30   C     C_R   0.917561 0.064173 0.452987 -0.099831
C31   C     C_R   0.082588 0.935816 0.546886 -0.099933
C32   C     C_R   0.919274 0.935676 0.452591 -0.153227
Cu1   Cu    Cu3+1 0.140660 0.500020 0.500000 1.018405
Cu2   Cu    Cu3+1 0.859340 0.499980 0.500000 1.017765
H1    H     H_    0.804386 0.457016 0.088902 0.149526
H2    H     H_    0.654918 0.533677 0.773349 0.165000
H3    H     H_    0.923443 0.576090 0.215761 0.169137
H4    H     H_    0.082602 0.459193 0.787046 0.170860
H5    H     H_    0.998136 0.446774 0.950412 0.146715
H6    H     H_    0.015032 0.620558 0.054331 0.145430
H7    H     H_    0.856111 0.113345 0.414896 0.169272
H8    H     H_    0.144091 0.886644 0.584945 0.168711
H9    H     H_    0.446166 0.139928 0.703973 0.380994
H10   H     H_    0.553788 0.859002 0.294919 0.381730
H11   H     H_    0.213157 0.630505 0.917010 0.149337
H12   H     H_    0.558683 0.484997 0.167501 0.160003
H13   H     H_    0.459848 0.606088 0.838347 0.147321
H14   H     H_    0.857253 0.886457 0.415163 0.162718
H15   H     H_    0.142885 0.113523 0.584718 0.162962
H16   H     H_    0.320422 0.341276 0.583676 0.211156
H17   H     H_    0.679591 0.658710 0.416303 0.210629
H18   H     H_    0.339566 0.456953 0.224314 0.150241
N1    N     N_R   0.352080 0.500030 0.499980 -0.261079
N2    N     N_R   0.647920 0.499970 0.500020 -0.260918
O1    O     O_R   0.118740 0.319660 0.500000 -0.604602
O2    O     O_2   0.690796 0.294166 0.658404 -0.275500
O3    O     O_3   0.425896 0.224163 0.684142 -0.580076
O4    O     O_2   0.309016 0.705918 0.341663 -0.275288
O5    O     O_2   0.373319 0.825155 0.457100 -0.309522
O6    O     O_3   0.574224 0.775177 0.315410 -0.584181
O7    O     O_R   0.881260 0.680340 0.500000 -0.605252
O8    O     O_R   0.881170 0.319630 0.500010 -0.506160
O9    O     O_R   0.118830 0.680370 0.499990 -0.506921
O10   O     O_R   0.055570 0.500030 0.629830 -0.600042
O11   O     O_R   0.944430 0.499970 0.370170 -0.600342
O12   O     O_R   0.818000 0.500000 0.629840 -0.539370
O13   O     O_R   0.182000 0.500000 0.370160 -0.537769
O14   O     O_2   0.627433 0.175024 0.542572 -0.310551
S1    S     S_3+6 0.580353 0.275147 0.608367 0.007055
S2    S     S_3+6 0.419799 0.724752 0.391460 0.004954

loop_
_geom_bond_atom_site_label_1
_geom_bond_atom_site_label_2
_ccdc_geom_bond_type
Cu1   O1    S    
C2    C4    A    
C21   C26   A    
C5    C7    A    
C30   H7    S    
C2    H15   S    
O6    S2    S    
C27   C29   A    
C9    O10   A    
C32   H14   S    
C11   C16   A    
C13   C17   A    
Cu1   O9    S    
C1    C4    S    
C1    O8    A    
Cu2   O12   S    
Cu1   Cu2   S    
C1    O1    A    
C4    C30   A    
C11   C18   A    
C23   H12   S    
C17   H3    S    
C23   C28   A    
C3    C31   A    
C12   O7    A    
C9    C11   S    
C8    H17   S    
C14   C22   A    
H10   O6    S    
Cu1   O10   S    
Cu2   O11   S    
C22   C28   A    
C15   C24   A    
C31   H8    S    
C20   C22   A    
Cu2   N2    S    
C18   C20   A    
C2    C31   A    
Cu1   N1    S    
C3    C32   A    
C14   H5    S    
C14   C16   A    
C15   H6    S    
C21   C24   A    
C25   C27   A    
C20   C25   A    
H9    O3    S    
O5    S2    D    
C8    N2    A    
C30   C32   A    
C24   C29   A    
C5    N2    A    
Cu2   O8    S    
C16   H4    S    
Cu1   O13   S    
C15   C17   A    
O2    S1    D    
C23   C26   A    
C27   H13   S    
C6    S2    S    
C12   O9    A    
C7    N1    A    
C9    O12   A    
O4    S2    D    
C13   C19   A    
C6    C8    A    
C3    C12   S    
C6    N1    A    
O3    S1    S    
C25   C26   A    
C10   O13   A    
C28   H1    S    
C18   H2    S    
C19   H18   S    
C5    S1    S    
Cu2   O7    S    
C29   H11   S    
C7    H16   S    
C10   O11   A    
O14   S1    D    
C19   C21   A    
C10   C13   S    
