data_mof_unit_9750.cif
_audit_creation_date              2012-12-11T14:06:39-0500
_audit_creation_method            fapswitch 2.2
_symmetry_space_group_name_H-M    P1
_symmetry_Int_Tables_number       1
_space_group_crystal_system       triclinic
_cell_length_a                    11.914007
_cell_length_b                    11.950494
_cell_length_c                    19.424693
_cell_angle_alpha                 90.164816
_cell_angle_beta                  89.965292
_cell_angle_gamma                 119.912458
_cell_volume                      2397.2257738

loop_
_atom_site_label
_atom_site_type_symbol
_atom_type_description
_atom_site_fract_x
_atom_site_fract_y
_atom_site_fract_z
_atom_type_partial_charge
C1    C     C_R   0.553513 0.475418 0.597654 0.543511
C2    C     C_R   0.453391 0.927685 0.121856 0.559227
C3    C     C_R   0.073670 0.526707 0.122012 0.552901
C4    C     C_R   0.472748 0.547709 0.122567 0.560220
C5    C     C_R   0.553771 0.475645 0.402896 0.533832
C6    C     C_R   0.554172 0.144350 0.397056 0.562131
C7    C     C_R   0.923156 0.446579 0.403404 0.532326
C8    C     C_1   0.034527 0.514429 0.858946 0.001921
C9    C     C_1   0.485450 0.519950 0.858931 0.002406
C10   C     C_1   0.480080 0.965220 0.858923 0.002886
C11   C     C_1   0.992489 0.494186 0.726872 -0.029310
C12   C     C_R   0.524664 0.078245 0.597725 0.552978
C13   C     C_1   0.505832 0.498435 0.726843 -0.029403
C14   C     C_1   0.501769 0.007586 0.726862 -0.029804
C15   C     C_1   0.012799 0.505954 0.798279 -0.033031
C16   C     C_1   0.493940 0.506783 0.798248 -0.033009
C17   C     C_1   0.493290 0.987018 0.798266 -0.032561
C18   C     C_1   0.968571 0.477771 0.666480 0.010526
C19   C     C_1   0.522315 0.491010 0.666457 0.010499
C20   C     C_1   0.509233 0.031625 0.666507 0.009160
C21   C     C_2   0.977480 0.477458 0.335614 -0.067114
C22   C     C_2   0.525490 0.496066 0.333884 -0.070412
C23   C     C_R   0.921845 0.446461 0.597668 0.541972
C24   C     C_2   0.558313 0.133967 0.322721 -0.062340
C25   C     C_2   0.998890 0.502338 0.184903 0.261010
C26   C     C_2   0.497354 0.492680 0.183548 0.259202
C27   C     C_2   0.503376 0.999674 0.185957 0.244026
C28   C     C_2   0.977331 0.397991 0.220320 -0.138380
C29   C     C_2   0.606225 0.567597 0.218073 -0.096241
C30   C     C_2   0.447185 0.065431 0.210797 -0.116262
C31   C     C_3   0.036263 0.711597 0.203982 -0.002400
C32   C     C_3   0.996379 0.783764 0.254017 -0.390331
C33   C     C_3   0.284237 0.333598 0.207604 -0.004001
C34   C     C_2   0.934998 0.379311 0.290531 -0.128688
C35   C     C_3   0.211968 0.224377 0.258678 -0.394703
C36   C     C_3   0.707536 0.029727 0.200100 -0.020477
C37   C     C_3   0.792611 0.003279 0.247966 -0.374434
C38   C     C_2   0.622609 0.537909 0.287952 -0.105715
C39   C     C_2   0.455825 0.105349 0.283024 -0.099314
C40   C     C_R   0.451377 0.923699 0.928654 0.547560
C41   C     C_R   0.076309 0.527587 0.928658 0.552831
C42   C     C_R   0.472507 0.548711 0.928670 0.553541
Cr1   Cr    Cr6+3 0.468420 0.238090 0.499960 1.025415
Cr2   Cr    Cr6+3 0.761910 0.230330 0.499960 1.029849
Cr3   Cr    Cr6+3 0.769670 0.531580 0.499960 1.028210
Cr4   Cr    Cr6+3 0.515700 0.760130 0.026360 1.025650
Cr5   Cr    Cr6+3 0.239870 0.755570 0.026360 1.017979
Cr6   Cr    Cr6+3 0.244430 0.484300 0.026360 1.015908
H1    H     H_    0.000823 0.327404 0.199784 0.090898
H2    H     H_    0.068979 0.888360 0.253009 0.093428
H3    H     H_    0.900862 0.771012 0.239093 0.142368
H4    H     H_    0.237974 0.298224 0.156487 0.164654
H5    H     H_    0.272941 0.416850 0.224350 0.126492
H6    H     H_    0.260054 0.250708 0.309785 0.165056
H7    H     H_    0.111168 0.204961 0.264534 0.096013
H8    H     H_    0.209383 0.135397 0.239757 0.136643
H9    H     H_    0.749294 0.136101 0.195789 0.112527
H10   H     H_    0.710412 0.990416 0.148697 0.151425
H11   H     H_    0.753671 0.897587 0.252360 0.163319
H12   H     H_    0.680120 0.659971 0.197900 0.101698
H13   H     H_    0.892403 0.048521 0.227003 0.081411
H14   H     H_    0.795612 0.043606 0.299933 0.160722
H15   H     H_    0.042921 0.577008 0.321638 0.123307
H16   H     H_    0.428897 0.476015 0.320639 0.113336
H17   H     H_    0.647793 0.148580 0.300825 0.135317
H18   H     H_    0.376981 0.074981 0.179338 0.114259
H19   H     H_    0.873018 0.279872 0.306168 0.127776
H20   H     H_    0.719655 0.560823 0.303139 0.165057
H21   H     H_    0.370709 0.102905 0.304778 0.141563
H22   H     H_    0.036070 0.748237 0.151491 0.161998
H23   H     H_    0.136097 0.733943 0.218174 0.139049
H24   H     H_    0.990227 0.747399 0.307193 0.161821
O1    O     O_R   0.434830 0.101190 0.575190 -0.500042
O2    O     O_R   0.664850 0.560590 0.424150 -0.514506
O3    O     O_R   0.484380 0.363570 0.430280 -0.516087
O4    O     O_R   0.636430 0.120810 0.430280 -0.493357
O5    O     O_R   0.879190 0.515620 0.430280 -0.501653
O6    O     O_3   0.666667 0.333333 0.499980 -0.307091
O7    O     O_R   0.548200 0.655360 0.951320 -0.508485
O8    O     O_R   0.344640 0.892840 0.951320 -0.508621
O9    O     O_R   0.107160 0.451800 0.951320 -0.508366
O10   O     O_R   0.505020 0.871000 0.955840 -0.500568
O11   O     O_R   0.129000 0.634020 0.955840 -0.494746
O12   O     O_R   0.898810 0.333640 0.575190 -0.503505
O13   O     O_R   0.365980 0.494980 0.955840 -0.494734
O14   O     O_R   0.543640 0.655270 0.102360 -0.533009
O15   O     O_R   0.344730 0.888370 0.102360 -0.547965
O16   O     O_R   0.111630 0.456360 0.102360 -0.553913
O17   O     O_R   0.500790 0.870920 0.095850 -0.489616
O18   O     O_R   0.129080 0.629870 0.095850 -0.509091
O19   O     O_R   0.370130 0.499210 0.095850 -0.510091
O20   O     O_3   0.946120 0.577781 0.207343 -0.578448
O21   O     O_3   0.415645 0.365430 0.204963 -0.576105
O22   O     O_3   0.580501 0.970490 0.227170 -0.559813
O23   O     O_R   0.666360 0.565170 0.575190 -0.500582
O24   O     O_3   0.333333 0.666667 0.026340 -0.218805
O25   O     O_R   0.480130 0.360720 0.570290 -0.497263
O26   O     O_R   0.639280 0.119410 0.570290 -0.491035
O27   O     O_R   0.880590 0.519870 0.570290 -0.494441
O28   O     O_R   0.439410 0.104260 0.424150 -0.509404
O29   O     O_R   0.895740 0.335150 0.424150 -0.528544

loop_
_geom_bond_atom_site_label_1
_geom_bond_atom_site_label_2
_ccdc_geom_bond_type
Cr1   O1    S    
C23   O27   A    
C11   C18   T    
C37   H14   S    
C32   H24   S    
Cr4   O17   S    
Cr1   O6    S    
C9    C42   S    
C3    O18   A    
C36   C37   S    
C9    C16   T    
C36   H10   S    
Cr4   O7    S    
C4    O14   A    
C10   C17   T    
C22   C38   D    
C24   C39   D    
Cr6   O9    S    
C10   C40   S    
C5    O2    A    
Cr2   O4    S    
Cr4   O10   S    
C11   C15   S    
C31   H22   S    
C5    C22   S    
Cr6   O19   S    
C29   C38   S    
Cr5   O24   S    
C40   O8    A    
Cr3   O6    S    
Cr5   O11   S    
C12   O26   A    
C7    O5    A    
C4    O19   A    
C26   O21   S    
C31   H23   S    
C35   H8    S    
C28   C34   S    
C42   O7    A    
C12   O1    A    
C35   H6    S    
Cr1   O3    S    
C14   C17   S    
Cr2   O26   S    
Cr5   O8    S    
C33   H5    S    
C1    C19   S    
C23   O12   A    
C13   C19   T    
C35   H7    S    
C18   C23   S    
C40   O10   A    
C3    C25   S    
Cr1   O28   S    
C36   H9    S    
Cr3   O27   S    
C1    O25   A    
C27   C30   D    
C21   C34   D    
C7    C21   S    
C22   H16   S    
Cr3   O2    S    
C33   H4    S    
C6    O28   A    
C5    O3    A    
C2    O17   A    
C32   H3    S    
C14   C20   T    
C28   H1    S    
C4    C26   S    
C31   C32   S    
C29   H12   S    
C1    O23   A    
C41   O9    A    
C12   C20   S    
Cr6   O16   S    
C39   H21   S    
C2    O15   A    
C42   O13   A    
C37   H11   S    
C8    C41   S    
C32   H2    S    
C30   H18   S    
C24   H17   S    
C38   H20   S    
C8    C15   T    
C2    C27   S    
Cr5   O18   S    
Cr3   O23   S    
C25   O20   S    
Cr6   O24   S    
C3    O16   A    
Cr1   O25   S    
Cr2   O12   S    
C33   O21   S    
C34   H19   S    
C37   H13   S    
Cr2   O29   S    
C6    O4    A    
C6    C24   S    
Cr2   O6    S    
C33   C35   S    
C30   C39   S    
C21   H15   S    
C25   C28   D    
C36   O22   S    
Cr4   O24   S    
C26   C29   D    
C31   O20   S    
C7    O29   A    
C13   C16   S    
Cr6   O13   S    
C27   O22   S    
Cr3   O5    S    
Cr5   O15   S    
Cr4   O14   S    
C41   O11   A    
