data_mof_unit_11034.cif
_audit_creation_date              2012-12-10T17:19:26-0500
_audit_creation_method            fapswitch 2.2
_symmetry_space_group_name_H-M    P1
_symmetry_Int_Tables_number       1
_space_group_crystal_system       triclinic
_cell_length_a                    14.975568
_cell_length_b                    10.861128
_cell_length_c                    9.7333
_cell_angle_alpha                 91.056002
_cell_angle_beta                  89.348626
_cell_angle_gamma                 95.753769
_cell_volume                      1574.82082379

loop_
_atom_site_label
_atom_site_type_symbol
_atom_type_description
_atom_site_fract_x
_atom_site_fract_y
_atom_site_fract_z
_atom_type_partial_charge
C1    C     C_R   0.489957 0.261127 0.500430 0.793429
C2    C     C_R   0.916264 0.618351 0.499274 0.097312
C3    C     C_R   0.935284 0.278428 0.533093 -0.309467
C4    C     C_R   0.028404 0.275861 0.538078 0.491985
C5    C     C_R   0.084894 0.386208 0.522265 0.021230
C6    C     C_R   0.047380 0.500373 0.512433 -0.005491
C7    C     C_R   0.103905 0.611571 0.505490 0.091565
C8    C     C_R   0.067707 0.724479 0.503887 -0.244554
C9    C     C_R   0.974778 0.730818 0.497814 0.154743
C10   C     C_R   0.178377 0.385341 0.517565 -0.248633
C11   C     C_R   0.233137 0.496222 0.504211 -0.045699
C12   C     C_R   0.329326 0.496218 0.500879 0.788111
C13   C     C_R   0.196603 0.608680 0.500825 -0.240408
C14   C     C_R   0.455914 0.123958 0.762167 0.497071
C15   C     C_R   0.489032 0.074730 0.879171 0.017769
C16   C     C_R   0.476220 0.945434 0.890114 -0.044525
C17   C     C_R   0.450484 0.875030 0.771007 0.502350
C18   C     C_R   0.462919 0.931150 0.639535 -0.185879
C19   C     C_R   0.464808 0.061415 0.635526 -0.106150
C20   C     C_R   0.468141 0.123484 0.507479 -0.126677
C21   C     C_R   0.443491 0.051868 0.390221 -0.318378
C22   C     C_R   0.432257 0.921412 0.397415 0.498532
C23   C     C_R   0.487263 0.734371 0.502758 0.841761
C24   C     C_R   0.462197 0.863642 0.513246 -0.173281
C25   C     C_R   0.638051 0.634862 0.147584 -0.306495
C26   C     C_R   0.718326 0.680036 0.085486 0.357119
C27   C     C_R   0.725504 0.671904 0.942094 0.304899
C28   C     C_R   0.645909 0.641432 0.866233 0.401400
C29   C     C_R   0.571170 0.566126 0.927333 0.045824
C30   C     C_R   0.569445 0.565101 0.075761 0.047734
C31   C     C_R   0.430608 0.442717 0.071162 0.218389
C32   C     C_R   0.429183 0.450806 0.925183 0.002710
C33   C     C_R   0.670867 0.501784 0.499440 0.813099
C34   C     C_R   0.822045 0.615108 0.491832 -0.133597
C35   C     C_R   0.767769 0.502786 0.499211 -0.031909
C36   C     C_R   0.805108 0.391575 0.513825 -0.219510
C37   C     C_R   0.897874 0.390667 0.518699 0.062299
C38   C     C_R   0.953788 0.503394 0.510385 0.019376
Cu1   Cu    Cu3+1 0.499990 0.499990 0.640660 1.038269
Cu2   Cu    Cu3+1 0.500010 0.500010 0.359340 0.945518
H1    H     H_    0.788467 0.697458 0.481056 0.121749
H2    H     H_    0.629714 0.660878 0.252215 0.233151
H3    H     H_    0.761571 0.305798 0.521343 0.118159
H4    H     H_    0.370770 0.411753 0.869939 0.185986
H5    H     H_    0.892311 0.192303 0.540926 0.151273
H6    H     H_    0.208986 0.299285 0.523514 0.165409
H7    H     H_    0.240819 0.693556 0.494609 0.135987
H8    H     H_    0.112892 0.808894 0.506504 0.143031
H9    H     H_    0.428933 0.096648 0.296087 0.142238
N1    N     N_R   0.500860 0.501210 0.147910 -0.176331
N2    N     N_R   0.500890 0.501290 0.852040 -0.167531
O1    O     O_R   0.499990 0.319640 0.618810 -0.533818
O2    O     O_R   0.500000 0.319660 0.381240 -0.610360
O3    O     O_R   0.370250 0.499960 0.618800 -0.563206
O4    O     O_R   0.370260 0.499980 0.381230 -0.576037
O5    O     O_R   0.500000 0.680340 0.618760 -0.468646
O6    O     O_R   0.500010 0.680360 0.381190 -0.589438
O7    O     O_R   0.629740 0.500020 0.618770 -0.525327
O8    O     O_R   0.629750 0.500040 0.381200 -0.594447
O9    O     O_3   0.396378 0.212595 0.779429 -0.586032
C39   C     C_3   0.307672 0.156963 0.764301 -0.407136
H10   H     H_    0.260990 0.227130 0.790212 0.187521
H11   H     H_    0.292757 0.078640 0.835937 0.151211
H12   H     H_    0.294412 0.125622 0.656368 0.184620
C40   C     C_3   0.527327 0.162212 0.990769 -0.337725
C41   C     C_3   0.629790 0.177973 0.982655 -0.845937
H13   H     H_    0.658153 0.087477 0.981118 0.245079
H14   H     H_    0.652042 0.227508 0.887408 0.250918
H15   H     H_    0.656801 0.233604 0.072517 0.250557
H16   H     H_    0.505926 0.254615 0.975774 0.221099
H17   H     H_    0.502672 0.134717 0.093958 0.191135
C42   C     C_3   0.465851 0.888123 0.029228 -0.266635
C43   C     C_3   0.554097 0.888688 0.104554 -0.831022
H18   H     H_    0.605958 0.859001 0.033654 0.221538
H19   H     H_    0.576851 0.979485 0.151544 0.247351
H20   H     H_    0.544990 0.824139 0.190556 0.276671
H21   H     H_    0.419252 0.941978 0.087747 0.216695
H22   H     H_    0.435052 0.790837 0.023349 0.255231
O10   O     O_3   0.400064 0.761887 0.785729 -0.544668
C44   C     C_3   0.308272 0.781005 0.785938 -0.365217
H23   H     H_    0.289272 0.826165 0.690301 0.150122
H24   H     H_    0.290600 0.836780 0.877495 0.143848
H25   H     H_    0.268042 0.689709 0.791424 0.205202
O11   O     O_3   0.386152 0.848312 0.298540 -0.580115
C45   C     C_3   0.296967 0.879817 0.291584 -0.381393
H26   H     H_    0.293908 0.966394 0.233528 0.155547
H27   H     H_    0.265888 0.890001 0.395197 0.154401
H28   H     H_    0.256047 0.804584 0.235614 0.196741
C46   C     C_3   0.355851 0.357101 0.133599 -0.395209
C47   C     C_3   0.265885 0.412510 0.130594 -0.808178
H29   H     H_    0.272122 0.508506 0.173101 0.281212
H30   H     H_    0.241251 0.414244 0.023533 0.224074
H31   H     H_    0.215430 0.354939 0.192451 0.242284
H32   H     H_    0.348866 0.268496 0.073744 0.173384
H33   H     H_    0.371205 0.329374 0.238054 0.242758
O12   O     O_3   0.788092 0.733806 0.165248 -0.550092
C48   C     C_3   0.765268 0.849352 0.216753 -0.408574
H34   H     H_    0.714960 0.837969 0.301445 0.160088
H35   H     H_    0.742309 0.908260 0.134764 0.153332
H36   H     H_    0.825440 0.901635 0.259471 0.204119
O13   O     O_3   0.806892 0.685414 0.870127 -0.557813
C49   C     C_3   0.862108 0.793413 0.908004 -0.250130
H37   H     H_    0.906279 0.774618 0.994312 0.218611
H38   H     H_    0.823387 0.873550 0.931364 0.130946
H39   H     H_    0.906929 0.820110 0.819742 0.143218
O14   O     O_3   0.639017 0.691682 0.737590 -0.512634
C50   C     C_3   0.676586 0.816206 0.727141 -0.304317
H40   H     H_    0.747972 0.820156 0.694981 0.181360
H41   H     H_    0.668322 0.871950 0.822259 0.129010
H42   H     H_    0.642057 0.860603 0.644194 0.151783
O15   O     O_3   0.064269 0.164547 0.552924 -0.592828
C51   C     C_3   0.061083 0.134693 0.693393 -0.398327
H43   H     H_    0.095781 0.210214 0.757942 0.165349
H44   H     H_    0.096417 0.050787 0.707118 0.181204
H45   H     H_    0.990618 0.113225 0.729675 0.166730
C52   C     C_3   0.944299 0.860138 0.494753 -0.397164
C53   C     C_3   0.985156 0.933393 0.372125 -0.769204
H46   H     H_    0.057881 0.960408 0.386657 0.263549
H47   H     H_    0.976344 0.877489 0.275630 0.246761
H48   H     H_    0.952138 0.019795 0.361731 0.241240
H49   H     H_    0.870946 0.861887 0.492485 0.176428
H50   H     H_    0.966412 0.909990 0.590848 0.203742

loop_
_geom_bond_atom_site_label_1
_geom_bond_atom_site_label_2
_ccdc_geom_bond_type
C41   H14   S    
O13   C49   S    
C50   H41   S    
C43   H18   S    
Cu1   N2    S    
C35   C36   A    
C16   C42   S    
C51   H44   S    
C48   H34   S    
C7    C8    A    
C45   H26   S    
C26   C27   A    
C33   O7    A    
C52   H50   S    
C18   C24   A    
C36   C37   A    
C37   C38   A    
C18   C19   A    
C53   H47   S    
C5    C6    A    
C41   H15   S    
O14   C50   S    
C15   C16   A    
C15   C40   S    
C17   O10   S    
C52   C53   S    
C49   H39   S    
C34   C35   A    
C46   H32   S    
C39   H11   S    
C1    O2    A    
C42   H22   S    
C42   H21   S    
C31   C32   A    
C28   O14   S    
C16   C17   A    
C31   C46   S    
C10   H6    S    
C23   C24   S    
C6    C38   A    
C42   C43   S    
C2    C34   A    
Cu1   O1    S    
C30   N1    A    
C33   O8    A    
Cu2   O8    S    
C21   C22   A    
C43   H19   S    
C49   H37   S    
C34   H1    S    
C44   H25   S    
C21   H9    S    
C51   H43   S    
C48   H35   S    
C45   H27   S    
C26   O12   S    
C52   H49   S    
C23   O5    A    
O11   C45   S    
C44   H24   S    
C53   H48   S    
Cu1   Cu2   S    
C13   H7    S    
C8    C9    A    
C25   C26   A    
C40   H17   S    
Cu1   O7    S    
C27   O13   S    
O9    C39   S    
C22   O11   S    
C46   H33   S    
C39   H12   S    
C8    H8    S    
C32   N2    A    
C29   C30   A    
C2    C38   A    
C47   H30   S    
Cu1   O5    S    
C7    C13   A    
C50   H40   S    
Cu2   O4    S    
O12   C48   S    
C17   C18   A    
C32   H4    S    
C49   H38   S    
C4    O15   S    
C40   C41   S    
C43   H20   S    
C22   C24   A    
C31   N1    A    
C3    C4    A    
C48   H36   S    
C47   H31   S    
C29   N2    A    
C45   H28   S    
C25   C30   A    
C23   O6    A    
C28   C29   A    
C1    C20   S    
Cu2   O6    S    
O15   C51   S    
C9    C52   S    
C14   C19   A    
C44   H23   S    
C25   H2    S    
C11   C12   S    
C6    C7    A    
C14   O9    S    
C50   H42   S    
C19   C20   A    
C5    C10   A    
C53   H46   S    
C11   C13   A    
C47   H29   S    
Cu2   N1    S    
C33   C35   S    
C3    H5    S    
C41   H13   S    
C39   H10   S    
C1    O1    A    
C12   O4    A    
C10   C11   A    
O10   C44   S    
Cu1   O3    S    
C4    C5    A    
C20   C21   A    
C3    C37   A    
Cu2   O2    S    
C27   C28   A    
C14   C15   A    
C36   H3    S    
C46   C47   S    
C2    C9    A    
C51   H45   S    
C12   O3    A    
C40   H16   S    
