data_mof_unit_21129.cif
_audit_creation_date              2012-12-10T16:54:59-0500
_audit_creation_method            fapswitch 2.2
_symmetry_space_group_name_H-M    P1
_symmetry_Int_Tables_number       1
_space_group_crystal_system       triclinic
_cell_length_a                    7.770066
_cell_length_b                    8.577765
_cell_length_c                    15.730094
_cell_angle_alpha                 90.848917
_cell_angle_beta                  85.840263
_cell_angle_gamma                 93.637625
_cell_volume                      1043.48417423

loop_
_atom_site_label
_atom_site_type_symbol
_atom_type_description
_atom_site_fract_x
_atom_site_fract_y
_atom_site_fract_z
_atom_type_partial_charge
C1    C     C_R   0.545780 0.794737 0.497806 0.965104
C2    C     C_2   0.430121 0.041789 0.503421 -0.361738
C3    C     C_R   0.502018 0.500016 0.661565 0.888067
C4    C     C_R   0.454220 0.205262 0.502182 0.962948
C5    C     C_R   0.498020 0.499992 0.338435 0.896660
C6    C     C_3   0.412542 0.642851 0.954064 -0.487351
C7    C     C_3   0.694884 0.502277 0.945310 0.166772
C8    C     C_3   0.692590 0.500651 0.044814 0.832596
C9    C     C_1   0.494321 0.500646 0.249753 -0.096728
C10   C     C_3   0.506276 0.499835 0.916962 0.022192
C11   C     C_3   0.416759 0.648146 0.051955 0.433346
C12   C     C_3   0.500685 0.500794 0.082703 -0.056320
C13   C     C_3   0.399977 0.350272 0.050447 0.153512
C14   C     C_3   0.405374 0.349658 0.951615 -0.564201
C15   C     C_1   0.495323 0.500901 0.174428 0.173574
C16   C     C_1   0.507538 0.499576 0.825477 0.072825
C17   C     C_1   0.506313 0.499642 0.750229 -0.160142
C18   C     C_2   0.569878 0.958209 0.496547 -0.356037
F1    F     F_    0.506970 0.783983 0.076765 -0.599965
F2    F     F_    0.763849 0.365046 0.069661 -0.691341
H1    H     H_    0.275481 0.633912 0.937164 0.181559
H2    H     H_    0.272347 0.341280 0.929227 0.237958
H3    H     H_    0.469509 0.244507 0.926084 0.196690
H4    H     H_    0.756413 0.726529 0.931673 0.387582
H5    H     H_    0.914095 0.611143 0.062267 0.353856
H6    H     H_    0.159623 0.410992 0.061221 0.356624
H7    H     H_    0.282618 0.653168 0.081293 0.113137
H8    H     H_    0.465493 0.246226 0.070009 0.241893
H9    H     H_    0.701879 0.009253 0.489989 0.184442
H10   H     H_    0.298120 0.990745 0.509978 0.183266
H11   H     H_    0.013465 0.381977 0.436583 0.205012
H12   H     H_    0.986535 0.618024 0.563416 0.197677
H13   H     H_    0.471243 0.753651 0.925870 0.227496
H14   H     H_    0.752266 0.393367 0.920519 0.170297
N1    N     N_2   0.950340 0.457950 0.477370 -0.166120
N2    N     N_2   0.049660 0.542050 0.522630 -0.169581
O1    O     O_R   0.389240 0.738570 0.505550 -0.613213
O2    O     O_3   0.790424 0.629975 0.076245 -0.676542
O3    O     O_3   0.229104 0.334133 0.087516 -0.692875
O4    O     O_R   0.678400 0.711630 0.491050 -0.627147
O5    O     O_R   0.355360 0.513470 0.630110 -0.609306
O6    O     O_R   0.644510 0.486530 0.615610 -0.618693
O7    O     O_R   0.321600 0.288370 0.508950 -0.629867
O8    O     O_R   0.610760 0.261430 0.494450 -0.612860
O9    O     O_R   0.355490 0.513470 0.384390 -0.617792
O10   O     O_R   0.644640 0.486530 0.369890 -0.591136
O11   O     O_3   0.800643 0.627240 0.908952 -0.755905
Zn1   Zn    Zn3+2 0.306930 0.517990 0.509680 0.969907
Zn2   Zn    Zn3+2 0.693070 0.482010 0.490320 0.979870

loop_
_geom_bond_atom_site_label_1
_geom_bond_atom_site_label_2
_ccdc_geom_bond_type
C14   H3    S    
C6    C10   S    
C7    C10   S    
C2    C4    S    
C11   C12   S    
C6    H13   S    
C13   H8    S    
N1    Zn2   S    
C4    O7    A    
C1    O1    A    
H5    O2    S    
C2    C18   D    
C5    O10   A    
N1    N2    D    
C12   C15   S    
C11   H7    S    
C2    H10   S    
C14   H2    S    
C9    C15   T    
C7    C8    S    
C3    O6    A    
C18   H9    S    
C10   C16   S    
C13   C14   S    
O1    Zn1   S    
C5    C9    S    
C6    H1    S    
O10   Zn2   S    
C11   F1    S    
C1    C18   S    
C8    F2    S    
C8    O2    S    
H12   N2    S    
O5    Zn1   S    
C3    C17   S    
N2    Zn1   S    
C10   C14   S    
C7    H14   S    
H11   N1    S    
H6    O3    S    
C13   O3    S    
O6    Zn2   S    
O4    Zn2   S    
C12   C13   S    
O7    Zn1   S    
O9    Zn1   S    
C6    C11   S    
C3    O5    A    
C4    O8    A    
C1    O4    A    
H4    O11   S    
C5    O9    A    
O8    Zn2   S    
C8    C12   S    
C16   C17   T    
C7    O11   S    
