data_mof_unit_39770.cif
_audit_creation_date              2012-12-11T15:39:18-0500
_audit_creation_method            fapswitch 2.2
_symmetry_space_group_name_H-M    P1
_symmetry_Int_Tables_number       1
_space_group_crystal_system       triclinic
_cell_length_a                    17.361224
_cell_length_b                    24.387917
_cell_length_c                    14.9494
_cell_angle_alpha                 89.817249
_cell_angle_beta                  125.784377
_cell_angle_gamma                 90.184282
_cell_volume                      5134.71579727

loop_
_atom_site_label
_atom_site_type_symbol
_atom_type_description
_atom_site_fract_x
_atom_site_fract_y
_atom_site_fract_z
_atom_type_partial_charge
C1    C     C_R   0.322886 0.362002 0.907571 -0.134128
C2    C     C_R   0.647306 0.347887 0.091708 -0.129422
C3    C     C_R   0.853016 0.847752 0.908415 -0.125482
C4    C     C_R   0.144224 0.847366 0.091769 -0.142423
C5    C     C_R   0.341085 0.666079 0.997119 0.078809
C6    C     C_R   0.687260 0.641542 0.004309 0.076614
C7    C     C_R   0.813735 0.142208 0.995745 0.075131
C8    C     C_R   0.109960 0.185428 0.999188 0.093598
C9    C     C_R   0.462514 0.500047 0.288947 0.042048
C10   C     C_R   0.433789 0.499848 0.632591 0.046569
C11   C     C_R   0.061318 0.999662 0.365819 0.043514
C12   C     C_R   0.050625 0.999992 0.725997 0.041402
C13   C     C_R   0.172685 0.500437 0.710004 0.071559
C14   C     C_R   0.800278 0.499871 0.369141 0.082942
C15   C     C_R   0.696913 0.000020 0.631700 0.078391
C16   C     C_R   0.325514 0.000526 0.275677 0.072301
C17   C     C_R   0.019940 0.550246 0.621559 0.170599
C18   C     C_R   0.924475 0.550099 0.537119 0.152776
C19   C     C_R   0.573618 0.050256 0.461168 0.147382
C20   C     C_R   0.479646 0.050654 0.371342 0.157959
C21   C     C_R   0.070804 0.501059 0.657311 0.039590
C22   C     C_R   0.878568 0.500733 0.485873 0.034627
C23   C     C_R   0.618093 0.000888 0.514359 0.036788
C24   C     C_R   0.428273 0.001527 0.331021 0.036614
C25   C     C_R   0.019067 0.451804 0.629372 -0.197355
C26   C     C_R   0.922324 0.451608 0.542879 -0.203820
C27   C     C_R   0.575220 0.951867 0.456222 -0.201138
C28   C     C_R   0.480307 0.952259 0.363835 -0.198425
C29   C     C_3   0.931702 0.602942 0.491304 -0.528146
C30   C     C_3   0.035975 0.602814 0.582885 -0.512665
C31   C     C_3   0.460967 0.103181 0.407297 -0.503973
C32   C     C_3   0.563961 0.103031 0.504260 -0.507723
C33   C     C_R   0.181659 0.712258 0.895329 0.546119
C34   C     C_R   0.839385 0.696592 0.107671 0.549603
C35   C     C_R   0.662891 0.197884 0.892418 0.549204
C36   C     C_R   0.199396 0.271251 0.094783 0.535200
C37   C     C_R   0.605951 0.235516 0.897040 -0.326565
C38   C     C_R   0.263226 0.305712 0.095161 -0.288177
C39   C     C_R   0.113669 0.738804 0.899532 -0.318846
C40   C     C_R   0.896732 0.734167 0.102856 -0.325688
C41   C     C_R   0.636817 0.258480 0.998030 0.081146
C42   C     C_R   0.254092 0.315481 0.996907 0.081476
C43   C     C_R   0.138666 0.759443 0.999932 0.082683
C44   C     C_R   0.865265 0.757676 0.001933 0.080710
C45   C     C_R   0.421655 0.643267 0.090172 -0.140802
C46   C     C_R   0.597426 0.627490 0.909948 -0.136289
C47   C     C_R   0.903354 0.128033 0.090096 -0.137396
C48   C     C_R   0.052023 0.152636 0.908294 -0.137457
C49   C     C_R   0.704772 0.230984 0.095535 -0.165030
C50   C     C_R   0.171315 0.299217 0.896309 -0.163531
C51   C     C_R   0.215867 0.737287 0.098225 -0.161295
C52   C     C_R   0.797180 0.730269 0.904440 -0.161203
C53   C     C_R   0.280097 0.705517 0.095756 -0.228011
C54   C     C_R   0.747890 0.686541 0.908304 -0.224075
C55   C     C_R   0.753906 0.187406 0.091749 -0.225816
C56   C     C_R   0.109835 0.263360 0.895983 -0.228135
C57   C     C_R   0.267862 0.696371 0.995273 -0.019131
C58   C     C_R   0.761549 0.672993 0.008216 -0.024781
C59   C     C_R   0.740177 0.174020 0.991875 -0.024581
C60   C     C_R   0.132648 0.242805 0.996375 -0.062658
C61   C     C_R   0.394051 0.549562 0.466671 -0.169812
C62   C     C_R   0.402519 0.549621 0.380474 -0.166028
C63   C     C_R   0.103562 0.049407 0.626041 -0.167891
C64   C     C_R   0.103472 0.049335 0.533442 -0.169176
C65   C     C_R   0.418006 0.499989 0.346464 0.143199
C66   C     C_R   0.400858 0.499855 0.518060 0.139368
C67   C     C_R   0.093668 0.999644 0.480669 0.142696
C68   C     C_R   0.092668 0.999848 0.665189 0.143178
C69   C     C_R   0.401956 0.450291 0.380357 -0.166999
C70   C     C_R   0.393574 0.450206 0.466678 -0.168559
C71   C     C_R   0.102927 0.950021 0.533728 -0.170852
C72   C     C_R   0.103174 0.950146 0.626468 -0.170226
C73   C     C_R   0.492148 0.454377 0.262054 -0.127095
C74   C     C_R   0.451484 0.454188 0.696922 -0.126701
C75   C     C_R   0.045838 0.954054 0.302205 -0.126073
C76   C     C_R   0.019723 0.954031 0.751989 -0.126739
C77   C     C_R   0.230805 0.545872 0.743691 -0.145830
C78   C     C_R   0.751569 0.545225 0.305781 -0.160262
C79   C     C_R   0.746531 0.045366 0.694899 -0.156201
C80   C     C_R   0.267605 0.046084 0.246038 -0.144026
C81   C     C_R   0.489392 0.545826 0.258582 -0.119712
C82   C     C_R   0.450231 0.545548 0.696042 -0.137527
C83   C     C_R   0.047173 0.045437 0.302873 -0.136175
C84   C     C_R   0.019989 0.045978 0.751982 -0.126039
C85   C     C_R   0.229175 0.454647 0.736441 -0.119638
C86   C     C_R   0.755047 0.454212 0.304062 -0.119593
C87   C     C_R   0.743727 0.954305 0.696478 -0.118757
C88   C     C_R   0.268971 0.954294 0.250412 -0.124132
C89   C     C_R   0.332458 0.643745 0.907064 -0.120894
C90   C     C_R   0.689608 0.624703 0.094416 -0.121346
C91   C     C_R   0.810816 0.125028 0.905604 -0.123301
C92   C     C_R   0.144623 0.152749 0.090968 -0.147238
C93   C     C_R   0.413819 0.362085 0.091061 -0.138462
C94   C     C_R   0.555368 0.348391 0.908221 -0.138356
C95   C     C_R   0.944820 0.848125 0.091821 -0.137781
C96   C     C_R   0.052250 0.847445 0.908847 -0.157046
C97   C     C_R   0.328566 0.343781 0.998652 0.086268
C98   C     C_R   0.614774 0.315894 0.999841 0.076337
C99   C     C_R   0.886000 0.815509 0.000263 0.075937
C100  C     C_R   0.110018 0.814998 0.000474 0.090560
H1    H     H_    0.273935 0.348682 0.823742 0.081748
H2    H     H_    0.686099 0.334281 0.176385 0.085213
H3    H     H_    0.814779 0.834197 0.823859 0.083161
H4    H     H_    0.182631 0.834050 0.176570 0.083603
H5    H     H_    0.917976 0.599080 0.409012 0.233035
H6    H     H_    0.056675 0.636623 0.642215 0.257193
H7    H     H_    0.442817 0.137431 0.348807 0.200610
H8    H     H_    0.573616 0.098818 0.584366 0.227905
H9    H     H_    0.892976 0.636415 0.499484 0.201436
H10   H     H_    0.080164 0.598171 0.551713 0.203466
H11   H     H_    0.413174 0.098269 0.433559 0.205187
H12   H     H_    0.605342 0.136398 0.499896 0.196181
H13   H     H_    0.547642 0.252815 0.820015 0.136460
H14   H     H_    0.320980 0.323034 0.172791 0.137858
H15   H     H_    0.048575 0.750910 0.822491 0.133687
H16   H     H_    0.955480 0.751301 0.179754 0.134691
H17   H     H_    0.725913 0.245629 0.175133 0.115958
H18   H     H_    0.156937 0.310264 0.817848 0.111906
H19   H     H_    0.232913 0.749235 0.177538 0.114904
H20   H     H_    0.775774 0.745220 0.824796 0.115019
H21   H     H_    0.341548 0.691131 0.173773 0.129518
H22   H     H_    0.692423 0.667781 0.831192 0.134498
H23   H     H_    0.809063 0.168458 0.168862 0.135074
H24   H     H_    0.052597 0.246794 0.817378 0.131441
H25   H     H_    0.392627 0.588692 0.499330 0.106451
H26   H     H_    0.406192 0.588770 0.349100 0.105704
H27   H     H_    0.102193 0.088542 0.658785 0.108846
H28   H     H_    0.102306 0.088486 0.498695 0.107606
H29   H     H_    0.404962 0.411235 0.348550 0.111893
H30   H     H_    0.391625 0.411049 0.499320 0.111237
H31   H     H_    0.101335 0.910847 0.499128 0.106951
H32   H     H_    0.101660 0.911049 0.659644 0.104323
H33   H     H_    0.458356 0.657027 0.174127 0.084362
H34   H     H_    0.569806 0.634227 0.824741 0.096263
H35   H     H_    0.931445 0.135191 0.175264 0.097041
H36   H     H_    0.003393 0.165647 0.823582 0.085508
H37   H     H_    0.493190 0.412848 0.286421 0.085284
H38   H     H_    0.435287 0.411926 0.670761 0.085700
H39   H     H_    0.061658 0.911807 0.328799 0.084841
H40   H     H_    0.029899 0.911450 0.742268 0.090547
H41   H     H_    0.210011 0.587788 0.734210 0.126008
H42   H     H_    0.755308 0.586220 0.335039 0.102284
H43   H     H_    0.741228 0.086590 0.665399 0.100251
H44   H     H_    0.285952 0.088439 0.248142 0.112901
H45   H     H_    0.484935 0.587849 0.275986 0.084158
H46   H     H_    0.432051 0.587553 0.668492 0.084980
H47   H     H_    0.065138 0.087413 0.330514 0.085619
H48   H     H_    0.030579 0.088576 0.742242 0.093947
H49   H     H_    0.204917 0.413222 0.712147 0.084140
H50   H     H_    0.765626 0.411974 0.330818 0.083509
H51   H     H_    0.732933 0.912164 0.669452 0.083275
H52   H     H_    0.289940 0.911822 0.260998 0.093218
H53   H     H_    0.290973 0.657939 0.823371 0.150267
H54   H     H_    0.747338 0.625262 0.180271 0.172955
H55   H     H_    0.753023 0.125682 0.819820 0.173627
H56   H     H_    0.184073 0.165359 0.175925 0.157704
H57   H     H_    0.447152 0.348485 0.174513 0.087596
H58   H     H_    0.508609 0.335886 0.823069 0.088442
H59   H     H_    0.991739 0.835481 0.176948 0.085871
H60   H     H_    0.005159 0.834483 0.823970 0.085798
H61   H     H_    0.054199 0.412869 0.663321 0.124222
H62   H     H_    0.886854 0.412474 0.512328 0.123777
H63   H     H_    0.609637 0.912657 0.488665 0.123197
H64   H     H_    0.445679 0.913312 0.328828 0.125460
N1    N     N_R   0.394180 0.396910 0.943210 -0.037853
N2    N     N_R   0.605820 0.396910 0.056790 -0.040427
N3    N     N_R   0.894180 0.896910 0.943210 -0.038560
N4    N     N_R   0.105820 0.896910 0.056790 -0.037637
N5    N     N_R   0.450950 0.603070 0.056740 -0.037533
N6    N     N_R   0.549050 0.603070 0.943260 -0.042817
N7    N     N_R   0.950950 0.103070 0.056740 -0.040691
N8    N     N_R   0.049050 0.103070 0.943260 -0.039070
N9    N     N_R   0.525650 0.471570 0.206150 -0.038816
N10   N     N_R   0.474350 0.471570 0.793850 -0.038762
N11   N     N_R   0.025650 0.971570 0.206150 -0.038509
N12   N     N_R   0.974350 0.971570 0.793850 -0.039974
N13   N     N_R   0.319480 0.528420 0.793810 -0.041672
N14   N     N_R   0.680520 0.528420 0.206190 -0.042456
N15   N     N_R   0.819480 0.028420 0.793810 -0.041998
N16   N     N_R   0.180520 0.028420 0.206190 -0.041042
N17   N     N_R   0.525640 0.528390 0.206120 -0.038629
N18   N     N_R   0.474360 0.528390 0.793880 -0.037896
N19   N     N_R   0.025640 0.028390 0.206120 -0.037156
N20   N     N_R   0.974360 0.028390 0.793880 -0.039959
N21   N     N_R   0.319490 0.471590 0.793840 -0.039302
N22   N     N_R   0.680510 0.471590 0.206160 -0.039783
N23   N     N_R   0.819490 0.971590 0.793840 -0.039317
N24   N     N_R   0.180510 0.971590 0.206160 -0.041191
N25   N     N_R   0.394130 0.603080 0.943110 -0.048079
N26   N     N_R   0.605870 0.603080 0.056890 -0.052411
N27   N     N_R   0.894130 0.103080 0.943110 -0.051554
N28   N     N_R   0.105870 0.103080 0.056890 -0.046718
N29   N     N_R   0.450990 0.396900 0.056840 -0.037967
N30   N     N_R   0.549010 0.396900 0.943160 -0.039927
N31   N     N_R   0.950990 0.896900 0.056840 -0.038175
N32   N     N_R   0.049010 0.896900 0.943160 -0.036484
Ni1   Ni    Ni4+2 0.434860 0.434850 0.869700 0.212820
Ni2   Ni    Ni4+2 0.565140 0.434850 0.130300 0.211804
Ni3   Ni    Ni4+2 0.934860 0.934850 0.869700 0.208387
Ni4   Ni    Ni4+2 0.065140 0.934850 0.130300 0.209227
Ni5   Ni    Ni4+2 0.565130 0.565140 0.130240 0.207253
Ni6   Ni    Ni4+2 0.434870 0.565140 0.869760 0.207558
Ni7   Ni    Ni4+2 0.065130 0.065140 0.130240 0.208862
Ni8   Ni    Ni4+2 0.934870 0.065140 0.869760 0.203693
O1    O     O_3   0.162436 0.702868 0.793129 -0.672292
C101  C     C_3   0.177736 0.751953 0.754860 0.215847
H65   H     H_    0.253499 0.764869 0.811029 0.097549
H66   H     H_    0.131615 0.785783 0.748140 0.098420
C102  C     C_3   0.153929 0.742432 0.640685 -0.927347
H67   H     H_    0.077893 0.731148 0.582071 0.261896
H68   H     H_    0.167483 0.780486 0.610907 0.216004
H69   H     H_    0.198430 0.708913 0.643467 0.249261
O2    O     O_3   0.855191 0.688262 0.208714 -0.654211
C103  C     C_3   0.821218 0.734538 0.233085 0.252008
H70   H     H_    0.744786 0.742168 0.166260 0.092324
H71   H     H_    0.862936 0.771992 0.244609 0.099700
C104  C     C_3   0.831018 0.724732 0.339662 -0.945816
H72   H     H_    0.906524 0.716920 0.407918 0.269928
H73   H     H_    0.806628 0.761490 0.360176 0.217822
H74   H     H_    0.786833 0.689163 0.330231 0.241445
O3    O     O_3   0.646898 0.189481 0.791387 -0.653511
C105  C     C_3   0.682420 0.235302 0.767300 0.251395
H75   H     H_    0.759151 0.242187 0.834064 0.088943
H76   H     H_    0.642092 0.273198 0.756252 0.100365
C106  C     C_3   0.672033 0.225339 0.660487 -0.942154
H77   H     H_    0.596186 0.218333 0.592196 0.273751
H78   H     H_    0.697878 0.261701 0.640292 0.216581
H79   H     H_    0.714697 0.189203 0.669422 0.239052
O4    O     O_3   0.212859 0.260625 0.193915 -0.651510
C107  C     C_3   0.131554 0.277588 0.186466 0.243395
H80   H     H_    0.067134 0.254525 0.121389 0.092734
H81   H     H_    0.119232 0.322368 0.168657 0.101374
C108  C     C_3   0.146788 0.266601 0.295963 -0.902691
H82   H     H_    0.209899 0.289571 0.362968 0.259830
H83   H     H_    0.083460 0.280006 0.291312 0.209717
H84   H     H_    0.157932 0.222057 0.315129 0.247180

loop_
_geom_bond_atom_site_label_1
_geom_bond_atom_site_label_2
_ccdc_geom_bond_type
C13   C21   S    
C51   C53   A    
N20   Ni8   S    
C55   C59   A    
C94   N30   A    
C6    C58   S    
C19   C20   A    
N10   N18   A    
N5    N25   A    
C56   C60   A    
N16   Ni7   S    
C47   N7    A    
C106  H79   S    
N2    Ni2   S    
C82   N18   A    
C3    N3    A    
C66   C70   A    
O2    C103  S    
N8    N28   A    
C104  H74   S    
C12   C68   S    
C33   O1    S    
C33   C39   A    
C73   H37   S    
C30   H10   S    
C37   C41   A    
C95   H59   S    
C56   H24   S    
C29   H9    S    
C35   C37   A    
C74   N10   A    
C86   H50   S    
C54   C58   A    
C38   H14   S    
C44   C99   S    
C95   C99   A    
N30   Ni1   S    
C37   H13   S    
C61   C62   A    
N24   Ni4   S    
N29   Ni2   S    
C2    H2    S    
C4    H4    S    
C70   H30   S    
C102  H69   S    
N13   N21   A    
C12   C84   A    
C107  C108  S    
C35   C59   A    
C63   H27   S    
C31   H7    S    
C41   C49   A    
N8    Ni8   S    
N16   N24   A    
C27   H63   S    
C48   N8    A    
C96   N32   A    
C61   C66   A    
C79   H43   S    
C20   C24   A    
C25   H61   S    
C36   O4    S    
C80   H44   S    
C17   C18   A    
C51   H19   S    
C78   N14   A    
C8    C92   A    
C23   C27   A    
C90   H54   S    
C29   C30   S    
C32   H12   S    
C108  H82   S    
C2    N2    A    
C67   C71   A    
C10   C74   A    
C95   N31   A    
C53   H21   S    
C44   C52   A    
C15   C23   S    
C54   H22   S    
N9    N17   A    
C16   C24   S    
C87   H51   S    
C30   H6    S    
N15   N23   A    
N7    Ni7   S    
C17   C30   S    
C88   H52   S    
C29   H5    S    
C69   C70   A    
C88   N24   A    
C9    C73   A    
N32   Ni3   S    
C19   C32   S    
C7    C59   S    
C82   H46   S    
C11   C67   S    
C72   H32   S    
C13   C77   A    
C10   C66   S    
C85   N21   A    
C93   H57   S    
C49   H17   S    
N7    N27   A    
C64   C67   A    
N2    N30   A    
C84   N20   A    
C76   N12   A    
C43   C100  S    
C14   C86   A    
C102  H67   S    
C16   C88   A    
C42   C97   S    
C1    C97   A    
C62   H26   S    
C53   C57   A    
C101  H65   S    
C75   H39   S    
C39   C43   A    
C105  C106  S    
C11   C83   A    
C25   C26   A    
O1    C101  S    
C91   N27   A    
C26   H62   S    
C107  H80   S    
C50   C56   A    
C4    N4    A    
N23   Ni3   S    
C16   C80   A    
C7    C47   A    
C84   H48   S    
C19   C23   A    
C8    C48   A    
C91   H55   S    
O4    C107  S    
C102  H68   S    
N1    Ni1   S    
C46   H34   S    
O3    C105  S    
C77   N13   A    
C45   H33   S    
C93   C97   A    
C89   H53   S    
C31   C32   S    
C1    N1    A    
C68   C72   A    
C7    C91   A    
C9    C65   S    
C64   H28   S    
C106  H77   S    
C83   N19   A    
C92   H56   S    
C18   C29   S    
C107  H81   S    
C108  H83   S    
C46   N6    A    
C42   C50   A    
C83   H47   S    
C52   H20   S    
C69   H29   S    
C96   H60   S    
C86   N22   A    
C1    H1    S    
C81   H45   S    
C50   H18   S    
C12   C76   A    
C32   H8    S    
C34   C40   A    
N14   Ni5   S    
N27   Ni8   S    
N1    N29   A    
C76   H40   S    
C13   C85   A    
C55   H23   S    
C80   N16   A    
C28   H64   S    
N11   N19   A    
N31   Ni4   S    
C90   N26   A    
C3    H3    S    
C103  H70   S    
N12   N20   A    
C75   N11   A    
C21   C25   A    
C63   C68   A    
C105  H76   S    
N10   Ni1   S    
C33   C57   A    
C6    C46   A    
C62   C65   A    
C47   H35   S    
N9    Ni2   S    
C18   C22   A    
N3    N31   A    
C48   H36   S    
N3    Ni3   S    
N17   Ni5   S    
C24   C28   A    
C36   C60   A    
C103  C104  S    
C45   N5    A    
C87   N23   A    
N18   Ni6   S    
N26   Ni5   S    
C38   C42   A    
C15   C79   A    
N25   Ni6   S    
C104  H73   S    
C81   N17   A    
N6    N26   A    
C39   H15   S    
C34   O2    S    
C4    C100  A    
C5    C57   S    
N19   Ni7   S    
C14   C22   S    
C35   O3    S    
C78   H42   S    
C104  H72   S    
C103  H71   S    
N4    N32   A    
C71   C72   A    
C11   C75   A    
C89   N25   A    
C8    C60   S    
N13   Ni6   S    
C74   H38   S    
C101  C102  S    
C43   C51   A    
C40   H16   S    
C5    C45   A    
C65   C69   A    
C96   C100  A    
C36   C38   A    
C106  H78   S    
N28   Ni7   S    
C10   C82   A    
C52   C54   A    
C31   H11   S    
C79   N15   A    
C14   C78   A    
C49   C55   A    
C73   N9    A    
C105  H75   S    
N4    Ni4   S    
C108  H84   S    
C85   H49   S    
N11   Ni4   S    
N6    Ni6   S    
N5    Ni5   S    
C63   C64   A    
N14   N22   A    
C3    C99   A    
C40   C44   A    
C6    C90   A    
N15   Ni8   S    
C2    C98   A    
C71   H31   S    
C94   H58   S    
C22   C26   A    
C15   C87   A    
C93   N29   A    
C27   C28   A    
C34   C58   A    
C94   C98   A    
C41   C98   S    
N22   Ni2   S    
C61   H25   S    
N12   Ni3   S    
N21   Ni1   S    
C101  H66   S    
C77   H41   S    
C5    C89   A    
C92   N28   A    
C9    C81   A    
C20   C31   S    
C17   C21   A    
