data_mof_unit_32461.cif
_audit_creation_date              2012-12-10T18:22:27-0500
_audit_creation_method            fapswitch 2.2
_symmetry_space_group_name_H-M    P1
_symmetry_Int_Tables_number       1
_space_group_crystal_system       triclinic
_cell_length_a                    23.52373
_cell_length_b                    10.615759
_cell_length_c                    9.406535
_cell_angle_alpha                 89.587917
_cell_angle_beta                  89.867585
_cell_angle_gamma                 89.996179
_cell_volume                      2348.95403989

loop_
_atom_site_label
_atom_site_type_symbol
_atom_type_description
_atom_site_fract_x
_atom_site_fract_y
_atom_site_fract_z
_atom_type_partial_charge
C1    C     C_R   0.500016 0.259367 0.500487 0.789737
C2    C     C_R   0.499984 0.740633 0.499513 0.789729
C3    C     C_R   0.238787 0.504879 0.373737 -0.128738
C4    C     C_R   0.761216 0.495518 0.626266 -0.128686
C5    C     C_R   0.298020 0.504423 0.372579 -0.210583
C6    C     C_R   0.701983 0.495962 0.627426 -0.210599
C7    C     C_R   0.328376 0.500065 0.500973 -0.077919
C8    C     C_R   0.671625 0.499936 0.499024 -0.077929
C9    C     C_R   0.298394 0.495765 0.630376 -0.238349
C10   C     C_R   0.701605 0.503865 0.369611 -0.238329
C11   C     C_R   0.239075 0.495935 0.631769 0.205608
C12   C     C_R   0.760923 0.503702 0.368212 0.205652
C13   C     C_R   0.209130 0.500846 0.502836 0.319688
C14   C     C_R   0.790872 0.499171 0.497156 0.319616
C15   C     C_3   0.499967 0.039383 0.635478 -0.138871
C16   C     C_3   0.500033 0.960617 0.364522 -0.138877
C17   C     C_3   0.546685 0.957310 0.566773 -0.161373
C18   C     C_3   0.453315 0.042690 0.433227 -0.161382
C19   C     C_3   0.499991 0.877575 0.498573 0.013868
C20   C     C_3   0.500010 0.122425 0.501427 0.013869
C21   C     C_3   0.453273 0.957356 0.567159 -0.160152
C22   C     C_3   0.546727 0.042644 0.432841 -0.160141
C23   C     C_R   0.390978 0.499957 0.500230 0.809893
C24   C     C_R   0.609022 0.500043 0.499770 0.809902
C25   C     C_3   0.496605 0.613587 0.049473 -0.037241
C26   C     C_3   0.503395 0.386413 0.950527 -0.037230
C27   C     C_3   0.453935 0.550279 0.949214 -0.035583
C28   C     C_3   0.546065 0.449721 0.050786 -0.035533
C29   C     C_3   0.542711 0.563260 0.948692 -0.034276
C30   C     C_3   0.457289 0.436740 0.051307 -0.034320
C31   C     C_R   0.879982 0.608840 0.518969 0.573651
C32   C     C_R   0.120022 0.391183 0.480987 0.573778
C33   C     C_R   0.879917 0.387068 0.479055 0.575221
C34   C     C_R   0.120088 0.612947 0.520968 0.575096
C35   C     C_R   0.940214 0.383551 0.477600 -0.017732
C36   C     C_R   0.059791 0.616470 0.522381 -0.017730
C37   C     C_R   0.969912 0.498558 0.499536 -0.047612
C38   C     C_R   0.030093 0.501464 0.500440 -0.047607
C39   C     C_R   0.939462 0.611144 0.520570 -0.045451
C40   C     C_R   0.060542 0.388878 0.479392 -0.045455
C41   C     C_R   0.971989 0.270976 0.455044 0.141137
C42   C     C_R   0.028016 0.729050 0.544889 0.141114
C43   C     C_R   0.031423 0.275813 0.457014 -0.140803
C44   C     C_R   0.968582 0.724212 0.542918 -0.140819
Cu1   Cu    Cu3+1 0.500010 0.499990 0.643150 0.937479
Cu2   Cu    Cu3+1 0.499990 0.500010 0.356850 0.937476
H1    H     H_    0.415214 0.592802 0.901636 0.120266
H2    H     H_    0.584785 0.407197 0.098363 0.120236
H3    H     H_    0.493682 0.709405 0.095334 0.115235
H4    H     H_    0.506318 0.290595 0.904666 0.115239
H5    H     H_    0.578599 0.616548 0.900502 0.118932
H6    H     H_    0.421401 0.383452 0.099498 0.118985
H7    H     H_    0.055284 0.189774 0.440460 0.187529
H8    H     H_    0.944720 0.810255 0.559440 0.187532
H9    H     H_    0.215782 0.508518 0.274200 0.164992
H10   H     H_    0.784222 0.492183 0.725811 0.165054
H11   H     H_    0.319960 0.507726 0.271270 0.166136
H12   H     H_    0.680045 0.492966 0.728743 0.166134
H13   H     H_    0.320875 0.491926 0.730643 0.170014
H14   H     H_    0.679122 0.507401 0.269335 0.169995
H15   H     H_    0.584863 0.919116 0.621241 0.139483
H16   H     H_    0.415137 0.080884 0.378759 0.139492
H17   H     H_    0.499937 0.074180 0.746494 0.131870
H18   H     H_    0.500063 0.925820 0.253505 0.131869
H19   H     H_    0.415059 0.919203 0.621938 0.140244
H20   H     H_    0.584941 0.080797 0.378061 0.140244
N1    N     N_R   0.851791 0.498385 0.498073 -0.461070
N2    N     N_R   0.148212 0.501634 0.501915 -0.461086
N3    N     N_3   0.500040 0.499970 0.858290 -0.156349
N4    N     N_3   0.499960 0.500030 0.141710 -0.156352
O1    O     O_R   0.500030 0.316850 0.620870 -0.587445
O2    O     O_R   0.499970 0.683150 0.379130 -0.587447
O3    O     O_R   0.500000 0.316860 0.379090 -0.581391
O4    O     O_R   0.500000 0.683140 0.620910 -0.581392
O5    O     O_R   0.417890 0.499960 0.620920 -0.584359
O6    O     O_R   0.582110 0.500040 0.379080 -0.584358
O7    O     O_R   0.417870 0.499970 0.379140 -0.584096
O8    O     O_R   0.582130 0.500030 0.620860 -0.584093
O9    O     O_2   0.850292 0.716314 0.537809 -0.523700
O10   O     O_2   0.149713 0.283715 0.462109 -0.523633
O11   O     O_2   0.849081 0.281296 0.462154 -0.527134
O12   O     O_2   0.150926 0.718707 0.537955 -0.527191
C45   C     C_3   0.944985 0.144296 0.427205 -0.721471
H21   H     H_    0.919345 0.114005 0.520596 0.259978
H22   H     H_    0.918191 0.149506 0.330346 0.269701
H23   H     H_    0.977112 0.069596 0.408162 0.195310
C46   C     C_3   0.055020 0.855742 0.572632 -0.721511
H24   H     H_    0.080678 0.885952 0.479244 0.259969
H25   H     H_    0.022893 0.930461 0.591559 0.195316
H26   H     H_    0.081798 0.850605 0.669520 0.269700
I1    I     I_    0.196457 0.487088 0.830294 -0.344236
I2    I     I_    0.803529 0.512012 0.169650 -0.344335

loop_
_geom_bond_atom_site_label_1
_geom_bond_atom_site_label_2
_ccdc_geom_bond_type
C46   H24   S    
C8    C24   S    
Cu1   O1    S    
C18   C21   S    
C6    H12   S    
C36   C42   A    
Cu2   O6    S    
Cu1   Cu2   S    
C31   N1    A    
C1    O1    A    
C28   C29   S    
C35   C37   A    
C26   H4    S    
C41   C45   S    
C7    C9    A    
C22   H20   S    
C17   H15   S    
C3    H9    S    
C43   H7    S    
C40   C43   A    
C14   N1    S    
Cu1   O8    S    
Cu2   O2    S    
C27   N3    S    
C32   N2    A    
C4    H10   S    
C27   C30   S    
C41   C43   A    
C42   C44   A    
C2    O2    A    
C30   N4    S    
C29   N3    S    
C25   C29   S    
C15   C20   S    
C28   N4    S    
Cu1   N3    S    
C4    C6    A    
C23   O5    A    
C5    C7    A    
C24   O6    A    
C6    C8    A    
Cu1   O4    S    
C9    H13   S    
C10   H14   S    
C37   C38   A    
C11   I1    S    
C32   O10   S    
C45   H21   S    
C23   O7    A    
C9    C11   A    
C2    O4    A    
C10   C12   A    
C24   O8    A    
C45   H22   S    
C20   C22   S    
C26   C30   S    
C46   H25   S    
C17   C19   S    
C33   N1    A    
C29   H5    S    
C27   H1    S    
C15   C17   S    
C30   H6    S    
C28   H2    S    
C1    C20   S    
C16   C22   S    
C21   H19   S    
C2    C19   S    
C12   I2    S    
C8    C10   A    
C18   H16   S    
C12   C14   A    
C3    C5    A    
C3    C13   A    
Cu2   O7    S    
C31   O9    S    
C39   C44   A    
C25   N4    S    
C25   C27   S    
C34   O12   S    
C26   C28   S    
C17   C22   S    
C5    H11   S    
Cu1   O5    S    
C1    O3    A    
C36   C38   A    
C37   C39   A    
C34   N2    A    
C38   C40   A    
C11   C13   A    
C16   C19   S    
C7    C23   S    
C33   C35   A    
C34   C36   A    
C31   C39   A    
C18   C20   S    
C32   C40   A    
C4    C14   A    
C35   C41   A    
C25   H3    S    
Cu2   N4    S    
C44   H8    S    
C15   C21   S    
C45   H23   S    
C16   C18   S    
C46   H26   S    
C26   N3    S    
C15   H17   S    
C42   C46   S    
C16   H18   S    
C33   O11   S    
Cu2   O3    S    
C19   C21   S    
C13   N2    S    
