data_mof_unit_11419.cif
_audit_creation_date              2012-12-11T15:14:51-0500
_audit_creation_method            fapswitch 2.2
_symmetry_space_group_name_H-M    P1
_symmetry_Int_Tables_number       1
_space_group_crystal_system       triclinic
_cell_length_a                    11.155758
_cell_length_b                    11.120003
_cell_length_c                    18.447289
_cell_angle_alpha                 89.278769
_cell_angle_beta                  90.247949
_cell_angle_gamma                 120.122339
_cell_volume                      1979.22381829

loop_
_atom_site_label
_atom_site_type_symbol
_atom_type_description
_atom_site_fract_x
_atom_site_fract_y
_atom_site_fract_z
_atom_type_partial_charge
C1    C     C_R   0.521150 0.455699 0.644231 0.616509
C2    C     C_R   0.423792 0.539972 0.362167 0.534832
C3    C     C_R   0.457783 0.880636 0.137938 0.535029
C4    C     C_R   0.060593 0.542851 0.353794 0.542480
C5    C     C_3   0.525228 0.115538 0.459202 -0.191030
C6    C     C_3   0.619764 0.520288 0.044208 -0.180997
C7    C     C_3   0.895527 0.375607 0.456713 -0.180728
C8    C     C_3   0.485309 0.060244 0.037499 -0.142976
C9    C     C_3   0.574908 0.507441 0.460888 -0.146359
C10   C     C_3   0.874055 0.409271 0.045327 -0.186426
C11   C     C_3   0.941907 0.362650 0.987276 -0.104657
C12   C     C_R   0.886052 0.456795 0.862312 0.541061
C13   C     C_3   0.596562 0.611500 0.521095 -0.057136
C14   C     C_3   0.383421 0.978751 0.976062 -0.056052
C15   C     C_3   0.990064 0.396319 0.522484 -0.071715
C16   C     C_3   0.599237 0.594832 0.978065 -0.073688
C17   C     C_3   0.409494 0.036928 0.516404 -0.092869
C18   C     C_3   0.633518 0.115823 0.512390 -0.172888
C19   C     C_3   0.545352 0.379971 0.003209 -0.215876
C20   C     C_3   0.831105 0.451399 0.497451 -0.216179
C21   C     C_3   0.609267 0.090238 0.988490 -0.170850
C22   C     C_3   0.479825 0.384103 0.511575 -0.176044
C23   C     C_R   0.551884 0.080455 0.641524 0.600970
C24   C     C_3   0.875008 0.517828 0.991162 -0.176915
C25   C     C_3   0.087419 0.474968 0.011784 -0.097795
C26   C     C_3   0.466527 0.615398 0.494872 -0.096234
C27   C     C_3   0.378879 0.843919 0.002665 -0.097868
C28   C     C_3   0.101960 0.537417 0.490331 -0.091625
C29   C     C_3   0.457880 0.563846 0.009127 -0.089131
C30   C     C_3   0.383908 0.896157 0.488222 -0.098979
C31   C     C_3   0.518695 0.037718 0.567584 0.029839
C32   C     C_3   0.523827 0.454934 0.938383 0.009677
C33   C     C_3   0.927303 0.473542 0.561714 0.007302
C34   C     C_R   0.541923 0.425109 0.863064 0.543683
C35   C     C_3   0.507477 0.007466 0.928266 0.021178
C36   C     C_3   0.500835 0.488701 0.570604 0.019936
C37   C     C_3   0.940219 0.470371 0.934914 0.026729
C38   C     C_3   0.018172 0.519971 0.069116 -0.003300
C39   C     C_3   0.447532 0.512778 0.436162 -0.007620
C40   C     C_3   0.480461 0.927061 0.062662 -0.011792
C41   C     C_3   0.005267 0.514128 0.426294 0.004026
C42   C     C_3   0.481637 0.490330 0.073461 0.003446
C43   C     C_3   0.499439 0.976188 0.431671 -0.003589
C44   C     C_3   0.493776 0.900012 0.541643 0.227718
C45   C     C_R   0.880866 0.456987 0.637303 0.552376
C46   C     C_3   0.384090 0.424161 0.969220 0.287836
C47   C     C_3   0.037505 0.612830 0.529812 0.286002
C48   C     C_3   0.504101 0.875507 0.953337 0.246611
C49   C     C_3   0.372245 0.491095 0.545533 0.250659
C50   C     C_3   0.083913 0.580358 0.957181 0.247908
C51   C     C_3   0.019019 0.627580 0.015108 0.228231
C52   C     C_3   0.352108 0.389204 0.485848 0.242303
C53   C     C_3   0.604730 0.956928 0.014120 0.240974
C54   C     C_3   0.942718 0.591192 0.465483 0.247167
C55   C     C_3   0.405555 0.350566 0.034070 0.245007
C56   C     C_R   0.543786 0.064232 0.855309 0.604729
C57   C     C_3   0.607628 0.976760 0.484663 0.233023
C58   C     C_R   0.455829 0.517706 0.146014 0.549674
C59   C     C_R   0.479670 0.932455 0.356342 0.542501
C60   C     C_R   0.067287 0.547132 0.143598 0.537949
Cl1   Cl    Cl    0.480686 0.789238 0.616145 -0.434890
Cl2   Cl    Cl    0.917280 0.726284 0.429058 -0.462118
Cl3   Cl    Cl    0.270942 0.189308 0.070062 -0.460940
Cl4   Cl    Cl    0.748333 0.949956 0.463951 -0.464537
Cl5   Cl    Cl    0.228124 0.353874 0.916999 -0.433215
Cl6   Cl    Cl    0.122425 0.769673 0.580886 -0.452291
Cl7   Cl    Cl    0.522545 0.776423 0.883044 -0.439310
Cl8   Cl    Cl    0.251068 0.470268 0.614733 -0.433957
Cl9   Cl    Cl    0.197325 0.670029 0.882790 -0.407514
Cl10  Cl    Cl    0.054693 0.799280 0.033796 -0.468500
Cl11  Cl    Cl    0.191874 0.239585 0.462384 -0.469539
Cl12  Cl    Cl    0.754476 0.947411 0.038719 -0.478346
Cr1   Cr    Cr6+3 0.769930 0.543130 0.750000 1.147337
Cr2   Cr    Cr6+3 0.773200 0.230070 0.750000 1.148214
Cr3   Cr    Cr6+3 0.456870 0.226800 0.750000 1.143708
Cr4   Cr    Cr6+3 0.543130 0.769930 0.250000 1.133893
Cr5   Cr    Cr6+3 0.230070 0.773200 0.250000 1.135452
Cr6   Cr    Cr6+3 0.226800 0.456870 0.250000 1.120365
H1    H     H_    0.731856 0.192574 0.536355 0.138208
H2    H     H_    0.212531 0.574515 0.481850 0.119224
H3    H     H_    0.416953 0.633760 0.017772 0.116260
H4    H     H_    0.285611 0.808074 0.469213 0.160597
H5    H     H_    0.540776 0.202611 0.422899 0.149806
H6    H     H_    0.712011 0.560428 0.079917 0.186084
H7    H     H_    0.841889 0.282328 0.422098 0.185888
H8    H     H_    0.482365 0.132155 0.077452 0.193044
H9    H     H_    0.648923 0.509208 0.420495 0.191011
H10   H     H_    0.788564 0.341768 0.083097 0.149296
H11   H     H_    0.918464 0.256419 0.972853 0.220529
H12   H     H_    0.589320 0.312811 0.995574 0.096451
H13   H     H_    0.696314 0.700548 0.539200 0.243349
H14   H     H_    0.295722 0.990540 0.956476 0.241099
H15   H     H_    0.003184 0.311518 0.546194 0.238585
H16   H     H_    0.683651 0.693594 0.954898 0.237733
H17   H     H_    0.326478 0.058549 0.532546 0.224880
H18   H     H_    0.720235 0.406659 0.506687 0.096962
H19   H     H_    0.695953 0.191716 0.974115 0.101253
H20   H     H_    0.487359 0.292961 0.526899 0.111628
H21   H     H_    0.804783 0.549138 0.967692 0.138759
H22   H     H_    0.174822 0.461492 0.029033 0.168164
H23   H     H_    0.453050 0.699746 0.473428 0.115909
H24   H     H_    0.293249 0.744824 0.022127 0.119387
O1    O     O_R   0.913270 0.574260 0.668550 -0.403025
O2    O     O_R   0.574260 0.913270 0.331450 -0.460043
O3    O     O_R   0.086730 0.660990 0.168550 -0.457601
O4    O     O_R   0.339010 0.425740 0.331450 -0.450370
O5    O     O_R   0.640160 0.530400 0.673300 -0.504158
O6    O     O_R   0.890240 0.359840 0.826700 -0.449667
O7    O     O_R   0.469600 0.109760 0.673300 -0.487573
O8    O     O_R   0.640160 0.530400 0.826700 -0.479040
O9    O     O_R   0.890240 0.359840 0.673300 -0.464042
O10   O     O_R   0.469600 0.109760 0.826700 -0.509094
O11   O     O_R   0.530400 0.640160 0.173300 -0.495131
O12   O     O_R   0.660990 0.086730 0.831450 -0.462437
O13   O     O_R   0.359840 0.890240 0.326700 -0.492118
O14   O     O_R   0.109760 0.469600 0.173300 -0.500125
O15   O     O_R   0.530400 0.640160 0.326700 -0.467701
O16   O     O_R   0.359840 0.890240 0.173300 -0.464185
O17   O     O_R   0.109760 0.469600 0.326700 -0.497802
O18   O     O_3   0.666667 0.333333 0.750000 -0.415756
O19   O     O_3   0.333333 0.666667 0.250000 -0.371583
O20   O     O_R   0.425740 0.339010 0.668550 -0.456291
O21   O     O_R   0.913270 0.574260 0.831450 -0.434348
O22   O     O_R   0.660990 0.086730 0.668550 -0.460930
O23   O     O_R   0.425740 0.339010 0.831450 -0.405512
O24   O     O_R   0.574260 0.913270 0.168550 -0.451478
O25   O     O_R   0.086730 0.660990 0.331450 -0.462127
O26   O     O_R   0.339010 0.425740 0.168550 -0.461828

loop_
_geom_bond_atom_site_label_1
_geom_bond_atom_site_label_2
_ccdc_geom_bond_type
C27   C48   S    
Cr4   O2    S    
Cr2   O22   S    
C28   C47   S    
C58   O26   A    
C13   C26   S    
C22   H20   S    
C49   Cl8   S    
C29   C42   S    
C24   H21   S    
C33   C45   S    
C60   O3    A    
Cr6   O26   S    
C42   C58   S    
C3    O24   A    
Cr1   O8    S    
C6    C19   S    
C10   H10   S    
Cr3   O10   S    
Cr4   O19   S    
C50   Cl9   S    
C26   H23   S    
C25   C38   S    
C18   C57   S    
C9    C22   S    
Cr1   O5    S    
C5    C17   S    
C4    C41   S    
C35   C48   S    
Cr2   O12   S    
C28   C41   S    
C9    C39   S    
Cr4   O24   S    
C12   C37   S    
C11   C37   S    
Cr6   O19   S    
C9    C13   S    
C1    O20   A    
C45   O1    A    
C25   C50   S    
C2    C39   S    
C18   H1    S    
Cr1   O21   S    
C55   Cl3   S    
C46   C55   S    
C58   O11   A    
C4    O17   A    
C17   H17   S    
C51   Cl10  S    
C14   C27   S    
C44   C57   S    
C47   Cl6   S    
Cr5   O25   S    
C43   C59   S    
C24   C51   S    
C7    C15   S    
C39   C52   S    
C5    C43   S    
Cr1   O18   S    
C13   H13   S    
C17   C30   S    
C30   C44   S    
C28   H2    S    
C19   C32   S    
C2    O15   A    
C24   C37   S    
C48   C53   S    
C23   O7    A    
Cr3   O7    S    
C6    H6    S    
C31   C44   S    
C13   C36   S    
C20   C54   S    
Cr5   O16   S    
C26   C49   S    
Cr2   O9    S    
C12   O6    A    
C5    C18   S    
C54   Cl2   S    
C10   C24   S    
C16   C29   S    
Cr2   O6    S    
C2    O4    A    
Cr3   O23   S    
C32   C34   S    
C30   H4    S    
C29   H3    S    
C3    O16   A    
C42   C55   S    
C21   H19   S    
C11   H11   S    
C25   H22   S    
C27   C40   S    
C49   C52   S    
C50   C51   S    
C14   H14   S    
C46   Cl5   S    
C47   C54   S    
C38   C60   S    
C20   C33   S    
C1    O5    A    
C3    C40   S    
C40   C53   S    
C33   C47   S    
C30   C43   S    
C60   O14   A    
C59   O2    A    
C14   C35   S    
Cr2   O18   S    
C57   Cl4   S    
C22   C52   S    
C19   C55   S    
C8    C14   S    
C4    O25   A    
C35   C56   S    
C32   C46   S    
Cr6   O14   S    
Cr3   O18   S    
C8    C21   S    
C15   H15   S    
C45   O9    A    
C5    H5    S    
C23   O22   A    
C38   C51   S    
C44   Cl1   S    
C16   C32   S    
C22   C36   S    
C27   H24   S    
C16   H16   S    
Cr4   O15   S    
Cr6   O4    S    
C29   C46   S    
C10   C38   S    
Cr4   O11   S    
C21   C35   S    
C19   H12   S    
C9    H9    S    
C21   C53   S    
C37   C50   S    
C15   C28   S    
C7    H7    S    
C12   O21   A    
C34   O23   A    
C17   C31   S    
Cr5   O3    S    
C15   C33   S    
Cr6   O17   S    
C8    H8    S    
C7    C41   S    
C48   Cl7   S    
C20   H18   S    
C26   C39   S    
Cr3   O20   S    
C41   C54   S    
Cr5   O19   S    
C10   C11   S    
C43   C57   S    
C6    C16   S    
C56   O12   A    
Cr1   O1    S    
C59   O13   A    
C7    C20   S    
C6    C42   S    
C52   Cl11  S    
C11   C25   S    
C18   C31   S    
C8    C40   S    
C34   O8    A    
Cr5   O13   S    
C53   Cl12  S    
C56   O10   A    
C36   C49   S    
C1    C36   S    
C23   C31   S    
