data_mof_unit_12997.cif
_audit_creation_date              2012-10-26T21:00:44-0400
_audit_creation_method            fapswitch 2.2
_symmetry_space_group_name_H-M    P1
_symmetry_Int_Tables_number       1
_space_group_crystal_system       triclinic
_cell_length_a                    10.802888
_cell_length_b                    9.503737
_cell_length_c                    10.816726
_cell_angle_alpha                 88.603612
_cell_angle_beta                  90.845667
_cell_angle_gamma                 89.696331
_cell_volume                      1110.06101594

loop_
_atom_site_label
_atom_site_type_symbol
_atom_type_description
_atom_site_fract_x
_atom_site_fract_y
_atom_site_fract_z
_atom_type_partial_charge
C1    C     C_R   0.262072 0.500373 0.497424 0.576448
C2    C     C_R   0.511024 0.498302 0.737614 0.580855
C3    C     C_R   0.515619 0.774583 0.098389 0.251359
C4    C     C_R   0.647437 0.716230 0.885530 0.250309
C5    C     C_R   0.587738 0.878540 0.041800 -0.118084
C6    C     C_R   0.659474 0.846658 0.940677 -0.092037
C7    C     C_R   0.565466 0.614425 0.936088 0.005091
C8    C     C_R   0.520348 0.633970 0.056115 0.024422
C9    C     C_R   0.485197 0.511091 0.125743 0.035404
C10   C     C_R   0.524687 0.494849 0.872065 0.022611
C11   C     C_R   0.463106 0.385315 0.064378 -0.143244
C12   C     C_R   0.737616 0.499673 0.496702 0.612033
C13   C     C_R   0.475928 0.379813 0.937679 -0.152585
C14   C     C_R   0.065265 0.405462 0.569281 -0.164856
C15   C     C_R   0.937209 0.404862 0.568925 -0.142204
C16   C     C_R   0.871110 0.499178 0.491572 0.016524
C17   C     C_R   0.128036 0.500942 0.492838 -0.011179
C18   C     C_R   0.932986 0.591744 0.410402 0.249647
C19   C     C_R   0.062191 0.593350 0.411747 0.257346
C20   C     C_R   0.422437 0.072872 0.575019 0.031706
C21   C     C_R   0.577853 0.076082 0.425331 0.040656
C22   C     C_R   0.422350 0.923929 0.574922 0.055784
C23   C     C_R   0.578046 0.927229 0.425607 0.080226
C24   C     C_R   0.492215 0.503074 0.261443 0.588040
Cl1   Cl    Cl    0.393661 0.837392 0.188303 -0.510723
Cl2   Cl    Cl    0.753117 0.676968 0.768854 -0.579585
Cl3   Cl    Cl    0.850015 0.698627 0.300967 -0.542436
Cl4   Cl    Cl    0.139587 0.705257 0.306320 -0.413060
Cu1   Cu    Cu3+1 0.500000 0.640660 0.500000 1.103996
Cu2   Cu    Cu3+1 0.500000 0.359340 0.500000 0.981819
H1    H     H_    0.433029 0.291519 0.114107 0.161547
H2    H     H_    0.639726 0.872504 0.365262 0.172345
H3    H     H_    0.447041 0.285568 0.891070 0.141421
H4    H     H_    0.586375 0.985226 0.074823 0.140509
H5    H     H_    0.720688 0.925536 0.901986 0.164765
H6    H     H_    0.115536 0.333248 0.631019 0.145615
H7    H     H_    0.889555 0.332606 0.630710 0.160173
H8    H     H_    0.360395 0.127828 0.635112 0.113250
H9    H     H_    0.639941 0.133513 0.365219 0.127942
H10   H     H_    0.360156 0.866435 0.634871 0.124537
N1    N     N_R   0.500000 0.852070 0.500000 -0.210866
N2    N     N_R   0.500000 0.147940 0.500000 -0.235065
O1    O     O_R   0.319640 0.618740 0.499990 -0.457582
O2    O     O_R   0.680360 0.618740 0.500010 -0.435202
O3    O     O_R   0.319620 0.381170 0.499990 -0.511691
O4    O     O_R   0.680380 0.381170 0.500010 -0.522283
O5    O     O_R   0.500000 0.618810 0.319650 -0.441972
O6    O     O_R   0.500000 0.618810 0.680350 -0.488483
O7    O     O_R   0.499970 0.381240 0.319640 -0.519186
O8    O     O_R   0.500030 0.381240 0.680360 -0.524057

loop_
_geom_bond_atom_site_label_1
_geom_bond_atom_site_label_2
_ccdc_geom_bond_type
C2    O6    A    
C7    C10   A    
C20   N2    A    
C9    C24   S    
C13   H3    S    
Cu1   Cu2   S    
C20   H8    S    
Cu2   O3    S    
C4    Cl2   S    
C23   N1    A    
C3    Cl1   S    
C22   H10   S    
C5    H4    S    
Cu2   O8    S    
C11   H1    S    
C7    C8    A    
C12   O2    A    
Cu1   O1    S    
C19   Cl4   S    
C9    C11   A    
C14   C17   A    
C1    O3    A    
Cu1   O5    S    
C4    C7    A    
C12   O4    A    
C17   C19   A    
Cu2   O7    S    
C20   C22   A    
C3    C8    A    
C21   C23   A    
Cu1   O2    S    
C14   H6    S    
C5    C6    A    
Cu2   O4    S    
C22   N1    A    
C15   C16   A    
Cu1   O6    S    
C4    C6    A    
C21   N2    A    
C2    C10   S    
C11   C13   A    
C6    H5    S    
C16   C18   A    
C18   C19   A    
C24   O7    A    
C14   C15   A    
Cu2   N2    S    
C2    O8    A    
Cu1   N1    S    
C24   O5    A    
C1    C17   S    
C1    O1    A    
C15   H7    S    
C18   Cl3   S    
C12   C16   S    
C23   H2    S    
C8    C9    A    
C3    C5    A    
C10   C13   A    
C21   H9    S    
