data_mof_unit_23177.cif
_audit_creation_date              2012-12-11T14:58:44-0500
_audit_creation_method            fapswitch 2.2
_symmetry_space_group_name_H-M    P1
_symmetry_Int_Tables_number       1
_space_group_crystal_system       triclinic
_cell_length_a                    10.904206
_cell_length_b                    10.964216
_cell_length_c                    18.706344
_cell_angle_alpha                 89.864174
_cell_angle_beta                  90.314474
_cell_angle_gamma                 60.142873
_cell_volume                      1939.54815356

loop_
_atom_site_label
_atom_site_type_symbol
_atom_type_description
_atom_site_fract_x
_atom_site_fract_y
_atom_site_fract_z
_atom_type_partial_charge
C1    C     C_R   0.355402 0.778768 0.399012 0.511367
C2    C     C_R   0.255360 0.449129 0.193352 -0.144972
C3    C     C_R   0.248501 0.451315 0.267498 -0.034936
C4    C     C_R   0.387809 0.357650 0.385823 0.536227
C5    C     C_R   0.836160 0.734949 0.349828 -0.101433
C6    C     C_R   0.854020 0.632481 0.300314 -0.108590
C7    C     C_R   0.988723 0.539962 0.274212 -0.117369
C8    C     C_R   0.106765 0.547328 0.297551 0.011122
C9    C     C_R   0.369833 0.352717 0.307574 -0.001862
C10   C     C_R   0.898688 0.308188 0.307563 -0.053672
C11   C     C_R   0.944263 0.281317 0.237696 -0.118743
C12   C     C_R   0.624688 0.135645 0.161495 0.063143
C13   C     C_R   0.847673 0.339252 0.181373 0.030065
C14   C     C_R   0.702832 0.421861 0.194780 -0.137381
C15   C     C_R   0.656011 0.446035 0.265446 -0.160101
C16   C     C_R   0.710220 0.417331 0.394940 0.550129
C17   C     C_R   0.754917 0.389497 0.321564 0.043254
C18   C     C_R   0.445093 0.844898 0.293077 -0.156302
C19   C     C_R   0.428844 0.883173 0.221043 -0.145734
C20   C     C_R   0.296517 0.934410 0.188533 -0.008056
C21   C     C_R   0.179666 0.959036 0.229771 -0.112602
C22   C     C_R   0.192403 0.933217 0.302817 -0.009037
C23   C     C_R   0.367651 0.338757 0.157873 -0.005567
C24   C     C_R   0.329123 0.861739 0.333284 -0.013220
C25   C     C_R   0.388932 0.200461 0.694674 -0.139124
C26   C     C_R   0.383023 0.189054 0.767204 -0.126166
C27   C     C_R   0.302928 0.308961 0.809310 0.031197
C28   C     C_R   0.342690 0.773169 0.603131 0.549575
C29   C     C_R   0.224706 0.441046 0.777642 -0.158196
C30   C     C_R   0.232263 0.453153 0.704289 -0.136477
C31   C     C_R   0.319942 0.332981 0.663435 0.029423
C32   C     C_R   0.911961 0.388156 0.706289 -0.127338
C33   C     C_R   0.947111 0.371507 0.777978 -0.131663
C34   C     C_R   0.492003 0.257654 0.270172 -0.146555
C35   C     C_R   0.914135 0.288127 0.821359 0.024639
C36   C     C_R   0.850013 0.216224 0.791883 -0.141747
C37   C     C_R   0.813400 0.233612 0.719769 -0.138483
C38   C     C_R   0.839553 0.324163 0.677503 0.028632
C39   C     C_R   0.176981 0.884483 0.702602 -0.129237
C40   C     C_R   0.368118 0.350308 0.594908 0.553077
C41   C     C_R   0.156502 0.915071 0.774723 -0.139464
C42   C     C_R   0.266990 0.906678 0.816278 0.033686
C43   C     C_R   0.398604 0.866928 0.785152 -0.134393
C44   C     C_R   0.419340 0.836212 0.713367 -0.145303
C45   C     C_R   0.493219 0.247205 0.196083 -0.024053
C46   C     C_R   0.309963 0.841071 0.672127 0.030154
C47   C     C_R   0.904821 0.317653 0.110088 0.536779
C48   C     C_R   0.331725 0.296319 0.090376 0.534840
C49   C     C_R   0.271845 0.962654 0.112045 0.568505
C50   C     C_R   0.946221 0.281948 0.897041 0.554006
C51   C     C_R   0.294507 0.286567 0.884562 0.533586
C52   C     C_R   0.768104 0.373837 0.609090 0.554591
C53   C     C_R   0.242506 0.950133 0.890365 0.545324
C54   C     C_R   0.863919 0.921213 0.092935 -0.101695
C55   C     C_R   0.789127 0.054865 0.062068 -0.076356
C56   C     C_R   0.081691 0.665645 0.335260 -0.033701
C57   C     C_R   0.672902 0.162816 0.097034 -0.052061
C58   C     C_2   0.062414 0.982100 0.345897 0.190807
C59   C     C_R   0.950482 0.753242 0.366565 -0.073307
C60   C     C_R   0.700785 0.999815 0.191918 -0.065593
C61   C     C_R   0.820403 0.894029 0.158082 -0.100185
Cr1   Cr    Cr6+3 0.601770 0.606860 0.505860 1.004918
Cr2   Cr    Cr6+3 0.291380 0.601660 0.495070 0.995410
Cr3   Cr    Cr6+3 0.606880 0.291510 0.499120 1.019332
Cr4   Cr    Cr6+3 0.062440 0.063090 0.008210 0.976096
Cr5   Cr    Cr6+3 0.062880 0.375170 0.998920 0.996093
Cr6   Cr    Cr6+3 0.374700 0.061720 0.992470 1.011348
H1    H     H_    0.589482 0.190081 0.298805 0.170441
H2    H     H_    0.520304 0.864240 0.190183 0.136119
H3    H     H_    0.076399 0.001924 0.204663 0.188194
H4    H     H_    0.878135 0.790217 0.181719 0.126068
H5    H     H_    0.456400 0.107167 0.663968 0.125292
H6    H     H_    0.444242 0.085441 0.790361 0.134149
H7    H     H_    0.160585 0.533672 0.809408 0.122716
H8    H     H_    0.178083 0.557406 0.680643 0.140936
H9    H     H_    0.933152 0.458342 0.674550 0.131515
H10   H     H_    0.994071 0.429226 0.800584 0.135266
H11   H     H_    0.823241 0.151608 0.824832 0.125543
H12   H     H_    0.733175 0.805607 0.371677 0.110063
H13   H     H_    0.756224 0.184279 0.698501 0.133777
H14   H     H_    0.091055 0.887828 0.671676 0.129427
H15   H     H_    0.935333 0.838844 0.400761 0.140140
H16   H     H_    0.055469 0.943288 0.798178 0.120338
H17   H     H_    0.487003 0.857481 0.816244 0.135367
H18   H     H_    0.523244 0.801216 0.691324 0.132319
H19   H     H_    0.955142 0.838536 0.066177 0.117729
H20   H     H_    0.821566 0.074963 0.011024 0.144402
H21   H     H_    0.617674 0.266352 0.072673 0.101129
H22   H     H_    0.161769 0.692940 0.333250 0.172628
H23   H     H_    0.764254 0.626441 0.280609 0.121076
H24   H     H_    0.666309 0.974477 0.241107 0.104470
H25   H     H_    0.162470 0.523864 0.163308 0.137901
H26   H     H_    0.066570 0.988572 0.403635 0.127106
H27   H     H_    0.001046 0.469526 0.231749 0.130096
H28   H     H_    0.975698 0.269027 0.350756 0.128486
H29   H     H_    0.056552 0.227356 0.227436 0.094183
H30   H     H_    0.627478 0.467993 0.151190 0.117581
H31   H     H_    0.544175 0.510544 0.276416 0.110276
H32   H     H_    0.549408 0.793765 0.316280 0.122071
O1    O     O_R   0.748800 0.497470 0.428000 -0.517945
O2    O     O_R   0.417600 0.174890 0.067840 -0.515015
O3    O     O_R   0.375320 0.946260 0.070860 -0.483251
O4    O     O_R   0.476420 0.724060 0.429470 -0.516568
O5    O     O_R   0.160600 0.919630 0.926660 -0.518356
O6    O     O_R   0.933060 0.190520 0.936020 -0.538589
O7    O     O_R   0.908880 0.403460 0.925020 -0.503803
O8    O     O_R   0.179600 0.361450 0.918490 -0.523460
O9    O     O_R   0.391510 0.170860 0.907530 -0.534251
O10   O     O_R   0.351130 0.942530 0.922260 -0.498799
O11   O     O_3   0.166667 0.166667 0.999870 -0.301475
O12   O     O_R   0.300070 0.471040 0.567100 -0.502850
O13   O     O_R   0.264580 0.744340 0.416750 -0.561082
O14   O     O_R   0.309380 0.472470 0.418200 -0.502518
O15   O     O_R   0.501710 0.260430 0.414300 -0.527768
O16   O     O_R   0.728090 0.305600 0.428960 -0.484832
O17   O     O_R   0.738760 0.495930 0.588610 -0.518140
O18   O     O_R   0.467110 0.722640 0.578360 -0.502652
O19   O     O_R   0.254530 0.742800 0.577360 -0.530138
O20   O     O_2   0.948270 0.018384 0.317251 -0.537894
O21   O     O_R   0.491670 0.258900 0.574910 -0.520693
O22   O     O_R   0.718780 0.304180 0.577850 -0.502688
O23   O     O_3   0.500010 0.500010 0.500020 -0.265018
O24   O     O_R   0.186690 0.923650 0.086970 -0.515828
O25   O     O_R   0.957250 0.194250 0.084630 -0.520015
O26   O     O_R   0.934970 0.407490 0.085330 -0.513857
O27   O     O_R   0.203780 0.365190 0.067090 -0.505971

loop_
_geom_bond_atom_site_label_1
_geom_bond_atom_site_label_2
_ccdc_geom_bond_type
C11   H29   S    
C25   C31   A    
C23   C45   A    
C27   C29   A    
C41   C42   A    
C19   C20   A    
C59   H15   S    
Cr5   O8    S    
C8    C56   A    
C7    C8    A    
C39   C41   A    
C28   C46   S    
C26   C27   A    
C29   C30   A    
C18   C24   A    
C4    O15   A    
C36   C37   A    
C37   C38   A    
C28   O18   A    
C1    O13   A    
C30   C31   A    
Cr6   O9    S    
C38   C52   S    
C10   C17   A    
Cr3   O22   S    
C41   H16   S    
C26   H6    S    
C31   C40   S    
C18   C19   A    
Cr4   O25   S    
Cr2   O13   S    
Cr1   O18   S    
C13   C47   S    
Cr6   O10   S    
C35   C36   A    
C27   C51   S    
C16   C17   S    
C50   O6    A    
C32   C38   A    
C5    H12   S    
C1    O4    A    
C61   H4    S    
Cr3   O16   S    
C21   C22   A    
Cr2   O12   S    
C43   H17   S    
Cr5   O7    S    
Cr4   O6    S    
C44   C46   A    
C47   O26   A    
C40   O12   A    
C52   O17   A    
C37   H13   S    
Cr3   O15   S    
C5    C59   A    
C4    O14   A    
C39   H14   S    
C3    C8    S    
C34   H1    S    
C49   O3    A    
C34   C45   A    
Cr2   O19   S    
C16   O1    A    
C29   H7    S    
C25   C26   A    
C6    H23   S    
Cr5   O27   S    
C60   C61   A    
Cr2   O14   S    
C43   C44   A    
Cr1   O17   S    
C20   C49   S    
C3    C9    A    
C52   O22   A    
Cr6   O11   S    
C35   C50   S    
C25   H5    S    
Cr5   O11   S    
C2    H25   S    
C22   C58   S    
C39   C46   A    
Cr1   O1    S    
C12   C57   A    
C56   H22   S    
C40   O21   A    
C51   O9    A    
C55   C57   A    
C9    C34   A    
C22   C24   A    
C19   H2    S    
C42   C43   A    
C15   H31   S    
C44   H18   S    
C16   O16   A    
Cr1   O23   S    
Cr2   O23   S    
Cr6   O2    S    
C14   H30   S    
C54   H19   S    
Cr1   O4    S    
C60   H24   S    
C53   O10   A    
C15   C17   A    
C7    H27   S    
C54   C55   A    
C23   C48   S    
C58   H26   S    
C12   C45   S    
C32   H9    S    
Cr5   O26   S    
C6    C7    A    
C54   C61   A    
Cr3   O21   S    
C56   C59   A    
C21   H3    S    
C32   C33   A    
C2    C3    A    
C57   H21   S    
C42   C53   S    
C36   H11   S    
C30   H8    S    
C11   C13   A    
C33   H10   S    
C47   O25   A    
C5    C6    A    
C10   H28   S    
Cr3   O23   S    
C48   O2    A    
C58   O20   D    
C33   C35   A    
Cr4   O24   S    
C55   H20   S    
Cr4   O11   S    
C10   C11   A    
C48   O27   A    
C12   C60   A    
C20   C21   A    
C1    C24   S    
C51   O8    A    
C18   H32   S    
C2    C23   A    
C50   O7    A    
C14   C15   A    
C28   O19   A    
C53   O5    A    
Cr4   O5    S    
C4    C9    S    
C13   C14   A    
Cr6   O3    S    
C49   O24   A    
