data_mof_unit_50815.cif
_audit_creation_date              2012-10-26T21:05:43-0400
_audit_creation_method            fapswitch 2.2
_symmetry_space_group_name_H-M    P1
_symmetry_Int_Tables_number       1
_space_group_crystal_system       triclinic
_cell_length_a                    13.067972
_cell_length_b                    9.090783
_cell_length_c                    7.799402
_cell_angle_alpha                 89.942168
_cell_angle_beta                  95.667652
_cell_angle_gamma                 89.94875
_cell_volume                      922.02371749

loop_
_atom_site_label
_atom_site_type_symbol
_atom_type_description
_atom_site_fract_x
_atom_site_fract_y
_atom_site_fract_z
_atom_type_partial_charge
C1    C     C_R   0.500098 0.220103 0.500069 0.542488
C2    C     C_R   0.870928 0.508410 0.721862 -0.003138
C3    C     C_R   0.135840 0.513158 0.593226 -0.148421
C4    C     C_R   0.866501 0.477207 0.411026 -0.151113
C5    C     C_R   0.029164 0.506275 0.583162 0.026922
C6    C     C_R   0.973240 0.473138 0.425223 0.030106
C7    C     C_1   0.499961 0.065427 0.500042 -0.067268
C8    C     C_1   0.499901 0.934642 0.499885 -0.060868
C9    C     C_3   0.824653 0.479749 0.889702 -0.228839
C10   C     C_3   0.805068 0.312675 0.908563 -0.289629
C11   C     C_3   0.710507 0.277238 0.001013 -0.412610
C12   C     C_R   0.499918 0.779918 0.499929 0.559998
C13   C     C_3   0.180311 0.375665 0.136686 -0.241310
C14   C     C_3   0.232431 0.225786 0.172532 -0.281696
C15   C     C_3   0.288616 0.175877 0.020178 -0.422212
C16   C     C_R   0.300276 0.493694 0.468110 0.536903
C17   C     C_R   0.700295 0.497752 0.532847 0.541909
C18   C     C_R   0.813691 0.496120 0.556820 0.003794
C19   C     C_R   0.188008 0.480710 0.448770 0.008050
C20   C     C_R   0.024535 0.431596 0.284598 -0.128050
C21   C     C_R   0.977968 0.524467 0.730529 -0.124528
C22   C     C_R   0.131618 0.432436 0.293281 -0.010717
Cu1   Cu    Cu3+1 0.500010 0.500000 0.669080 0.965621
Cu2   Cu    Cu3+1 0.499990 0.500000 0.330920 0.970898
H1    H     H_    0.824762 0.461950 0.286166 0.117917
H2    H     H_    0.877913 0.518015 0.999210 0.102121
H3    H     H_    0.756347 0.548793 0.904307 0.184915
H4    H     H_    0.233933 0.166418 0.902262 0.147017
H5    H     H_    0.350019 0.255571 0.996375 0.184535
H6    H     H_    0.324546 0.066730 0.048906 0.149348
H7    H     H_    0.288347 0.230323 0.288981 0.183609
H8    H     H_    0.173071 0.142670 0.196323 0.152115
H9    H     H_    0.120822 0.360294 0.026080 0.117538
H10   H     H_    0.233705 0.458115 0.090444 0.176986
H11   H     H_    0.178247 0.543197 0.714734 0.122391
H12   H     H_    0.981294 0.390571 0.170397 0.094824
H13   H     H_    0.022125 0.540333 0.854190 0.094478
H14   H     H_    0.706847 0.345354 0.117295 0.171005
H15   H     H_    0.640001 0.295605 0.912982 0.203985
H16   H     H_    0.712325 0.159584 0.039603 0.133602
H17   H     H_    0.794184 0.258147 0.780403 0.170162
H18   H     H_    0.873606 0.260477 0.979071 0.139777
N1    N     N_1   0.499980 0.500000 0.076820 -0.106095
N2    N     N_1   0.500020 0.500000 0.923180 -0.114794
O1    O     O_R   0.500000 0.288400 0.642760 -0.512106
O2    O     O_R   0.500000 0.711600 0.357240 -0.488493
O3    O     O_R   0.500000 0.288400 0.357240 -0.504806
O4    O     O_R   0.500000 0.711600 0.642760 -0.489623
O5    O     O_R   0.349000 0.500000 0.619590 -0.508856
O6    O     O_R   0.651000 0.500000 0.380410 -0.515254
O7    O     O_R   0.348990 0.500000 0.334020 -0.509706
O8    O     O_R   0.651010 0.500000 0.665980 -0.512883

loop_
_geom_bond_atom_site_label_1
_geom_bond_atom_site_label_2
_ccdc_geom_bond_type
C17   O6    A    
C13   C22   S    
C11   H14   S    
N1    N2    T    
C3    C19   A    
Cu1   O1    S    
C8    C12   S    
C10   H18   S    
C6    C20   A    
C9    C10   S    
C16   O7    A    
C3    H11   S    
C14   H7    S    
C12   O4    A    
C4    C18   A    
Cu2   O7    S    
C17   C18   S    
Cu1   O8    S    
C5    C21   A    
C7    C8    T    
C13   C14   S    
C10   H17   S    
C11   H15   S    
Cu2   O3    S    
C1    O1    A    
C15   H4    S    
C5    C6    A    
C2    C21   A    
C16   C19   S    
C17   O8    A    
C4    C6    A    
C20   C22   A    
C9    H2    S    
C15   H5    S    
Cu2   O6    S    
C11   H16   S    
Cu1   O5    S    
C2    C18   A    
C10   C11   S    
Cu1   Cu2   S    
C20   H12   S    
C4    H1    S    
C13   H10   S    
C19   C22   A    
C21   H13   S    
C16   O5    A    
C9    H3    S    
C15   H6    S    
C12   O2    A    
C13   H9    S    
Cu2   N1    S    
C14   C15   S    
C1    O3    A    
Cu1   O4    S    
C1    C7    S    
C2    C9    S    
Cu1   N2    S    
C14   H8    S    
Cu2   O2    S    
C3    C5    A    
