data_mof_unit_56371.cif
_audit_creation_date              2012-12-10T20:11:18-0500
_audit_creation_method            fapswitch 2.2
_symmetry_space_group_name_H-M    P1
_symmetry_Int_Tables_number       1
_space_group_crystal_system       triclinic
_cell_length_a                    15.914106
_cell_length_b                    15.931269
_cell_length_c                    51.747726
_cell_angle_alpha                 89.8999
_cell_angle_beta                  89.926837
_cell_angle_gamma                 89.97477
_cell_volume                      13119.6675009

loop_
_atom_site_label
_atom_site_type_symbol
_atom_type_description
_atom_site_fract_x
_atom_site_fract_y
_atom_site_fract_z
_atom_type_partial_charge
C1    C     C_R   0.922942 0.509867 0.636179 -0.080874
C2    C     C_R   0.921708 0.499247 0.363449 -0.089971
C3    C     C_R   0.496188 0.923461 0.636056 -0.080327
C4    C     C_R   0.545017 0.925653 0.361848 -0.084302
C5    C     C_R   0.076376 0.495911 0.635904 -0.081024
C6    C     C_R   0.071658 0.535609 0.363207 -0.088470
C7    C     C_R   0.509267 0.076773 0.636030 -0.081756
C8    C     C_R   0.486310 0.067932 0.364444 -0.085036
C9    C     C_R   0.424126 0.017673 0.136503 -0.081842
C10   C     C_R   0.427534 0.992698 0.864236 -0.085210
C11   C     C_R   0.984255 0.424417 0.136523 -0.081440
C12   C     C_R   0.023526 0.422491 0.862863 -0.083942
C13   C     C_R   0.575065 0.986725 0.136185 -0.081691
C14   C     C_R   0.571650 0.047037 0.862191 -0.088589
C15   C     C_R   0.017718 0.574681 0.136289 -0.082958
C16   C     C_R   0.976917 0.569584 0.863894 -0.092436
C17   C     C_R   0.500341 0.023406 0.985980 -0.035842
C18   C     C_R   0.499157 0.018336 0.013408 -0.048664
C19   C     C_R   0.996816 0.495573 0.986132 -0.036942
C20   C     C_R   0.997552 0.497253 0.013534 -0.050997
C21   C     C_R   0.996802 0.524295 0.485947 -0.037535
C22   C     C_R   0.997692 0.520173 0.513344 -0.049842
C23   C     C_R   0.516207 0.994594 0.485839 -0.037912
C24   C     C_R   0.512798 0.997446 0.513242 -0.049508
C25   C     C_R   0.558790 0.880915 0.984140 -0.069429
C26   C     C_R   0.438965 0.159375 0.015745 -0.061056
C27   C     C_R   0.137054 0.559349 0.985638 -0.060914
C28   C     C_R   0.853615 0.443117 0.014315 -0.060242
C29   C     C_R   0.435087 0.162519 0.988509 -0.069695
C30   C     C_R   0.554067 0.874939 0.011359 -0.061727
C31   C     C_R   0.852482 0.441750 0.987042 -0.072304
C32   C     C_R   0.139205 0.557555 0.012933 -0.053506
C33   C     C_R   0.056126 0.382384 0.484076 -0.060351
C34   C     C_R   0.941761 0.663184 0.515486 -0.060605
C35   C     C_R   0.654891 0.061616 0.487076 -0.061643
C36   C     C_R   0.369133 0.942252 0.512268 -0.062243
C37   C     C_R   0.940711 0.667375 0.488223 -0.071038
C38   C     C_R   0.055123 0.377521 0.511330 -0.058186
C39   C     C_R   0.372388 0.938821 0.484987 -0.068172
C40   C     C_R   0.652906 0.060912 0.514353 -0.056497
C41   C     C_R   0.922299 0.507777 0.608810 0.130730
C42   C     C_R   0.918416 0.514689 0.390413 0.137642
C43   C     C_R   0.503316 0.922965 0.608754 0.129949
C44   C     C_R   0.549707 0.921830 0.389230 0.145296
C45   C     C_R   0.076635 0.503378 0.608593 0.131993
C46   C     C_R   0.069828 0.543175 0.390549 0.135315
C47   C     C_R   0.506300 0.077156 0.608652 0.132868
C48   C     C_R   0.496308 0.066262 0.391646 0.129141
C49   C     C_R   0.422689 0.013095 0.109153 0.134373
C50   C     C_R   0.426519 0.006244 0.891336 0.128305
C51   C     C_R   0.991185 0.422650 0.109231 0.132663
C52   C     C_R   0.019675 0.418928 0.890239 0.140931
C53   C     C_R   0.576187 0.995143 0.108884 0.132358
C54   C     C_R   0.571906 0.056874 0.889484 0.147557
C55   C     C_R   0.011557 0.575734 0.108958 0.133859
C56   C     C_R   0.977777 0.567331 0.891286 0.135979
C57   C     C_R   0.999339 0.507572 0.595156 0.225058
C58   C     C_R   0.993181 0.532257 0.404022 0.250732
C59   C     C_R   0.505845 0.000015 0.595140 0.224562
C60   C     C_R   0.524523 0.992068 0.403998 0.241730
C61   C     C_R   0.499377 0.005678 0.095392 0.216927
C62   C     C_R   0.499821 0.034953 0.904001 0.246526
C63   C     C_R   0.001051 0.499025 0.095478 0.215918
C64   C     C_R   0.997622 0.491691 0.904292 0.248879
C65   C     C_R   0.000354 0.499610 0.820322 0.808169
C66   C     C_R   0.000104 0.500016 0.179627 0.808529
C67   C     C_R   0.500020 0.002015 0.820357 0.810142
C68   C     C_R   0.499987 0.000203 0.179604 0.807886
C69   C     C_R   0.501883 0.999639 0.320300 0.812168
C70   C     C_R   0.500242 0.000063 0.679539 0.805557
C71   C     C_R   0.999745 0.501507 0.320376 0.808149
C72   C     C_R   0.999999 0.500226 0.679531 0.806211
C73   C     C_R   0.839705 0.660234 0.750000 0.846708
C74   C     C_R   0.160282 0.339740 0.250006 0.845014
C75   C     C_R   0.339701 0.839734 0.750018 0.849824
C76   C     C_R   0.660319 0.160258 0.249985 0.844489
C77   C     C_R   0.160314 0.339729 0.750003 0.848975
C78   C     C_R   0.839692 0.660292 0.250001 0.845881
C79   C     C_R   0.660294 0.160278 0.749982 0.848107
C80   C     C_R   0.339722 0.839691 0.250000 0.846257
C81   C     C_R   0.839678 0.339757 0.250007 0.850678
C82   C     C_R   0.160329 0.660246 0.749990 0.845563
C83   C     C_R   0.339715 0.160245 0.249996 0.850135
C84   C     C_R   0.660277 0.839736 0.750007 0.845830
C85   C     C_R   0.160277 0.660295 0.249993 0.848242
C86   C     C_R   0.839720 0.339693 0.750000 0.846724
C87   C     C_R   0.660257 0.839674 0.249971 0.852345
C88   C     C_R   0.339708 0.160305 0.750009 0.846230
C89   C     C_R   0.999794 0.501824 0.650181 -0.196632
C90   C     C_R   0.998201 0.510805 0.349419 -0.184774
C91   C     C_R   0.501720 0.000138 0.650186 -0.196723
C92   C     C_R   0.510664 0.997756 0.349265 -0.185152
C93   C     C_R   0.499742 0.001439 0.150390 -0.199486
C94   C     C_R   0.500128 0.012858 0.849346 -0.182159
C95   C     C_R   0.000577 0.499790 0.150437 -0.198787
C96   C     C_R   0.000697 0.497533 0.849409 -0.185086
C97   C     C_1   0.776622 0.276544 0.749979 -0.188312
C98   C     C_1   0.223390 0.723406 0.249984 -0.184818
C99   C     C_1   0.723401 0.776583 0.750013 -0.183497
C100  C     C_1   0.276577 0.223360 0.249995 -0.179329
C101  C     C_1   0.223483 0.723347 0.749990 -0.182099
C102  C     C_1   0.776554 0.276649 0.250007 -0.178722
C103  C     C_1   0.276601 0.223433 0.750014 -0.185678
C104  C     C_1   0.723356 0.776559 0.249940 -0.186153
C105  C     C_1   0.776535 0.723368 0.249968 -0.191346
C106  C     C_1   0.223434 0.276637 0.750005 -0.185741
C107  C     C_1   0.723453 0.223380 0.249973 -0.182481
C108  C     C_1   0.276588 0.776611 0.750026 -0.180273
C109  C     C_1   0.223416 0.276596 0.250009 -0.183423
C110  C     C_1   0.776562 0.723346 0.750000 -0.183935
C111  C     C_1   0.276600 0.776561 0.249996 -0.185984
C112  C     C_1   0.723418 0.223383 0.749955 -0.188954
C113  C     C_R   0.473264 0.100125 0.945914 0.485290
C114  C     C_R   0.513069 0.938695 0.053366 0.502141
C115  C     C_R   0.926439 0.467405 0.945185 0.486714
C116  C     C_R   0.072398 0.513084 0.054140 0.507149
C117  C     C_R   0.535600 0.964439 0.943906 0.483763
C118  C     C_R   0.484224 0.084709 0.055458 0.507123
C119  C     C_R   0.068943 0.512488 0.944969 0.481048
C120  C     C_R   0.926018 0.484158 0.054874 0.507075
C121  C     C_R   0.973490 0.601007 0.445716 0.486752
C122  C     C_R   0.014164 0.441012 0.553265 0.502420
C123  C     C_R   0.454287 0.958383 0.444251 0.489703
C124  C     C_R   0.581630 0.016667 0.554744 0.504923
C125  C     C_R   0.013233 0.457155 0.444057 0.483193
C126  C     C_R   0.983166 0.586775 0.555364 0.504092
C127  C     C_R   0.592211 0.015801 0.445382 0.482934
C128  C     C_R   0.436195 0.983448 0.553753 0.502403
C129  C     C_R   0.531738 0.955251 0.971204 -0.065537
C130  C     C_R   0.474257 0.088603 0.028283 -0.069408
C131  C     C_R   0.068759 0.522010 0.972180 -0.075730
C132  C     C_R   0.924890 0.474162 0.027665 -0.071051
C133  C     C_R   0.469980 0.096661 0.973354 -0.068820
C134  C     C_R   0.522655 0.943067 0.026108 -0.070277
C135  C     C_R   0.924121 0.468119 0.972662 -0.070255
C136  C     C_R   0.071056 0.522163 0.026926 -0.067392
C137  C     C_R   0.022032 0.453671 0.471273 -0.074173
C138  C     C_R   0.973951 0.591007 0.528158 -0.069944
C139  C     C_R   0.589111 0.023330 0.472694 -0.073429
C140  C     C_R   0.438569 0.973541 0.526501 -0.069871
C141  C     C_R   0.970521 0.598811 0.473191 -0.065637
C142  C     C_R   0.022152 0.445068 0.526035 -0.066943
C143  C     C_R   0.446648 0.963634 0.471569 -0.064634
C144  C     C_R   0.583662 0.024671 0.527515 -0.067478
N1    N     N_R   0.503349 0.033835 0.932023 -0.330739
N2    N     N_R   0.499214 0.009801 0.067411 -0.342215
N3    N     N_R   0.997689 0.489853 0.932230 -0.333438
N4    N     N_R   0.999840 0.498657 0.067498 -0.342615
N5    N     N_R   0.992903 0.530517 0.431999 -0.330105
N6    N     N_R   0.998985 0.511910 0.567240 -0.341246
N7    N     N_R   0.524252 0.987684 0.431957 -0.331670
N8    N     N_R   0.507985 0.999868 0.567193 -0.341297
O1    O     O_3   0.000000 0.500000 0.750000 -0.477847
O2    O     O_3   0.000000 0.500000 0.250000 -0.478015
O3    O     O_3   0.500000 0.000000 0.750000 -0.477925
O4    O     O_3   0.500000 0.000000 0.250000 -0.478549
O5    O     O_R   0.000000 0.430630 0.807650 -0.630696
O6    O     O_R   0.000000 0.569370 0.192350 -0.628450
O7    O     O_R   0.569370 0.000000 0.807650 -0.629311
O8    O     O_R   0.430630 0.000000 0.192350 -0.629001
O9    O     O_R   0.000000 0.569370 0.807650 -0.628484
O10   O     O_R   0.000000 0.430630 0.192350 -0.629138
O11   O     O_R   0.430630 0.000000 0.807650 -0.629113
O12   O     O_R   0.569370 0.000000 0.192350 -0.628531
O13   O     O_R   0.500000 0.930630 0.307650 -0.630862
O14   O     O_R   0.500000 0.069370 0.692350 -0.626282
O15   O     O_R   0.069370 0.500000 0.307650 -0.628468
O16   O     O_R   0.930630 0.500000 0.692350 -0.626508
O17   O     O_R   0.500000 0.069370 0.307650 -0.628264
O18   O     O_R   0.500000 0.930630 0.692350 -0.626109
O19   O     O_R   0.930630 0.500000 0.307650 -0.630480
O20   O     O_R   0.069370 0.500000 0.692350 -0.625736
O21   O     O_R   0.902350 0.666510 0.764820 -0.632253
O22   O     O_R   0.097650 0.333490 0.235180 -0.642040
O23   O     O_R   0.333490 0.902350 0.764820 -0.631772
O24   O     O_R   0.666510 0.097650 0.235180 -0.642343
O25   O     O_R   0.097650 0.333490 0.764820 -0.631749
O26   O     O_R   0.902350 0.666510 0.235180 -0.640515
O27   O     O_R   0.666510 0.097650 0.764820 -0.631099
O28   O     O_R   0.333490 0.902350 0.235180 -0.641135
O29   O     O_R   0.902350 0.333490 0.235180 -0.633739
O30   O     O_R   0.097650 0.666510 0.764820 -0.640247
O31   O     O_R   0.333490 0.097650 0.235180 -0.634446
O32   O     O_R   0.666510 0.902350 0.764820 -0.640530
O33   O     O_R   0.097650 0.666510 0.235180 -0.633607
O34   O     O_R   0.902350 0.333490 0.764820 -0.642438
O35   O     O_R   0.666510 0.902350 0.235180 -0.634343
O36   O     O_R   0.333490 0.097650 0.764820 -0.643780
O37   O     O_R   0.402350 0.166510 0.264820 -0.632445
O38   O     O_R   0.597650 0.833490 0.735180 -0.640279
O39   O     O_R   0.833490 0.402350 0.264820 -0.633056
O40   O     O_R   0.166510 0.597650 0.735180 -0.640822
O41   O     O_R   0.597650 0.833490 0.264820 -0.630799
O42   O     O_R   0.402350 0.166510 0.735180 -0.639197
O43   O     O_R   0.166510 0.597650 0.264820 -0.634510
O44   O     O_R   0.833490 0.402350 0.735180 -0.638835
O45   O     O_R   0.402350 0.833490 0.735180 -0.637952
O46   O     O_R   0.597650 0.166510 0.264820 -0.641809
O47   O     O_R   0.833490 0.597650 0.735180 -0.638332
O48   O     O_R   0.166510 0.402350 0.264820 -0.639634
O49   O     O_R   0.597650 0.166510 0.735180 -0.638105
O50   O     O_R   0.402350 0.833490 0.264820 -0.641964
O51   O     O_R   0.166510 0.402350 0.735180 -0.637848
O52   O     O_R   0.833490 0.597650 0.264820 -0.644848
O53   O     O_2   0.446767 0.168677 0.932976 -0.583151
O54   O     O_2   0.516229 0.864434 0.065843 -0.583780
O55   O     O_2   0.859157 0.443362 0.931248 -0.573203
O56   O     O_2   0.145319 0.517179 0.067249 -0.595084
O57   O     O_2   0.571798 0.905229 0.929005 -0.572805
O58   O     O_2   0.480218 0.154910 0.069905 -0.587617
O59   O     O_2   0.139645 0.524970 0.931097 -0.585050
O60   O     O_2   0.854240 0.481030 0.068697 -0.579778
O61   O     O_2   0.956319 0.672071 0.432583 -0.585531
O62   O     O_2   0.019955 0.367057 0.565814 -0.591125
O63   O     O_2   0.393386 0.923169 0.429797 -0.574405
O64   O     O_2   0.652497 0.024111 0.568782 -0.592244
O65   O     O_2   0.023622 0.387737 0.429495 -0.574067
O66   O     O_2   0.977929 0.656636 0.569944 -0.582472
O67   O     O_2   0.662229 0.036029 0.432079 -0.587825
O68   O     O_2   0.363108 0.978283 0.566852 -0.580168
Zn1   Zn    Zn3+2 0.900880 0.500000 0.727850 0.970437
Zn2   Zn    Zn3+2 0.099120 0.500000 0.272150 0.972551
Zn3   Zn    Zn3+2 0.500000 0.900880 0.727850 0.970715
Zn4   Zn    Zn3+2 0.500000 0.099120 0.272150 0.972226
Zn5   Zn    Zn3+2 0.099120 0.500000 0.727850 0.970401
Zn6   Zn    Zn3+2 0.900880 0.500000 0.272150 0.970205
Zn7   Zn    Zn3+2 0.500000 0.099120 0.727850 0.969971
Zn8   Zn    Zn3+2 0.500000 0.900880 0.272150 0.972368
Zn9   Zn    Zn3+2 0.400880 0.000000 0.227850 0.971431
Zn10  Zn    Zn3+2 0.599120 0.000000 0.772150 0.973115
Zn11  Zn    Zn3+2 0.000000 0.400880 0.227850 0.971287
Zn12  Zn    Zn3+2 0.000000 0.599120 0.772150 0.972528
Zn13  Zn    Zn3+2 0.599120 0.000000 0.227850 0.970678
Zn14  Zn    Zn3+2 0.400880 0.000000 0.772150 0.971891
Zn15  Zn    Zn3+2 0.000000 0.599120 0.227850 0.970788
Zn16  Zn    Zn3+2 0.000000 0.400880 0.772150 0.971331
C145  C     C_R   0.592422 0.807757 0.969730 0.200569
C146  C     C_R   0.678963 0.790972 0.969807 -0.110497
C147  C     C_R   0.710521 0.722133 0.956280 -0.149844
C148  C     C_R   0.656416 0.671622 0.941807 -0.120051
C149  C     C_R   0.570111 0.687517 0.941864 -0.136060
C150  C     C_R   0.537851 0.754469 0.956212 -0.093986
H1    H     H_    0.721681 0.830902 0.980452 0.110187
H2    H     H_    0.776937 0.708283 0.957048 0.128859
H3    H     H_    0.681165 0.619747 0.930692 0.139098
H4    H     H_    0.528476 0.648064 0.930714 0.115376
H5    H     H_    0.470994 0.766508 0.956344 0.114019
C151  C     C_R   0.395539 0.225966 0.030781 0.212425
C152  C     C_R   0.435925 0.302279 0.035948 -0.099137
C153  C     C_R   0.395020 0.364239 0.050340 -0.162574
C154  C     C_R   0.313062 0.350894 0.059203 -0.098690
C155  C     C_R   0.271583 0.275969 0.053422 -0.144430
C156  C     C_R   0.312666 0.213582 0.039228 -0.151547
H6    H     H_    0.498818 0.313333 0.028808 0.119968
H7    H     H_    0.426688 0.422666 0.054556 0.114574
H8    H     H_    0.281469 0.398896 0.070354 0.171340
H9    H     H_    0.207811 0.266059 0.060052 0.130307
H10   H     H_    0.280172 0.155674 0.034798 0.113141
C157  C     C_R   0.201533 0.608696 0.971371 0.194478
C158  C     C_R   0.176997 0.678451 0.956529 -0.094516
C159  C     C_R   0.234635 0.717579 0.940127 -0.117229
C160  C     C_R   0.317830 0.689600 0.939186 -0.110080
C161  C     C_R   0.343593 0.622994 0.954894 -0.144994
C162  C     C_R   0.285657 0.582490 0.970870 -0.135060
H11   H     H_    0.112283 0.699555 0.956690 0.097337
H12   H     H_    0.213954 0.768118 0.927716 0.122670
H13   H     H_    0.362142 0.718940 0.926144 0.128189
H14   H     H_    0.407894 0.601255 0.954295 0.114128
H15   H     H_    0.305730 0.529189 0.982220 0.113593
C163  C     C_R   0.782619 0.403867 0.028540 0.211240
C164  C     C_R   0.706706 0.447216 0.031866 -0.100740
C165  C     C_R   0.641286 0.410753 0.046002 -0.160565
C166  C     C_R   0.650794 0.330255 0.056425 -0.098015
C167  C     C_R   0.725272 0.285668 0.052400 -0.143794
C168  C     C_R   0.791075 0.322309 0.038465 -0.149544
H16   H     H_    0.698740 0.509103 0.023603 0.117176
H17   H     H_    0.583251 0.444837 0.048867 0.113448
H18   H     H_    0.600229 0.302157 0.067445 0.167069
H19   H     H_    0.732232 0.222997 0.060226 0.131116
H20   H     H_    0.848709 0.287523 0.035449 0.113352
C169  C     C_R   0.387579 0.232583 0.976662 0.219357
C170  C     C_R   0.301421 0.223540 0.971742 -0.121066
C171  C     C_R   0.254969 0.291706 0.962575 -0.143619
C172  C     C_R   0.294794 0.368131 0.957506 -0.105871
C173  C     C_R   0.380606 0.377444 0.962475 -0.148867
C174  C     C_R   0.426489 0.310305 0.972561 -0.117229
H21   H     H_    0.270113 0.164503 0.975646 0.107697
H22   H     H_    0.188022 0.285458 0.959649 0.132660
H23   H     H_    0.258911 0.420388 0.950072 0.176083
H24   H     H_    0.411302 0.436960 0.958956 0.121785
H25   H     H_    0.491686 0.318852 0.977683 0.119258
C175  C     C_R   0.590098 0.799666 0.024220 0.208053
C176  C     C_R   0.545408 0.723767 0.024958 -0.105023
C177  C     C_R   0.579439 0.654118 0.037682 -0.155409
C178  C     C_R   0.657875 0.659994 0.049701 -0.104435
C179  C     C_R   0.703550 0.734703 0.048380 -0.140779
C180  C     C_R   0.669964 0.804306 0.035579 -0.141742
H26   H     H_    0.484338 0.718934 0.015870 0.123690
H27   H     H_    0.545020 0.595668 0.038296 0.111824
H28   H     H_    0.683534 0.606594 0.059951 0.155638
H29   H     H_    0.764719 0.738848 0.057408 0.131903
H30   H     H_    0.705698 0.862028 0.034585 0.112195
C181  C     C_R   0.774947 0.412061 0.974147 0.206514
C182  C     C_R   0.760587 0.325928 0.970735 -0.110832
C183  C     C_R   0.687073 0.298603 0.958675 -0.146730
C184  C     C_R   0.628868 0.357112 0.949415 -0.118120
C185  C     C_R   0.641791 0.442803 0.953438 -0.138842
C186  C     C_R   0.714367 0.470261 0.966008 -0.108917
H31   H     H_    0.806050 0.280326 0.977496 0.109857
H32   H     H_    0.675470 0.232111 0.956417 0.139602
H33   H     H_    0.573088 0.336109 0.939426 0.150658
H34   H     H_    0.595521 0.487767 0.946847 0.120150
H35   H     H_    0.724075 0.536535 0.969335 0.118176
C187  C     C_R   0.206393 0.604931 0.026479 0.199233
C188  C     C_R   0.281453 0.565141 0.033707 -0.092034
C189  C     C_R   0.344241 0.610290 0.046432 -0.155531
C190  C     C_R   0.333089 0.695657 0.051611 -0.104352
C191  C     C_R   0.259001 0.735954 0.044096 -0.152355
C192  C     C_R   0.195669 0.690751 0.031602 -0.160614
H36   H     H_    0.290824 0.499334 0.029511 0.128453
H37   H     H_    0.401448 0.579097 0.052304 0.118125
H38   H     H_    0.381898 0.730590 0.061391 0.171287
H39   H     H_    0.250486 0.802102 0.048060 0.130874
H40   H     H_    0.138351 0.722425 0.025915 0.116561
C193  C     C_R   0.100753 0.316267 0.469243 0.198723
C194  C     C_R   0.175400 0.335747 0.456043 -0.102974
C195  C     C_R   0.212998 0.276181 0.440000 -0.125244
C196  C     C_R   0.177793 0.196147 0.437649 -0.113041
C197  C     C_R   0.104773 0.175829 0.451287 -0.141408
C198  C     C_R   0.065915 0.235881 0.466870 -0.117817
H41   H     H_    0.202538 0.397909 0.457481 0.100162
H42   H     H_    0.268527 0.292867 0.429100 0.123974
H43   H     H_    0.206409 0.150064 0.425096 0.130123
H44   H     H_    0.077378 0.114117 0.449428 0.109402
H45   H     H_    0.007988 0.220589 0.476716 0.113090
C199  C     C_R   0.900263 0.731346 0.530362 0.212782
C200  C     C_R   0.941221 0.808155 0.534283 -0.108307
C201  C     C_R   0.902708 0.871104 0.548883 -0.161474
C202  C     C_R   0.822484 0.858238 0.559214 -0.094130
C203  C     C_R   0.780436 0.782641 0.554782 -0.142356
C204  C     C_R   0.819156 0.719283 0.540375 -0.141555
H46   H     H_    0.002829 0.818790 0.526085 0.116145
H47   H     H_    0.934928 0.929918 0.552133 0.114821
H48   H     H_    0.792705 0.907049 0.570505 0.169808
H49   H     H_    0.718068 0.772986 0.562612 0.128687
H50   H     H_    0.786310 0.660795 0.537051 0.113664
C205  C     C_R   0.721017 0.111708 0.473977 0.206605
C206  C     C_R   0.699808 0.187743 0.461939 -0.100549
C207  C     C_R   0.760879 0.233309 0.448586 -0.133818
C208  C     C_R   0.843473 0.203718 0.447266 -0.095746
C209  C     C_R   0.865020 0.128494 0.459525 -0.151509
C210  C     C_R   0.804292 0.083165 0.473114 -0.140144
H51   H     H_    0.635786 0.210790 0.462564 0.101840
H52   H     H_    0.743501 0.290910 0.439061 0.130902
H53   H     H_    0.890595 0.238872 0.436726 0.161324
H54   H     H_    0.928509 0.104775 0.458408 0.116082
H55   H     H_    0.821790 0.025388 0.482673 0.120558
C211  C     C_R   0.294802 0.906310 0.525704 0.207033
C212  C     C_R   0.219395 0.951718 0.527341 -0.103895
C213  C     C_R   0.150946 0.918285 0.540837 -0.155038
C214  C     C_R   0.157306 0.839406 0.552590 -0.100167
C215  C     C_R   0.231598 0.793175 0.550500 -0.139307
C216  C     C_R   0.300175 0.826389 0.537051 -0.142795
H56   H     H_    0.214119 0.012979 0.518392 0.118867
H57   H     H_    0.093048 0.953538 0.542254 0.111991
H58   H     H_    0.104595 0.813910 0.563248 0.160381
H59   H     H_    0.236223 0.731863 0.559435 0.129839
H60   H     H_    0.357681 0.790356 0.535598 0.114070
C217  C     C_R   0.901802 0.741990 0.476016 0.209703
C218  C     C_R   0.814867 0.744040 0.471634 -0.131207
C219  C     C_R   0.778028 0.815011 0.460542 -0.142271
C220  C     C_R   0.828100 0.882892 0.453080 -0.111084
C221  C     C_R   0.914466 0.881917 0.457952 -0.150363
C222  C     C_R   0.951101 0.812053 0.469772 -0.101222
H61   H     H_    0.775872 0.691104 0.477014 0.111081
H62   H     H_    0.710752 0.817228 0.457629 0.139640
H63   H     H_    0.799812 0.936750 0.443826 0.176687
H64   H     H_    0.952850 0.935386 0.452706 0.121334
H65   H     H_    0.017579 0.811971 0.474029 0.120628
C223  C     C_R   0.099765 0.306807 0.524111 0.202185
C224  C     C_R   0.058071 0.230974 0.529287 -0.093789
C225  C     C_R   0.100863 0.164855 0.541249 -0.148164
C226  C     C_R   0.185325 0.174030 0.548083 -0.107513
C227  C     C_R   0.227222 0.249283 0.542882 -0.147118
C228  C     C_R   0.184655 0.315551 0.530910 -0.151050
H66   H     H_    0.992636 0.223436 0.524127 0.122302
H67   H     H_    0.068539 0.106594 0.545263 0.112979
H68   H     H_    0.218318 0.122852 0.557399 0.160011
H69   H     H_    0.292623 0.256310 0.548168 0.129765
H70   H     H_    0.217604 0.373653 0.526958 0.115377
C229  C     C_R   0.295923 0.910929 0.470972 0.200812
C230  C     C_R   0.273392 0.825738 0.470693 -0.108933
C231  C     C_R   0.201355 0.799846 0.457552 -0.151897
C232  C     C_R   0.153039 0.858288 0.443926 -0.118245
C233  C     C_R   0.174749 0.943194 0.444288 -0.136042
C234  C     C_R   0.245197 0.969858 0.458129 -0.102170
H71   H     H_    0.311388 0.779700 0.480736 0.111469
H72   H     H_    0.183254 0.734418 0.457875 0.136506
H73   H     H_    0.098317 0.837966 0.433247 0.148745
H74   H     H_    0.137068 0.988098 0.433744 0.116235
H75   H     H_    0.261332 0.035858 0.458464 0.115849
C235  C     C_R   0.717067 0.110155 0.528661 0.205601
C236  C     C_R   0.794500 0.074004 0.535265 -0.097056
C237  C     C_R   0.854454 0.120787 0.548708 -0.156401
C238  C     C_R   0.837731 0.204130 0.555398 -0.103403
C239  C     C_R   0.761058 0.240808 0.548607 -0.149737
C240  C     C_R   0.700783 0.194002 0.535275 -0.151838
H76   H     H_    0.808001 0.009815 0.529967 0.122085
H77   H     H_    0.913866 0.092488 0.553913 0.117673
H78   H     H_    0.884260 0.240341 0.565767 0.168921
H79   H     H_    0.748249 0.305402 0.553737 0.129411
H80   H     H_    0.641510 0.222874 0.530097 0.115437
C241  C     C_3   0.839404 0.502330 0.593984 -0.382466
C242  C     C_3   0.790512 0.585044 0.593774 -0.845419
H81   H     H_    0.744952 0.584750 0.577550 0.230475
H82   H     H_    0.753796 0.592929 0.611796 0.253841
H83   H     H_    0.833272 0.639409 0.591414 0.303829
H84   H     H_    0.849634 0.483024 0.573641 0.200285
H85   H     H_    0.799497 0.451948 0.602316 0.192386
C243  C     C_3   0.834839 0.513500 0.404834 -0.379352
C244  C     C_3   0.810661 0.425856 0.413888 -0.870319
H86   H     H_    0.746997 0.428513 0.422638 0.233198
H87   H     H_    0.809337 0.380920 0.397578 0.267924
H88   H     H_    0.855333 0.402998 0.428721 0.277310
H89   H     H_    0.836024 0.555588 0.421836 0.220386
H90   H     H_    0.783838 0.539400 0.392650 0.198163
C245  C     C_3   0.511673 0.840238 0.594031 -0.382814
C246  C     C_3   0.428983 0.791604 0.592359 -0.845435
H91   H     H_    0.432524 0.745838 0.576241 0.230115
H92   H     H_    0.417280 0.755336 0.610276 0.254108
H93   H     H_    0.375239 0.834410 0.588913 0.303225
H94   H     H_    0.534983 0.850514 0.574069 0.199736
H95   H     H_    0.560341 0.800234 0.603227 0.191527
C247  C     C_3   0.581091 0.842698 0.402865 -0.382195
C248  C     C_3   0.676541 0.833898 0.401480 -0.849468
H96   H     H_    0.696320 0.778277 0.412876 0.246062
H97   H     H_    0.698724 0.823965 0.381496 0.263409
H98   H     H_    0.707195 0.890763 0.409370 0.288095
H99   H     H_    0.563197 0.841706 0.423565 0.208769
H100  H     H_    0.550939 0.786124 0.394587 0.200160
C249  C     C_3   0.159370 0.510366 0.593680 -0.384778
C250  C     C_3   0.206026 0.426652 0.591495 -0.831882
H101  H     H_    0.240676 0.412181 0.609502 0.251601
H102  H     H_    0.162202 0.374451 0.587274 0.306167
H103  H     H_    0.252934 0.430509 0.575635 0.231889
H104  H     H_    0.149274 0.534853 0.573851 0.200405
H105  H     H_    0.200793 0.557504 0.602959 0.192334
C251  C     C_3   0.149548 0.564372 0.405536 -0.398541
C252  C     C_3   0.165791 0.658675 0.405955 -0.846007
H106  H     H_    0.224860 0.671321 0.416634 0.247539
H107  H     H_    0.172804 0.684314 0.386187 0.263809
H108  H     H_    0.113168 0.691488 0.415700 0.282572
H109  H     H_    0.146507 0.541993 0.425801 0.198816
H110  H     H_    0.204801 0.531585 0.397294 0.203116
C253  C     C_3   0.499872 0.159797 0.593697 -0.382865
C254  C     C_3   0.582483 0.208878 0.592978 -0.834029
H111  H     H_    0.580602 0.255023 0.576887 0.232164
H112  H     H_    0.591833 0.244774 0.611047 0.251629
H113  H     H_    0.636905 0.166562 0.590017 0.306384
H114  H     H_    0.479498 0.149304 0.573472 0.200820
H115  H     H_    0.449775 0.199654 0.602197 0.192964
C255  C     C_3   0.476093 0.143440 0.407836 -0.380026
C256  C     C_3   0.383391 0.147408 0.415026 -0.894423
H116  H     H_    0.345142 0.167053 0.398170 0.261657
H117  H     H_    0.360434 0.085853 0.422065 0.284682
H118  H     H_    0.375099 0.193843 0.430745 0.239737
H119  H     H_    0.513687 0.144665 0.425824 0.205801
H120  H     H_    0.494274 0.201947 0.397644 0.199517
C257  C     C_3   0.339182 0.011586 0.094557 -0.382229
C258  C     C_3   0.293429 0.096116 0.094391 -0.830560
H121  H     H_    0.247837 0.097389 0.078191 0.228812
H122  H     H_    0.256670 0.105390 0.112339 0.252094
H123  H     H_    0.338091 0.148941 0.092100 0.307242
H124  H     H_    0.347968 0.991681 0.074205 0.199619
H125  H     H_    0.297517 0.962965 0.103058 0.189020
C259  C     C_3   0.347228 0.989661 0.907059 -0.379231
C260  C     C_3   0.341633 0.898769 0.915987 -0.890640
H126  H     H_    0.288593 0.892846 0.929780 0.240642
H127  H     H_    0.330398 0.856471 0.899355 0.261791
H128  H     H_    0.399879 0.879104 0.926000 0.276937
H129  H     H_    0.343996 0.030874 0.924231 0.217134
H130  H     H_    0.289990 0.005885 0.895945 0.200690
C261  C     C_3   0.992556 0.339064 0.094734 -0.382846
C262  C     C_3   0.907269 0.294692 0.094125 -0.829966
H131  H     H_    0.906031 0.249679 0.077794 0.227698
H132  H     H_    0.896634 0.257594 0.111947 0.251663
H133  H     H_    0.855150 0.340200 0.091784 0.306428
H134  H     H_    0.014127 0.347284 0.074500 0.198757
H135  H     H_    0.039978 0.296794 0.103578 0.187283
C263  C     C_3   0.038175 0.337177 0.904637 -0.387464
C264  C     C_3   0.132061 0.318322 0.906214 -0.841432
H136  H     H_    0.141596 0.259165 0.917164 0.236856
H137  H     H_    0.160371 0.309523 0.886916 0.264714
H138  H     H_    0.165235 0.370051 0.916157 0.288346
H139  H     H_    0.013388 0.338196 0.924649 0.209454
H140  H     H_    0.005180 0.283915 0.895376 0.199310
C265  C     C_3   0.659504 0.996987 0.094138 -0.379655
C266  C     C_3   0.703018 0.911398 0.092837 -0.835131
H141  H     H_    0.738599 0.898034 0.110746 0.253248
H142  H     H_    0.656969 0.860344 0.089600 0.305459
H143  H     H_    0.749324 0.911576 0.076789 0.227207
H144  H     H_    0.651026 0.019974 0.074072 0.198686
H145  H     H_    0.702455 0.043319 0.103133 0.188006
C267  C     C_3   0.648773 0.092307 0.903250 -0.384886
C268  C     C_3   0.650799 0.187917 0.901786 -0.856723
H146  H     H_    0.709318 0.211279 0.910908 0.253569
H147  H     H_    0.649957 0.210519 0.881582 0.262760
H148  H     H_    0.595705 0.214441 0.912044 0.284049
H149  H     H_    0.650531 0.074177 0.923928 0.208462
H150  H     H_    0.707531 0.066228 0.895009 0.204816
C269  C     C_3   0.011501 0.658922 0.094148 -0.383496
C270  C     C_3   0.097683 0.701521 0.093045 -0.814246
H151  H     H_    0.098621 0.747345 0.076867 0.232224
H152  H     H_    0.110470 0.737197 0.110959 0.248838
H153  H     H_    0.148753 0.655291 0.090033 0.307643
H154  H     H_    0.989126 0.650591 0.074030 0.199684
H155  H     H_    0.965247 0.702461 0.102975 0.187742
C271  C     C_3   0.956629 0.645811 0.906815 -0.394887
C272  C     C_3   0.862052 0.657129 0.909895 -0.847729
H156  H     H_    0.828917 0.651706 0.891179 0.265913
H157  H     H_    0.836728 0.609156 0.923351 0.273119
H158  H     H_    0.849320 0.720511 0.917824 0.242928
H159  H     H_    0.985240 0.644552 0.926318 0.197475
H160  H     H_    0.983881 0.702433 0.897600 0.200628
C273  C     C_R   0.842774 0.523106 0.650091 0.198286
C274  C     C_R   0.823432 0.603018 0.659920 -0.136981
C275  C     C_R   0.752910 0.614101 0.675646 -0.127110
C276  C     C_R   0.701165 0.545754 0.681492 -0.087645
C277  C     C_R   0.719437 0.466584 0.671392 -0.120212
C278  C     C_R   0.790131 0.454928 0.655793 -0.143826
H161  H     H_    0.864262 0.655883 0.655955 0.120892
H162  H     H_    0.739267 0.675353 0.683636 0.124145
H163  H     H_    0.647255 0.553814 0.694008 0.110374
H164  H     H_    0.679673 0.413992 0.676042 0.119002
H165  H     H_    0.805096 0.392715 0.648740 0.111744
C279  C     C_R   0.845658 0.465661 0.350408 0.192640
C280  C     C_R   0.839823 0.379393 0.345135 -0.154057
C281  C     C_R   0.769605 0.347384 0.332275 -0.134195
C282  C     C_R   0.705046 0.401238 0.324499 -0.090051
C283  C     C_R   0.710713 0.487255 0.329486 -0.127029
C284  C     C_R   0.780984 0.519659 0.342251 -0.124110
H166  H     H_    0.889663 0.337170 0.351001 0.124994
H167  H     H_    0.765292 0.280853 0.328293 0.127666
H168  H     H_    0.650771 0.376340 0.314535 0.120873
H169  H     H_    0.660671 0.528742 0.323397 0.113284
H170  H     H_    0.785216 0.586544 0.345741 0.115027
C285  C     C_R   0.480844 0.843348 0.649768 0.197189
C286  C     C_R   0.399423 0.824085 0.658498 -0.140014
C287  C     C_R   0.385994 0.753941 0.674203 -0.130320
C288  C     C_R   0.453567 0.702644 0.681183 -0.086088
C289  C     C_R   0.534310 0.720880 0.672205 -0.116174
C290  C     C_R   0.548251 0.791030 0.656565 -0.141496
H171  H     H_    0.347097 0.864704 0.653706 0.122152
H172  H     H_    0.323495 0.740311 0.681326 0.123599
H173  H     H_    0.443708 0.649185 0.693748 0.110255
H174  H     H_    0.586298 0.681613 0.677813 0.117680
H175  H     H_    0.611579 0.806033 0.650417 0.110389
C291  C     C_R   0.579591 0.855059 0.346379 0.192944
C292  C     C_R   0.657390 0.864117 0.333798 -0.164521
C293  C     C_R   0.690240 0.798179 0.319141 -0.126252
C294  C     C_R   0.644973 0.723559 0.316491 -0.084420
C295  C     C_R   0.566751 0.714684 0.328522 -0.141917
C296  C     C_R   0.533904 0.780256 0.343376 -0.121526
H176  H     H_    0.692770 0.921860 0.335621 0.116550
H177  H     H_    0.750541 0.805128 0.309686 0.122330
H178  H     H_    0.670263 0.672993 0.304912 0.129578
H179  H     H_    0.531479 0.657082 0.326283 0.114823
H180  H     H_    0.472978 0.773006 0.352459 0.119171
C297  C     C_R   0.156623 0.480464 0.649510 0.194443
C298  C     C_R   0.175660 0.399251 0.658399 -0.141137
C299  C     C_R   0.245718 0.385940 0.674123 -0.128827
C300  C     C_R   0.297194 0.453413 0.680948 -0.085941
C301  C     C_R   0.279215 0.533943 0.671801 -0.116334
C302  C     C_R   0.209109 0.547765 0.656160 -0.141943
H181  H     H_    0.134868 0.347030 0.653745 0.121236
H182  H     H_    0.259137 0.323619 0.681385 0.123966
H183  H     H_    0.350601 0.443625 0.693519 0.110351
H184  H     H_    0.318610 0.585888 0.677280 0.117237
H185  H     H_    0.194240 0.610959 0.649905 0.111260
C303  C     C_R   0.150440 0.556410 0.349147 0.192971
C304  C     C_R   0.158873 0.634650 0.336832 -0.147807
C305  C     C_R   0.232615 0.654369 0.323420 -0.106703
C306  C     C_R   0.298073 0.596030 0.322069 -0.085358
C307  C     C_R   0.289730 0.517702 0.334019 -0.144626
C308  C     C_R   0.215947 0.497536 0.347370 -0.139190
H186  H     H_    0.108440 0.680229 0.337731 0.111015
H187  H     H_    0.238981 0.714822 0.314043 0.126338
H188  H     H_    0.355188 0.611468 0.311723 0.121003
H189  H     H_    0.340548 0.472725 0.332963 0.117704
H190  H     H_    0.209926 0.436496 0.356436 0.120866
C309  C     C_R   0.522587 0.156928 0.649810 0.196340
C310  C     C_R   0.602741 0.176427 0.659464 -0.138271
C311  C     C_R   0.613940 0.246801 0.675149 -0.127495
C312  C     C_R   0.545450 0.298203 0.681142 -0.087810
C313  C     C_R   0.466018 0.279754 0.671226 -0.119265
C314  C     C_R   0.454264 0.209248 0.655653 -0.142965
H191  H     H_    0.655722 0.135819 0.655403 0.120662
H192  H     H_    0.675400 0.260607 0.682994 0.124962
H193  H     H_    0.553623 0.351982 0.693631 0.110658
H194  H     H_    0.413296 0.319196 0.676009 0.118454
H195  H     H_    0.391860 0.194115 0.648758 0.112142
C315  C     C_R   0.446218 0.141793 0.352011 0.187799
C316  C     C_R   0.361305 0.138213 0.344746 -0.158863
C317  C     C_R   0.324399 0.205618 0.331659 -0.137310
C318  C     C_R   0.372035 0.276719 0.325668 -0.088788
C319  C     C_R   0.456593 0.280766 0.332869 -0.130861
C320  C     C_R   0.493825 0.213433 0.345932 -0.129902
H196  H     H_    0.324140 0.082968 0.349035 0.123604
H197  H     H_    0.259044 0.202489 0.325982 0.126610
H198  H     H_    0.343488 0.328383 0.315298 0.126527
H199  H     H_    0.493434 0.335786 0.328140 0.114124
H200  H     H_    0.559727 0.216549 0.351050 0.114999
C321  C     C_R   0.347567 0.045520 0.150414 0.201672
C322  C     C_R   0.342472 0.128607 0.159385 -0.147925
C323  C     C_R   0.273101 0.154721 0.173873 -0.132389
C324  C     C_R   0.208469 0.098233 0.179447 -0.089981
C325  C     C_R   0.212596 0.015825 0.170309 -0.135888
C326  C     C_R   0.282178 0.989089 0.155975 -0.126901
H201  H     H_    0.392748 0.172596 0.155408 0.122151
H202  H     H_    0.269792 0.218493 0.180985 0.126963
H203  H     H_    0.155548 0.118160 0.191033 0.120329
H204  H     H_    0.162108 0.972623 0.174534 0.115631
H205  H     H_    0.285681 0.924543 0.149532 0.112020
C327  C     C_R   0.353650 0.953085 0.851712 0.186641
C328  C     C_R   0.355280 0.867220 0.845646 -0.158353
C329  C     C_R   0.287621 0.830424 0.832707 -0.138132
C330  C     C_R   0.218235 0.879111 0.825659 -0.089953
C331  C     C_R   0.216217 0.964663 0.831612 -0.128142
C332  C     C_R   0.283795 0.001779 0.844523 -0.128195
H206  H     H_    0.409133 0.829151 0.850804 0.123114
H207  H     H_    0.289185 0.764276 0.827996 0.126650
H208  H     H_    0.166292 0.850586 0.815459 0.124826
H209  H     H_    0.162532 0.002297 0.826071 0.114327
H210  H     H_    0.282195 0.068348 0.848722 0.117231
C333  C     C_R   0.954234 0.348511 0.150340 0.201556
C334  C     C_R   0.870429 0.344919 0.158882 -0.149942
C335  C     C_R   0.842417 0.276535 0.173474 -0.134448
C336  C     C_R   0.897736 0.211429 0.179600 -0.089788
C337  C     C_R   0.980854 0.214014 0.170873 -0.134133
C338  C     C_R   0.009444 0.282550 0.156404 -0.124972
H211  H     H_    0.827376 0.395672 0.154529 0.123150
H212  H     H_    0.778101 0.274424 0.180273 0.126994
H213  H     H_    0.876349 0.159388 0.191318 0.121726
H214  H     H_    0.023213 0.163241 0.175561 0.114859
H215  H     H_    0.074537 0.284946 0.150319 0.110883
C339  C     C_R   0.054165 0.347754 0.848439 0.194211
C340  C     C_R   0.135523 0.347550 0.837812 -0.155588
C341  C     C_R   0.163970 0.278317 0.823714 -0.119850
C342  C     C_R   0.111229 0.209352 0.819882 -0.085090
C343  C     C_R   0.029812 0.209602 0.830059 -0.139652
C344  C     C_R   0.001029 0.278723 0.844161 -0.127526
H216  H     H_    0.176732 0.400868 0.840565 0.117576
H217  H     H_    0.226771 0.278264 0.815658 0.124374
H218  H     H_    0.133311 0.155955 0.808894 0.122778
H219  H     H_    0.988943 0.156312 0.826951 0.115452
H220  H     H_    0.937468 0.278692 0.851672 0.118861
C345  C     C_R   0.651765 0.957506 0.149734 0.199700
C346  C     C_R   0.656609 0.873794 0.158240 -0.149981
C347  C     C_R   0.726068 0.846371 0.172433 -0.132388
C348  C     C_R   0.791045 0.902167 0.178176 -0.090526
C349  C     C_R   0.787111 0.985240 0.169533 -0.135053
C350  C     C_R   0.717432 0.013275 0.155508 -0.126160
H221  H     H_    0.606081 0.830311 0.154130 0.121742
H222  H     H_    0.729201 0.782094 0.179176 0.127490
H223  H     H_    0.844093 0.881176 0.189509 0.120272
H224  H     H_    0.837811 0.027953 0.173908 0.115717
H225  H     H_    0.714063 0.078321 0.149483 0.111499
C351  C     C_R   0.646392 0.074551 0.847152 0.189801
C352  C     C_R   0.645210 0.151489 0.833848 -0.156766
C353  C     C_R   0.715454 0.177464 0.819699 -0.109162
C354  C     C_R   0.786546 0.126133 0.818286 -0.081491
C355  C     C_R   0.787597 0.048765 0.831079 -0.147197
C356  C     C_R   0.717720 0.022825 0.845437 -0.130629
H226  H     H_    0.590186 0.191438 0.834659 0.109566
H227  H     H_    0.714586 0.237171 0.809697 0.122248
H228  H     H_    0.840573 0.146147 0.807153 0.125770
H229  H     H_    0.842545 0.008896 0.829864 0.116924
H230  H     H_    0.719047 0.962696 0.855230 0.125763
C357  C     C_R   0.047423 0.650779 0.149954 0.198444
C358  C     C_R   0.130836 0.654204 0.158786 -0.151924
C359  C     C_R   0.158379 0.722629 0.173348 -0.132517
C360  C     C_R   0.102968 0.787934 0.179161 -0.088498
C361  C     C_R   0.020254 0.785525 0.170139 -0.134027
C362  C     C_R   0.992141 0.716950 0.155695 -0.125513
H231  H     H_    0.173915 0.603256 0.154703 0.121623
H232  H     H_    0.222371 0.724592 0.180382 0.126844
H233  H     H_    0.123953 0.839961 0.190877 0.121231
H234  H     H_    0.977798 0.836427 0.174599 0.114578
H235  H     H_    0.927303 0.714645 0.149408 0.111491
C363  C     C_R   0.947986 0.647021 0.850502 0.193232
C364  C     C_R   0.866413 0.651035 0.840204 -0.150392
C365  C     C_R   0.839655 0.722891 0.827013 -0.112592
C366  C     C_R   0.894169 0.790922 0.823905 -0.084067
C367  C     C_R   0.975688 0.787060 0.833872 -0.139858
C368  C     C_R   0.002882 0.715171 0.846981 -0.135845
H236  H     H_    0.823843 0.598466 0.842389 0.112517
H237  H     H_    0.776747 0.725756 0.819132 0.124485
H238  H     H_    0.873329 0.846499 0.813695 0.122277
H239  H     H_    0.017795 0.839763 0.831394 0.116054
H240  H     H_    0.066440 0.712497 0.854404 0.117128

loop_
_geom_bond_atom_site_label_1
_geom_bond_atom_site_label_2
_ccdc_geom_bond_type
C272  H158  S    
C29   C133  A    
C245  C246  S    
C352  C353  A    
C19   C20   A    
C21   C137  A    
C325  H204  S    
C42   C58   A    
C200  C201  A    
C315  C320  A    
C4    C291  S    
C257  C258  S    
C24   C140  A    
C45   C57   A    
C170  C171  A    
C336  C337  A    
C191  H39   S    
C72   O20   A    
O1    Zn5   S    
C172  C173  A    
C305  H187  S    
C286  C287  A    
C51   C261  S    
C306  H188  S    
C10   C94   A    
C164  C165  A    
C280  H166  S    
C220  C221  A    
C167  C168  A    
C2    C90   A    
C367  C368  A    
C262  H131  S    
C242  H83   S    
C35   C139  A    
C269  H154  S    
C156  H10   S    
C65   C96   S    
C269  H155  S    
C87   C104  S    
C33   C137  A    
C276  C277  A    
C79   O49   A    
C62   N1    S    
C25   C145  S    
C67   C94   S    
C197  H44   S    
O1    Zn12  S    
C48   C60   A    
C305  C306  A    
C8    C92   A    
C196  C197  A    
C69   C92   S    
C311  H192  S    
C26   C130  A    
C40   C235  S    
O4    Zn8   S    
C6    C303  S    
C313  H194  S    
C171  H22   S    
C100  C109  T    
C78   O26   A    
C21   C22   A    
C242  H82   S    
C264  H137  S    
C23   C143  A    
C286  H171  S    
C293  H177  S    
C20   C132  A    
C50   C259  S    
C324  C325  A    
C26   C151  S    
C247  C248  S    
C360  H233  S    
C68   O12   A    
C257  H125  S    
C275  H162  S    
C28   C163  S    
C256  H116  S    
C340  C341  A    
C203  C204  A    
C368  H240  S    
C271  H159  S    
C97   C112  T    
C209  H54   S    
C199  C200  A    
C274  C275  A    
C187  C188  A    
C366  C367  A    
C99   C110  T    
O13   Zn8   S    
C38   C223  S    
C278  H165  S    
C189  C190  A    
C60   N7    S    
C121  O61   S    
O42   Zn7   S    
O2    Zn2   S    
C61   N2    S    
C349  H224  S    
C196  H43   S    
C266  H141  S    
O20   Zn5   S    
C354  C355  A    
C32   C187  S    
C204  H50   S    
C270  H151  S    
C192  H40   S    
C184  C185  A    
C83   O31   A    
C304  H186  S    
C39   C229  S    
C279  C280  A    
O35   Zn13  S    
C125  N5    A    
C273  C278  A    
O30   Zn12  S    
C293  C294  A    
O33   Zn15  S    
C74   O48   A    
C300  H183  S    
C120  N4    A    
C76   C107  S    
C83   C100  S    
C17   C133  A    
C148  H3    S    
C79   O27   A    
C18   C130  A    
C37   C217  S    
C263  C264  S    
C226  C227  A    
C339  C344  A    
C267  C268  S    
C36   C211  S    
C346  C347  A    
C325  C326  A    
C169  C174  A    
O49   Zn7   S    
C291  C292  A    
C243  C244  S    
C34   C199  S    
C282  H168  S    
C258  H121  S    
C289  C290  A    
C162  H15   S    
C33   C38   A    
C307  C308  A    
O50   Zn8   S    
C271  C272  S    
C54   C267  S    
C231  C232  A    
C224  H66   S    
C166  H18   S    
C232  H73   S    
C251  C252  S    
C285  C290  A    
C280  C281  A    
C288  H173  S    
C260  H127  S    
O11   Zn14  S    
C31   C181  S    
C349  C350  A    
C15   C95   A    
C154  H8    S    
C327  C332  A    
C173  H24   S    
C206  C207  A    
C121  N5    A    
C259  H129  S    
C35   C40   A    
C222  H65   S    
C208  C209  A    
C295  C296  A    
C343  C344  A    
C47   C59   A    
C217  C222  A    
C179  C180  A    
C159  H12   S    
C55   C269  S    
C219  H62   S    
C65   O9    A    
C212  C213  A    
C159  C160  A    
C67   O7    A    
C238  C239  A    
C339  C340  A    
C19   C135  A    
C352  H226  S    
C5    C89   A    
C183  H32   S    
C15   C55   A    
C155  C156  A    
C248  H97   S    
C120  O60   S    
O44   Zn1   S    
C56   C271  S    
C214  H58   S    
C207  C208  A    
O2    Zn11  S    
C216  H60   S    
O3    Zn3   S    
C209  C210  A    
C241  C242  S    
O16   Zn1   S    
C68   C93   S    
C363  C364  A    
C73   C110  S    
O3    Zn7   S    
C299  H182  S    
C199  C204  A    
C302  H185  S    
C41   C241  S    
C3    C91   A    
C77   C106  S    
C24   C144  A    
C74   O22   A    
C309  C314  A    
C267  H150  S    
C215  C216  A    
C330  C331  A    
C270  H153  S    
C331  C332  A    
C185  H34   S    
C299  C300  A    
C176  H26   S    
C86   C97   S    
C226  H68   S    
C81   O39   A    
C333  C334  A    
C205  C210  A    
C53   C61   A    
C255  H119  S    
C128  N8    A    
O24   Zn13  S    
C46   C251  S    
O14   Zn7   S    
C30   C134  A    
C310  H191  S    
C55   C63   A    
C119  C131  A    
C308  H190  S    
C56   C64   A    
C212  H56   S    
C251  H110  S    
C117  C129  A    
C241  H85   S    
C356  H230  S    
C43   C59   A    
C223  C224  A    
C202  H48   S    
C12   C96   A    
C170  H21   S    
C71   O15   A    
C273  C274  A    
C46   C58   A    
C72   O16   A    
C243  H89   S    
C304  C305  A    
C211  C212  A    
C152  C153  A    
C151  C152  A    
C327  C328  A    
C317  H197  S    
C17   C18   A    
C345  C346  A    
O34   Zn16  S    
C326  H205  S    
C85   O33   A    
C358  H231  S    
C261  H135  S    
O28   Zn9   S    
C268  H147  S    
C220  H63   S    
C247  H99   S    
C167  H19   S    
C84   O32   A    
C9    C49   A    
C237  C238  A    
C87   O41   A    
C248  H96   S    
C232  C233  A    
C160  H13   S    
O8    Zn9   S    
C151  C156  A    
C165  C166  A    
C87   O35   A    
C191  C192  A    
C252  H107  S    
C303  C308  A    
C6    C90   A    
C146  H1    S    
C34   C138  A    
C77   O25   A    
O18   Zn3   S    
O1    Zn16  S    
C28   C132  A    
C113  O53   S    
C332  H210  S    
C16   C56   A    
O15   Zn2   S    
C176  C177  A    
C255  H120  S    
C233  H74   S    
C298  H181  S    
C261  C262  S    
O19   Zn6   S    
C180  H30   S    
C22   C142  A    
C277  C278  A    
C114  C134  A    
C52   C263  S    
C102  C107  T    
C69   O17   A    
C20   C136  A    
C213  C214  A    
C194  C195  A    
C322  C323  A    
C254  H112  S    
O40   Zn5   S    
C320  H200  S    
C312  C313  A    
C244  H88   S    
C198  H45   S    
C71   O19   A    
C203  H49   S    
C269  C270  S    
C246  H91   S    
C174  H25   S    
C235  C236  A    
C187  C192  A    
C272  H157  S    
C163  C164  A    
C163  C168  A    
C36   C39   A    
C11   C333  S    
O10   Zn11  S    
C27   C157  S    
C158  C159  A    
O45   Zn3   S    
O51   Zn5   S    
C160  C161  A    
C230  H71   S    
C361  H234  S    
C82   O30   A    
C119  O59   S    
C184  H33   S    
C5    C297  S    
O4    Zn4   S    
C201  C202  A    
C117  O57   S    
C236  H76   S    
C128  C140  A    
C177  H27   S    
C68   O8    A    
C227  H69   S    
C126  N6    A    
C333  C338  A    
C71   C90   S    
C115  C135  A    
C208  H53   S    
C2    C42   A    
C254  H113  S    
C148  C149  A    
C261  H134  S    
C359  H232  S    
C263  H139  S    
C247  H100  S    
C84   O38   A    
C346  H221  S    
C126  O66   S    
C75   C108  S    
C11   C95   A    
C116  O56   S    
C294  C295  A    
C314  H195  S    
C171  C172  A    
C66   C95   S    
C12   C339  S    
C250  H101  S    
C228  H70   S    
C207  H52   S    
C262  H133  S    
C362  H235  S    
C231  H72   S    
C29   C169  S    
C225  C226  A    
C189  H37   S    
C123  O63   S    
C34   C37   A    
C147  C148  A    
C13   C345  S    
C342  H218  S    
C15   C357  S    
C113  C133  A    
C329  C330  A    
C175  C180  A    
O37   Zn4   S    
C127  O67   S    
C154  C155  A    
C59   N8    S    
C251  H109  S    
C281  C282  A    
C318  C319  A    
C37   C141  A    
C79   C112  S    
O2    Zn6   S    
C122  N6    A    
C283  C284  A    
C364  H236  S    
C343  H219  S    
C271  H160  S    
C177  C178  A    
O17   Zn4   S    
C119  N3    A    
C219  C220  A    
C115  N3    A    
C253  H115  S    
C66   O10   A    
C173  C174  A    
C117  N1    A    
C197  C198  A    
C113  N1    A    
C287  H172  S    
C279  C284  A    
C104  C105  T    
C316  H196  S    
C80   O50   A    
C347  C348  A    
C16   C363  S    
C270  H152  S    
O2    Zn15  S    
C256  H118  S    
C266  H142  S    
O31   Zn9   S    
C218  H61   S    
C246  H93   S    
C101  C108  T    
C152  H6    S    
C324  H203  S    
C45   C249  S    
C290  H175  S    
C77   O51   A    
C259  C260  S    
C12   C52   A    
C155  H9    S    
C218  C219  A    
O25   Zn16  S    
C13   C53   A    
C215  H59   S    
C75   O45   A    
C182  H31   S    
C123  N7    A    
C164  H16   S    
C21   C141  A    
C266  H143  S    
C49   C61   A    
C331  H209  S    
C75   O23   A    
C149  H4    S    
C121  C141  A    
C272  H156  S    
C51   C63   A    
C65   O5    A    
C157  C162  A    
C52   C64   A    
C48   C255  S    
C178  C179  A    
C32   C136  A    
C255  C256  S    
C310  C311  A    
C4    C44   A    
O3    Zn14  S    
C125  C137  A    
C298  C299  A    
C5    C45   A    
C284  H170  S    
C258  H123  S    
C265  H144  S    
C13   C93   A    
C300  C301  A    
C7    C47   A    
O46   Zn4   S    
C8    C48   A    
O1    Zn1   S    
C287  C288  A    
C118  C130  A    
O21   Zn12  S    
C168  H20   S    
C202  C203  A    
C76   O24   A    
C366  H238  S    
C252  H108  S    
C7    C91   A    
C188  H36   S    
C16   C96   A    
C259  H130  S    
C193  C198  A    
C355  H229  S    
C66   O6    A    
C181  C186  A    
C309  C310  A    
C313  C314  A    
C31   C135  A    
C358  C359  A    
C35   C205  S    
C172  H23   S    
C86   O34   A    
O39   Zn6   S    
C239  H79   S    
C2    C279  S    
C242  H81   S    
C264  H138  S    
C42   C243  S    
C297  C302  A    
C237  H77   S    
O52   Zn6   S    
C10   C50   A    
C49   C257  S    
C357  C358  A    
O36   Zn14  S    
C365  C366  A    
C116  N4    A    
C328  C329  A    
C342  C343  A    
C253  C254  S    
C25   C30   A    
C146  C147  A    
C351  C352  A    
C82   O40   A    
C27   C32   A    
C265  H145  S    
C84   C99   S    
C274  H161  S    
C83   O37   A    
C28   C31   A    
C85   O43   A    
C295  H179  S    
C230  C231  A    
C234  H75   S    
O43   Zn2   S    
C233  C234  A    
O5    Zn16  S    
C336  H213  S    
C357  C362  A    
C116  C136  A    
C33   C193  S    
C54   C62   A    
C245  H94   S    
C22   C138  A    
O3    Zn10  S    
C277  H164  S    
C161  H14   S    
O48   Zn2   S    
C145  C150  A    
C70   O18   A    
C41   C57   A    
C195  C196  A    
C76   O46   A    
O38   Zn3   S    
C315  C316  A    
C195  H42   S    
C289  H174  S    
C44   C60   A    
C80   C111  S    
C317  C318  A    
C285  C286  A    
C334  H211  S    
C347  H222  S    
C292  H176  S    
C244  H86   S    
C319  C320  A    
O32   Zn10  S    
C235  C240  A    
C122  O62   S    
C9    C321  S    
C183  C184  A    
C44   C247  S    
C323  C324  A    
C43   C245  S    
C239  C240  A    
C245  H95   S    
C364  C365  A    
C158  H11   S    
C221  C222  A    
C241  H84   S    
C14   C94   A    
C201  H47   S    
C4    C92   A    
C125  O65   S    
C361  C362  A    
C165  H17   S    
C72   C89   S    
C115  O55   S    
C27   C131  A    
C359  C360  A    
C243  H90   S    
C236  C237  A    
C81   O29   A    
C321  C326  A    
C25   C129  A    
C227  C228  A    
C74   C109  S    
C262  H132  S    
C311  C312  A    
C297  C298  A    
C229  C230  A    
C186  H35   S    
C3    C43   A    
C268  H146  S    
C341  H217  S    
C78   C105  S    
C80   O28   A    
C23   C139  A    
C175  C176  A    
C78   O52   A    
C224  C225  A    
C149  C150  A    
C260  H128  S    
C70   O14   A    
C238  H78   S    
O26   Zn15  S    
C258  H122  S    
C360  C361  A    
C275  C276  A    
C73   O47   A    
C340  H216  S    
C265  C266  S    
C335  H212  S    
C85   C98   S    
C337  H214  S    
O4    Zn9   S    
C181  C182  A    
C264  H136  S    
C18   C134  A    
C147  H2    S    
O47   Zn1   S    
C3    C285  S    
C294  H178  S    
C103  C106  T    
O22   Zn11  S    
C329  H207  S    
C58   N5    S    
C30   C175  S    
C248  H98   S    
C86   O44   A    
C124  N8    A    
C281  H167  S    
C244  H87   S    
C210  H55   S    
C38   C142  A    
C190  C191  A    
C127  C139  A    
C301  H184  S    
C246  H92   S    
C206  H51   S    
C249  H105  S    
C69   O13   A    
C81   C102  S    
C19   C131  A    
C229  C234  A    
C303  C304  A    
C17   C129  A    
C335  C336  A    
O7    Zn10  S    
C88   O42   A    
C193  C194  A    
C118  N2    A    
C348  C349  A    
C114  N2    A    
C260  H126  S    
C253  H114  S    
C316  C317  A    
C296  H180  S    
C267  H149  S    
C254  H111  S    
C169  C170  A    
C200  H46   S    
C291  C296  A    
C211  C216  A    
C114  O54   S    
C221  H64   S    
C307  H189  S    
C178  H28   S    
C67   O11   A    
O6    Zn15  S    
O9    Zn12  S    
C344  H220  S    
C292  C293  A    
O4    Zn13  S    
C23   C24   A    
O23   Zn14  S    
C127  N7    A    
C57   N6    S    
C166  C167  A    
C322  H201  S    
C263  H140  S    
C240  H80   S    
O27   Zn10  S    
C10   C327  S    
C36   C140  A    
C70   C91   S    
C323  H202  S    
C353  H227  S    
C182  C183  A    
C14   C54   A    
C39   C143  A    
C351  C356  A    
C252  H106  S    
C350  H225  S    
C40   C144  A    
C64   N3    S    
C50   C62   A    
C122  C142  A    
C8    C315  S    
C250  H102  S    
C157  C158  A    
C9    C93   A    
C63   N4    S    
C282  C283  A    
C88   C103  S    
C7    C309  S    
C217  C218  A    
C124  O64   S    
C1    C41   A    
C153  H7    S    
C128  O68   S    
C126  C138  A    
C268  H148  S    
C1    C89   A    
C98   C111  T    
C6    C46   A    
C14   C351  S    
O12   Zn13  S    
C120  C132  A    
C345  C350  A    
O41   Zn8   S    
C53   C265  S    
C341  C342  A    
C312  H193  S    
C283  H169  S    
C257  H124  S    
C288  C289  A    
C249  H104  S    
C214  C215  A    
C150  H5    S    
C321  C322  A    
C118  O58   S    
C355  C356  A    
C250  H103  S    
C161  C162  A    
C188  C189  A    
C306  C307  A    
C205  C206  A    
C338  H215  S    
C179  H29   S    
C47   C253  S    
C249  C250  S    
C353  C354  A    
C319  H199  S    
O29   Zn11  S    
C213  H57   S    
C318  H198  S    
C82   C101  S    
C223  C228  A    
C363  C368  A    
C367  H239  S    
C73   O21   A    
C301  C302  A    
C145  C146  A    
C153  C154  A    
C11   C51   A    
C365  H237  S    
C328  H206  S    
C88   O36   A    
C1    C273  S    
C26   C29   A    
C330  H208  S    
C348  H223  S    
C123  C143  A    
C194  H41   S    
C256  H117  S    
C276  H163  S    
C185  C186  A    
C354  H228  S    
C124  C144  A    
C190  H38   S    
C337  C338  A    
C225  H67   S    
C334  C335  A    
