data_mof_unit_29220.cif
_audit_creation_date              2012-12-11T16:19:54-0500
_audit_creation_method            fapswitch 2.2
_symmetry_space_group_name_H-M    P1
_symmetry_Int_Tables_number       1
_space_group_crystal_system       triclinic
_cell_length_a                    13.516963
_cell_length_b                    14.030603
_cell_length_c                    30.100775
_cell_angle_alpha                 97.984291
_cell_angle_beta                  90.369778
_cell_angle_gamma                 118.683709
_cell_volume                      4941.95058402

loop_
_atom_site_label
_atom_site_type_symbol
_atom_type_description
_atom_site_fract_x
_atom_site_fract_y
_atom_site_fract_z
_atom_type_partial_charge
C1    C     C_R   0.721468 0.099460 0.568829 0.540455
C2    C     C_1   0.355839 0.652600 0.761747 -0.028913
C3    C     C_3   0.534214 0.617259 0.165618 -0.118341
C4    C     C_3   0.932692 0.467145 0.104824 -0.053962
C5    C     C_3   0.871083 0.423578 0.221254 -0.086799
C6    C     C_3   0.853167 0.960150 0.086766 -0.092444
C7    C     C_3   0.560879 0.638821 0.906259 -0.098951
C8    C     C_1   0.361892 0.665349 0.723160 -0.034425
C9    C     C_R   0.384334 0.789129 0.551329 0.540265
C10   C     C_R   0.290514 0.584290 0.893924 0.047306
C11   C     C_3   0.298392 0.035899 0.717124 -0.211184
C12   C     C_3   0.246767 0.185246 0.714185 -0.217712
C13   C     C_3   0.232648 0.190462 0.765389 -0.212585
C14   C     C_1   0.296445 0.195334 0.877443 -0.024509
C15   C     C_3   0.335770 0.148944 0.701904 0.074528
C16   C     C_3   0.289368 0.045011 0.768862 -0.214470
C17   C     C_R   0.360996 0.680050 0.677286 0.026444
C18   C     C_3   0.316008 0.163228 0.789274 0.073824
C19   C     C_3   0.437930 0.244653 0.779622 -0.214572
C20   C     C_3   0.449988 0.234151 0.728360 -0.215812
C21   C     C_R   0.398326 0.118524 0.569579 0.546342
C22   C     C_1   0.305421 0.175210 0.837986 -0.077604
C23   C     C_1   0.349715 0.142091 0.653379 -0.078494
C24   C     C_1   0.368028 0.134490 0.614333 -0.023734
C25   C     C_3   0.767868 0.237405 0.727012 0.206464
C26   C     C_3   0.948975 0.224372 0.718230 0.191545
C27   C     C_3   0.964677 0.239454 0.770699 -0.223606
C28   C     C_R   0.268381 0.682778 0.657811 -0.122889
C29   C     C_1   0.895363 0.204156 0.879032 0.021794
C30   C     C_3   0.820236 0.168362 0.702812 0.076881
C31   C     C_3   0.787505 0.249504 0.779084 -0.190996
C32   C     C_3   0.848064 0.184998 0.791076 -0.000893
C33   C     C_R   0.719643 0.094776 0.442686 0.543388
C34   C     C_3   0.784439 0.061323 0.768028 0.162510
C35   C     C_3   0.759555 0.052079 0.716798 -0.288118
C36   C     C_1   0.867785 0.194313 0.839897 -0.014466
C37   C     C_1   0.800012 0.154192 0.653684 0.004666
C38   C     C_1   0.771517 0.133769 0.614081 -0.009645
C39   C     C_R   0.271674 0.709897 0.614851 -0.127418
C40   C     C_3   0.271003 0.725282 0.269863 0.150241
C41   C     C_3   0.282851 0.552402 0.271380 0.127681
C42   C     C_3   0.276451 0.536153 0.218810 -0.207527
C43   C     C_1   0.307707 0.603655 0.111563 0.011682
C44   C     C_3   0.343091 0.678793 0.290126 0.006433
C45   C     C_R   0.381370 0.783206 0.425142 0.540430
C46   C     C_3   0.280054 0.718048 0.217963 0.183811
C47   C     C_3   0.339098 0.648704 0.201341 0.030257
C48   C     C_3   0.467670 0.709916 0.221118 0.480990
C49   C     C_3   0.466733 0.731423 0.274237 0.176501
C50   C     C_R   0.225308 0.569950 0.816693 -0.134434
C51   C     C_1   0.326323 0.628791 0.151761 0.018217
C52   C     C_1   0.349967 0.700126 0.339509 0.011668
C53   C     C_1   0.362013 0.730763 0.379431 -0.003228
C54   C     C_R   0.359633 0.131228 0.399857 0.021313
C55   C     C_R   0.427939 0.229357 0.383170 -0.124161
C56   C     C_R   0.413683 0.235404 0.338068 -0.126184
C57   C     C_R   0.396355 0.114167 0.442746 0.539527
C58   C     C_R   0.329777 0.144508 0.309488 0.027019
C59   C     C_R   0.255102 0.049938 0.326458 -0.126609
C60   C     C_R   0.269880 0.043035 0.371589 -0.137041
C61   C     C_R   0.200712 0.547126 0.860166 0.214637
C62   C     C_R   0.241352 0.086502 0.145719 -0.121612
C63   C     C_R   0.233997 0.108126 0.102398 -0.129195
C64   C     C_R   0.410238 0.280311 0.120160 -0.133282
C65   C     C_R   0.417218 0.258559 0.163498 -0.113585
C66   C     C_R   0.330803 0.163608 0.176627 0.040304
C67   C     C_1   0.327979 0.151788 0.222937 -0.041468
C68   C     C_1   0.326585 0.146474 0.262300 -0.052046
C69   C     C_R   0.368074 0.734771 0.591161 0.019525
C70   C     C_R   0.315884 0.207541 0.089895 0.024147
C71   C     C_R   0.780120 0.131451 0.402707 0.015796
C72   C     C_R   0.403646 0.646632 0.883738 0.219876
C73   C     C_R   0.806341 0.060532 0.373693 -0.106888
C74   C     C_R   0.838079 0.082921 0.330792 -0.111123
C75   C     C_R   0.844666 0.176541 0.316863 0.021744
C76   C     C_R   0.827587 0.251920 0.346653 -0.120013
C77   C     C_R   0.795777 0.229757 0.389535 -0.133238
C78   C     C_R   0.915164 0.312094 0.172133 0.279323
C79   C     C_R   0.937044 0.320895 0.126993 0.223700
C80   C     C_R   0.845447 0.119969 0.107851 0.223402
C81   C     C_R   0.457446 0.724227 0.609913 -0.130370
C82   C     C_R   0.822229 0.112835 0.152906 -0.167290
C83   C     C_R   0.425656 0.673527 0.840219 -0.120275
C84   C     C_R   0.862706 0.207597 0.185058 -0.056263
C85   C     C_1   0.858252 0.196839 0.231566 -0.011793
C86   C     C_1   0.854493 0.188246 0.270610 -0.042314
C87   C     C_R   0.906642 0.224570 0.094879 -0.017225
C88   C     C_R   0.283527 0.231997 0.922646 0.544850
C89   C     C_R   0.264165 0.544326 0.937320 0.604466
C90   C     C_R   0.944969 0.221908 0.923504 0.554462
C91   C     C_R   0.292682 0.243267 0.049261 0.539145
C92   C     C_R   0.274917 0.557935 0.065133 0.554473
C93   C     C_R   0.454047 0.697499 0.652950 -0.118227
C94   C     C_R   0.336537 0.632772 0.806872 -0.061151
C95   C     C_R   0.955924 0.234483 0.050906 0.588749
C96   C     C_3   0.022462 0.524619 0.865058 -0.115875
C97   C     C_3   0.742439 0.385003 0.714800 -0.136228
C98   C     C_3   0.121235 0.358475 0.698737 -0.131653
C99   C     C_3   0.602785 0.011971 0.794724 -0.100655
C100  C     C_3   0.145215 0.751217 0.184777 -0.095590
C101  C     C_3   0.120586 0.723095 0.309400 -0.125626
C102  C     C_3   0.269162 0.390773 0.289609 -0.124663
C103  C     C_3   0.518806 0.922045 0.296062 -0.113832
C104  C     C_3   0.647517 0.861030 0.213263 -0.060799
Cr1   Cr    Cr6+3 0.583400 0.162540 0.509180 1.022517
Cr2   Cr    Cr6+3 0.584070 0.916690 0.495550 1.024424
Cr3   Cr    Cr6+3 0.332550 0.920810 0.495240 1.014001
Cr4   Cr    Cr6+3 0.086700 0.177000 0.983690 1.030822
Cr5   Cr    Cr6+3 0.336880 0.419130 0.994740 1.019779
Cr6   Cr    Cr6+3 0.084850 0.422220 0.995960 1.040996
H1    H     H_    0.215051 0.973252 0.699366 0.115993
H2    H     H_    0.458519 0.330612 0.793287 0.112078
H3    H     H_    0.841026 0.337997 0.793605 0.147087
H4    H     H_    0.980383 0.167348 0.703289 0.070564
H5    H     H_    0.195654 0.668444 0.676576 0.119423
H6    H     H_    0.847298 0.031924 0.770549 0.139008
H7    H     H_    0.194815 0.514670 0.282155 0.187799
H8    H     H_    0.201733 0.717418 0.601350 0.132969
H9    H     H_    0.501074 0.681080 0.286544 0.225113
H10   H     H_    0.160642 0.050277 0.079709 0.114387
H11   H     H_    0.174357 0.012691 0.155784 0.090031
H12   H     H_    0.274637 0.267819 0.704857 0.105613
H13   H     H_    0.189139 0.980090 0.304351 0.090948
H14   H     H_    0.215983 0.966393 0.383460 0.119475
H15   H     H_    0.532870 0.742756 0.592476 0.130130
H16   H     H_    0.486750 0.318549 0.187447 0.115442
H17   H     H_    0.474554 0.357421 0.111491 0.116505
H18   H     H_    0.471472 0.309146 0.325056 0.115061
H19   H     H_    0.832573 0.324572 0.335890 0.108640
H20   H     H_    0.776557 0.286069 0.411196 0.128205
H21   H     H_    0.795018 0.984200 0.382891 0.143706
H22   H     H_    0.511675 0.724528 0.832284 0.146191
H23   H     H_    0.163964 0.126848 0.694955 0.105286
H24   H     H_    0.202644 0.984525 0.775942 0.114864
H25   H     H_    0.007450 0.532053 0.829665 0.105297
H26   H     H_    0.059446 0.606570 0.887024 0.121779
H27   H     H_    0.938830 0.471303 0.876867 0.131295
H28   H     H_    0.144219 0.130425 0.770717 0.108342
H29   H     H_    0.499875 0.227736 0.796674 0.100361
H30   H     H_    0.789254 0.472311 0.709918 0.144986
H31   H     H_    0.705304 0.382714 0.747786 0.085116
H32   H     H_    0.674965 0.339441 0.686726 0.121004
H33   H     H_    0.129275 0.301462 0.671273 0.107545
H34   H     H_    0.247453 0.273994 0.780126 0.114305
H35   H     H_    0.164773 0.362436 0.730953 0.097856
H36   H     H_    0.164276 0.441879 0.689324 0.157685
H37   H     H_    0.012690 0.328517 0.785133 0.186690
H38   H     H_    0.016964 0.202781 0.780246 0.060695
H39   H     H_    0.667259 0.011161 0.707002 0.133750
H40   H     H_    0.790256 0.998519 0.697997 0.088281
H41   H     H_    0.584248 0.042813 0.765538 0.086759
H42   H     H_    0.620624 0.070611 0.826360 0.126737
H43   H     H_    0.524348 0.935487 0.798432 0.142288
H44   H     H_    0.674962 0.190369 0.717140 0.064145
H45   H     H_    0.513794 0.207216 0.720814 0.099103
H46   H     H_    0.706666 0.224474 0.794710 0.055841
H47   H     H_    0.197798 0.793702 0.158147 0.105797
H48   H     H_    0.157671 0.812115 0.215159 0.098352
H49   H     H_    0.055106 0.710970 0.171644 0.125442
H50   H     H_    0.115810 0.787816 0.293632 0.101977
H51   H     H_    0.177371 0.760056 0.341034 0.116316
H52   H     H_    0.034487 0.666929 0.318320 0.134349
H53   H     H_    0.222452 0.345302 0.256308 0.119136
H54   H     H_    0.208847 0.381308 0.315787 0.125643
H55   H     H_    0.320250 0.353131 0.298947 0.158256
H56   H     H_    0.480882 0.315972 0.717696 0.107179
H57   H     H_    0.186083 0.491625 0.205381 0.199527
H58   H     H_    0.312714 0.482534 0.205658 0.158522
H59   H     H_    0.466214 0.923052 0.324071 0.117906
H60   H     H_    0.479571 0.918274 0.263073 0.129032
H61   H     H_    0.597709 0.002357 0.302460 0.155802
H62   H     H_    0.686813 0.853219 0.181739 0.092026
H63   H     H_    0.675604 0.826855 0.238803 0.173994
H64   H     H_    0.680846 0.949885 0.225888 0.130313
H65   H     H_    0.304248 0.813574 0.283737 0.054522
H66   H     H_    0.335614 0.802637 0.210301 0.086571
H67   H     H_    0.360384 0.007039 0.707968 0.113894
H68   H     H_    0.542441 0.680505 0.145281 0.148704
H69   H     H_    0.463971 0.535624 0.150210 0.122284
H70   H     H_    0.613413 0.611981 0.163903 0.113347
H71   H     H_    0.497493 0.298830 0.404101 0.131720
H72   H     H_    0.895315 0.487594 0.134916 0.113717
H73   H     H_    0.864694 0.409687 0.078089 0.082745
H74   H     H_    0.984730 0.544735 0.091505 0.139217
H75   H     H_    0.840056 0.380354 0.250541 0.117123
H76   H     H_    0.798882 0.397522 0.195788 0.071118
H77   H     H_    0.905257 0.512800 0.233510 0.164975
H78   H     H_    0.349739 0.024164 0.784620 0.106228
H79   H     H_    0.776994 0.033139 0.163201 0.121427
H80   H     H_    0.945439 0.009803 0.097489 0.109036
H81   H     H_    0.843290 0.900956 0.056271 0.138415
H82   H     H_    0.806864 0.911263 0.113039 0.089621
H83   H     H_    0.850804 0.024074 0.307650 0.107757
H84   H     H_    0.511006 0.547547 0.896836 0.122296
H85   H     H_    0.618563 0.656760 0.936342 0.137686
H86   H     H_    0.614415 0.675691 0.878933 0.105930
H87   H     H_    0.525649 0.694777 0.667861 0.113627
H88   H     H_    0.157335 0.536163 0.790124 0.140819
O1    O     O_R   0.494060 0.188820 0.559230 -0.508077
O2    O     O_R   0.170530 0.527770 0.952070 -0.487730
O3    O     O_R   0.987720 0.318450 0.945940 -0.484783
O4    O     O_R   0.678470 0.153390 0.554100 -0.488626
O5    O     O_R   0.976400 0.159230 0.032040 -0.479333
O6    O     O_R   0.193740 0.188470 0.029020 -0.508687
O7    O     O_R   0.364860 0.335530 0.039220 -0.523960
O8    O     O_R   0.330170 0.515340 0.044800 -0.507796
O9    O     O_R   0.177230 0.536000 0.050040 -0.484748
O10   O     O_R   0.993930 0.326080 0.036750 -0.479531
O11   O     O_3   0.169480 0.339450 0.991460 -0.256273
O12   O     O_R   0.480140 0.824500 0.445020 -0.483805
O13   O     O_R   0.697870 0.003940 0.549410 -0.516658
O14   O     O_R   0.480980 0.827230 0.535590 -0.505194
O15   O     O_R   0.309390 0.811640 0.537920 -0.516301
O16   O     O_R   0.341810 0.023400 0.546180 -0.494225
O17   O     O_R   0.493150 0.185870 0.461540 -0.520426
O18   O     O_R   0.677630 0.150660 0.463530 -0.503981
O19   O     O_R   0.696960 0.000990 0.451710 -0.512535
O20   O     O_3   0.090758 0.474661 0.868088 -0.557882
O21   O     O_3   0.818591 0.342976 0.713690 -0.502148
O22   O     O_3   0.006604 0.327934 0.703367 -0.502457
O23   O     O_R   0.308480 0.808690 0.440220 -0.521902
O24   O     O_3   0.691278 0.986190 0.789353 -0.559342
O25   O     O_3   0.170230 0.669526 0.194993 -0.480647
O26   O     O_3   0.155510 0.661835 0.278708 -0.526855
O27   O     O_3   0.342856 0.503135 0.288082 -0.583623
O28   O     O_3   0.547803 0.838355 0.296909 -0.598419
O29   O     O_3   0.528429 0.810930 0.203965 -0.586949
O30   O     O_3   0.518074 0.640123 0.211473 -0.588272
O31   O     O_3   0.003549 0.424691 0.116176 -0.497360
O32   O     O_3   0.959606 0.407395 0.203750 -0.514926
O33   O     O_3   0.806395 0.025750 0.075804 -0.528940
O34   O     O_R   0.340970 0.020670 0.455610 -0.503363
O35   O     O_3   0.490841 0.686094 0.917297 -0.549621
O36   O     O_3   0.500010 0.000010 0.499990 -0.243543
O37   O     O_R   0.969690 0.151000 0.934080 -0.504580
O38   O     O_R   0.187530 0.180840 0.938210 -0.494010
O39   O     O_R   0.358160 0.327300 0.941250 -0.519630
O40   O     O_R   0.323950 0.507710 0.953980 -0.478899

loop_
_geom_bond_atom_site_label_1
_geom_bond_atom_site_label_2
_ccdc_geom_bond_type
C44   C49   S    
C25   C31   S    
C55   C56   A    
C73   H21   S    
C49   O28   S    
Cr1   O17   S    
C20   H45   S    
C98   O22   S    
C98   H33   S    
C1    O13   A    
C41   C42   S    
C70   C91   S    
C5    H75   S    
C3    H70   S    
C16   H24   S    
C7    O35   S    
C31   H46   S    
C50   H88   S    
C96   H26   S    
C54   C60   A    
Cr5   O40   S    
C52   C53   T    
C103  O28   S    
C40   C46   S    
C29   C36   T    
C26   C27   S    
C37   C38   T    
C4    H72   S    
C30   C35   S    
C40   O26   S    
Cr6   O3    S    
C32   C36   S    
C101  H52   S    
C3    H68   S    
C9    C69   S    
C18   C19   S    
C80   C87   A    
C48   O30   S    
C88   O39   A    
C9    O14   A    
C95   O5    A    
Cr2   O12   S    
C25   C30   S    
C72   O35   S    
C13   C18   S    
C34   C35   S    
Cr1   O36   S    
C13   H34   S    
C60   H14   S    
C3    H69   S    
C79   O31   S    
C54   C55   A    
C11   C15   S    
C100  H47   S    
C78   O32   S    
C57   O17   A    
C10   C89   S    
C27   H38   S    
C87   C95   S    
C6    H81   S    
C103  H60   S    
C23   C24   T    
C97   O21   S    
Cr6   O9    S    
C11   H67   S    
C35   H40   S    
C64   C70   A    
C97   H30   S    
C91   O6    A    
C104  H62   S    
C90   O3    A    
C44   C52   S    
C15   C23   S    
C66   C67   S    
C25   H44   S    
C99   O24   S    
C45   C53   S    
C59   C60   A    
Cr1   O18   S    
Cr3   O34   S    
C103  H61   S    
C5    H76   S    
C21   O1    A    
Cr5   O11   S    
C1    O4    A    
C79   C87   A    
C29   C90   S    
C91   O7    A    
C33   O18   A    
C42   H58   S    
Cr4   O11   S    
C96   H25   S    
C73   C74   A    
C59   H13   S    
C15   C20   S    
C88   O38   A    
C27   H37   S    
C41   O27   S    
C74   C75   A    
C62   C66   A    
C26   O22   S    
C67   C68   T    
C2    C94   S    
C45   O12   A    
C92   O8    A    
C76   C77   A    
C101  H50   S    
C80   C82   A    
C16   H78   S    
C96   H27   S    
C71   C73   A    
C48   O29   S    
C78   C79   A    
C102  H53   S    
C47   C51   S    
C98   H36   S    
C28   C39   A    
C9    O15   A    
C58   C59   A    
C85   C86   T    
C83   C94   A    
C99   H41   S    
C21   O16   A    
C102  O27   S    
C4    H74   S    
C46   O25   S    
C30   C37   S    
Cr4   O38   S    
C32   C34   S    
C93   H87   S    
C75   C76   A    
C26   H4    S    
C62   C63   A    
C28   H5    S    
C100  H48   S    
C81   C93   A    
C11   C16   S    
C75   C86   S    
C47   C48   S    
Cr3   O15   S    
C63   C70   A    
Cr1   O1    S    
C62   H11   S    
C64   H17   S    
Cr2   O14   S    
C6    H80   S    
C76   H19   S    
C55   H71   S    
C19   H2    S    
C84   C85   S    
C7    H84   S    
Cr5   O7    S    
C97   H31   S    
C61   O20   S    
Cr2   O19   S    
C1    C38   S    
C101  O26   S    
C16   C18   S    
C48   C49   S    
Cr3   O36   S    
C26   C30   S    
C102  H55   S    
C82   C84   A    
C12   H23   S    
C82   H79   S    
C41   C44   S    
C46   H66   S    
C25   O21   S    
Cr6   O11   S    
C17   C93   A    
C5    H77   S    
C80   O33   S    
C7    H85   S    
C71   C77   A    
C42   H57   S    
C104  O29   S    
C58   C68   S    
C95   O10   A    
C57   O34   A    
C89   O2    A    
C46   C47   S    
Cr2   O36   S    
C81   H15   S    
C27   C32   S    
C18   C22   S    
C17   C28   A    
C89   O40   A    
C31   C32   S    
C2    C8    T    
C8    C17   S    
C40   H65   S    
C104  H64   S    
Cr4   O37   S    
C104  H63   S    
C98   H35   S    
Cr5   O39   S    
Cr4   O5    S    
C39   H8    S    
C20   H56   S    
C99   H42   S    
C50   C94   A    
C43   C92   S    
C100  O25   S    
Cr6   O2    S    
C45   O23   A    
C65   H16   S    
C14   C22   T    
C19   C20   S    
C101  H51   S    
C12   C15   S    
C13   H28   S    
C14   C88   S    
C83   H22   S    
Cr4   O6    S    
C92   O9    A    
C11   H1    S    
C4    O31   S    
C63   H10   S    
C100  H49   S    
C43   C51   T    
Cr1   O4    S    
C49   H9    S    
Cr3   O16   S    
C96   O20   S    
Cr2   O13   S    
C99   H43   S    
C64   C65   A    
C39   C69   A    
C56   C58   A    
C90   O37   A    
C77   H20   S    
C56   H18   S    
C4    H73   S    
Cr5   O8    S    
C97   H32   S    
C74   H83   S    
C72   C83   A    
C69   C81   A    
C33   O19   A    
C33   C71   S    
C10   C61   A    
C78   C84   A    
C40   C44   S    
C42   C47   S    
C12   H12   S    
C12   C13   S    
C102  H54   S    
C65   C66   A    
C21   C24   S    
C6    H82   S    
C103  H59   S    
C50   C61   A    
C5    O32   S    
Cr6   O10   S    
C35   H39   S    
C41   H7    S    
C7    H86   S    
C6    O33   S    
C34   H6    S    
C3    O30   S    
C31   H3    S    
C19   H29   S    
C34   O24   S    
Cr3   O23   S    
C54   C57   S    
C10   C72   A    
