data_mof_unit_29652.cif
_audit_creation_date              2012-12-11T14:45:28-0500
_audit_creation_method            fapswitch 2.2
_symmetry_space_group_name_H-M    P1
_symmetry_Int_Tables_number       1
_space_group_crystal_system       triclinic
_cell_length_a                    25.007378
_cell_length_b                    7.165387
_cell_length_c                    14.295788
_cell_angle_alpha                 89.999951
_cell_angle_beta                  102.369998
_cell_angle_gamma                 89.99999
_cell_volume                      2502.15787069

loop_
_atom_site_label
_atom_site_type_symbol
_atom_type_description
_atom_site_fract_x
_atom_site_fract_y
_atom_site_fract_z
_atom_type_partial_charge
O1    O     O_R   0.319150 0.364170 0.330530 -0.534062
O2    O     O_R   0.680850 0.635830 0.669470 -0.534062
O3    O     O_R   0.180850 0.864170 0.169470 -0.534062
O4    O     O_R   0.819150 0.135830 0.830530 -0.534062
O5    O     O_R   0.210330 0.696850 0.354180 -0.539200
O6    O     O_R   0.789670 0.303150 0.645820 -0.539200
O7    O     O_R   0.289670 0.196850 0.145820 -0.539200
O8    O     O_R   0.710330 0.803150 0.854180 -0.539200
C1    C     C_R   0.196715 0.525267 0.378115 0.677562
C2    C     C_R   0.803284 0.474733 0.621885 0.677562
C3    C     C_R   0.303285 0.025267 0.121885 0.677561
C4    C     C_R   0.696715 0.974733 0.878115 0.677562
O9    O     O_R   0.320550 0.694110 0.341970 -0.529964
O10   O     O_R   0.679450 0.305890 0.658030 -0.529964
O11   O     O_R   0.179450 0.194110 0.158030 -0.529964
O12   O     O_R   0.820550 0.805890 0.841970 -0.529965
O13   O     O_R   0.291860 0.861000 0.157170 -0.536542
O14   O     O_R   0.708140 0.139000 0.842830 -0.536542
O15   O     O_R   0.208140 0.361000 0.342830 -0.536542
O16   O     O_R   0.791860 0.639000 0.657170 -0.536542
C5    C     C_R   0.341660 0.526765 0.362670 0.705943
C6    C     C_R   0.658340 0.473234 0.637330 0.705944
C7    C     C_R   0.158340 0.026766 0.137330 0.705945
C8    C     C_R   0.841660 0.973234 0.862670 0.705944
O17   O     O_3   0.240460 0.529330 0.189380 -0.369147
O18   O     O_3   0.759540 0.470670 0.810620 -0.369147
O19   O     O_3   0.259540 0.029330 0.310620 -0.369147
O20   O     O_3   0.740460 0.970670 0.689380 -0.369147
V1    V     V_3+5 0.251770 0.805510 0.261240 1.453171
V2    V     V_3+5 0.748230 0.194490 0.738760 1.453171
V3    V     V_3+5 0.248230 0.305510 0.238760 1.453171
V4    V     V_3+5 0.751770 0.694490 0.761240 1.453170
C9    C     C_R   0.102542 0.028480 0.074273 -0.205639
C10   C     C_R   0.897458 0.971520 0.925727 -0.205640
C11   C     C_R   0.397458 0.528479 0.425727 -0.205639
C12   C     C_R   0.602542 0.471520 0.574273 -0.205639
C13   C     C_R   0.964386 0.803087 0.046577 0.382077
C14   C     C_R   0.035614 0.196914 0.953424 0.382076
C15   C     C_R   0.535614 0.303087 0.453423 0.382076
C16   C     C_R   0.464385 0.696912 0.546577 0.382076
C17   C     C_R   0.909773 0.837399 0.000334 0.220486
C18   C     C_R   0.090226 0.162600 0.999666 0.220485
C19   C     C_R   0.590227 0.337401 0.499666 0.220485
C20   C     C_R   0.409773 0.662599 0.500334 0.220485
C21   C     C_R   0.940665 0.077202 0.902289 0.100106
C22   C     C_R   0.059335 0.922799 0.097711 0.100106
C23   C     C_R   0.559335 0.577201 0.597711 0.100106
C24   C     C_R   0.440665 0.422799 0.402289 0.100106
C25   C     C_R   0.993981 0.069551 0.963577 -0.076117
C26   C     C_R   0.006019 0.930450 0.036424 -0.076117
C27   C     C_R   0.506019 0.569550 0.536424 -0.076116
C28   C     C_R   0.493981 0.430450 0.463577 -0.076116
C29   C     C_R   0.664651 0.983415 0.953128 -0.035039
C30   C     C_R   0.335349 0.016585 0.046872 -0.035039
C31   C     C_R   0.835349 0.483415 0.546872 -0.035039
C32   C     C_R   0.164651 0.516585 0.453128 -0.035039
C33   C     C_R   0.656859 0.957976 0.118426 -0.156046
C34   C     C_R   0.343141 0.042022 0.881574 -0.156045
C35   C     C_R   0.843141 0.457980 0.381574 -0.156046
C36   C     C_R   0.156859 0.542021 0.618426 -0.156046
C37   C     C_R   0.689670 0.978771 0.051152 0.157359
C38   C     C_R   0.310330 0.021228 0.948848 0.157360
C39   C     C_R   0.810330 0.478774 0.448847 0.157360
C40   C     C_R   0.189670 0.521226 0.551152 0.157360
C41   C     C_R   0.607550 0.991324 0.925489 -0.250736
C42   C     C_R   0.392450 0.008677 0.074511 -0.250737
C43   C     C_R   0.892450 0.491323 0.574511 -0.250737
C44   C     C_R   0.107550 0.508678 0.425489 -0.250736
C45   C     C_R   0.574248 0.996370 0.993846 0.060312
C46   C     C_R   0.425752 0.003631 0.006154 0.060312
C47   C     C_R   0.925752 0.496370 0.506154 0.060312
C48   C     C_R   0.074248 0.503631 0.493846 0.060312
C49   C     C_R   0.599120 0.956068 0.090366 0.042822
C50   C     C_R   0.400880 0.043932 0.909634 0.042821
C51   C     C_R   0.900879 0.456070 0.409633 0.042821
C52   C     C_R   0.099120 0.543931 0.590366 0.042821
C53   C     C_R   0.516592 0.028170 0.967686 -0.031604
C54   C     C_R   0.483408 0.971831 0.032314 -0.031604
C55   C     C_R   0.983408 0.528170 0.532314 -0.031604
C56   C     C_R   0.016592 0.471832 0.467686 -0.031604
C57   C     C_R   0.508970 0.883396 0.120157 0.170933
C58   C     C_R   0.491030 0.116605 0.879843 0.170933
C59   C     C_R   0.991030 0.383398 0.379843 0.170933
C60   C     C_R   0.008970 0.616604 0.620157 0.170932
C61   C     C_R   0.566156 0.901775 0.154682 0.143426
C62   C     C_R   0.433844 0.098226 0.845318 0.143427
C63   C     C_R   0.933843 0.401778 0.345318 0.143425
C64   C     C_R   0.066156 0.598225 0.654682 0.143426
H1    H     H_    0.410628 0.012198 0.150162 0.135547
H2    H     H_    0.589372 0.987804 0.849838 0.135547
H3    H     H_    0.089372 0.512199 0.349838 0.135547
H4    H     H_    0.910628 0.487802 0.650162 0.135547
H5    H     H_    0.677320 0.940298 0.192626 0.136596
H6    H     H_    0.322680 0.059699 0.807374 0.136596
H7    H     H_    0.822680 0.440303 0.307374 0.136596
H8    H     H_    0.177320 0.559697 0.692626 0.136596
C65   C     C_3   0.068601 0.823695 0.194023 -0.618378
H9    H     H_    0.100436 0.892862 0.249026 0.167055
H10   H     H_    0.031531 0.830346 0.224889 0.216479
H11   H     H_    0.080641 0.676358 0.186083 0.221326
C66   C     C_3   0.931399 0.176305 0.805978 -0.618378
H12   H     H_    0.899564 0.107138 0.750974 0.167055
H13   H     H_    0.919359 0.323642 0.813917 0.221325
H14   H     H_    0.968469 0.169655 0.775111 0.216478
C67   C     C_3   0.431399 0.323696 0.305978 -0.618379
H15   H     H_    0.399563 0.392862 0.250974 0.167055
H16   H     H_    0.468468 0.330348 0.275111 0.216478
H17   H     H_    0.419360 0.176358 0.313917 0.221326
C68   C     C_3   0.568601 0.676303 0.694023 -0.618377
H18   H     H_    0.600436 0.607135 0.749026 0.167055
H19   H     H_    0.580641 0.823640 0.686084 0.221325
H20   H     H_    0.531531 0.669652 0.724890 0.216479
O21   O     O_3   0.130320 0.268824 0.971968 -0.648503
H21   H     H_    0.165086 0.198594 0.985246 0.289909
O22   O     O_3   0.869680 0.731175 0.028032 -0.648502
H22   H     H_    0.834913 0.801404 0.014753 0.289910
O23   O     O_3   0.369680 0.768823 0.528032 -0.648503
H23   H     H_    0.334913 0.698593 0.514753 0.289910
O24   O     O_3   0.630320 0.231177 0.471968 -0.648503
H24   H     H_    0.665087 0.301407 0.485246 0.289910
O25   O     O_3   0.977982 0.642339 0.100046 -0.647268
H25   H     H_    0.947685 0.550978 0.084702 0.329892
O26   O     O_3   0.022018 0.357662 0.899955 -0.647269
H26   H     H_    0.052315 0.449019 0.915294 0.329893
O27   O     O_3   0.522018 0.142340 0.399954 -0.647269
H27   H     H_    0.552316 0.050982 0.415294 0.329893
O28   O     O_3   0.477981 0.857659 0.600047 -0.647269
H28   H     H_    0.447684 0.949016 0.584707 0.329894
C69   C     C_3   0.592476 0.847045 0.256843 -0.763663
H29   H     H_    0.616707 0.966016 0.293533 0.225342
H30   H     H_    0.562496 0.810941 0.300760 0.224175
H31   H     H_    0.619638 0.724476 0.256662 0.204644
C70   C     C_3   0.407524 0.152955 0.743157 -0.763664
H32   H     H_    0.383294 0.033984 0.706467 0.225342
H33   H     H_    0.380362 0.275523 0.743338 0.204644
H34   H     H_    0.437503 0.189060 0.699240 0.224175
C71   C     C_3   0.907523 0.347049 0.243156 -0.763659
H35   H     H_    0.883293 0.466021 0.206466 0.225344
H36   H     H_    0.937503 0.310946 0.199239 0.224175
H37   H     H_    0.880362 0.224481 0.243337 0.204642
C72   C     C_3   0.092476 0.652954 0.756843 -0.763664
H38   H     H_    0.116707 0.533982 0.793533 0.225342
H39   H     H_    0.119638 0.775522 0.756662 0.204643
H40   H     H_    0.062497 0.689058 0.800760 0.224175
C73   C     C_3   0.249244 0.009822 0.913128 -0.800440
H41   H     H_    0.233420 0.146591 0.882688 0.214212
H42   H     H_    0.239414 0.901974 0.856205 0.213062
H43   H     H_    0.227866 0.969189 0.970365 0.185665
C74   C     C_3   0.750756 0.990174 0.086872 -0.800437
H44   H     H_    0.766580 0.853404 0.117311 0.214211
H45   H     H_    0.772134 0.030808 0.029635 0.185665
H46   H     H_    0.760586 0.098022 0.143796 0.213061
C75   C     C_3   0.250756 0.509820 0.586872 -0.800439
H47   H     H_    0.266580 0.646589 0.617313 0.214212
H48   H     H_    0.260586 0.401970 0.643795 0.213061
H49   H     H_    0.272134 0.469189 0.529635 0.185665
C76   C     C_3   0.749244 0.490179 0.413128 -0.800440
H50   H     H_    0.733420 0.353410 0.382688 0.214212
H51   H     H_    0.727866 0.530811 0.470365 0.185665
H52   H     H_    0.739414 0.598028 0.356205 0.213062
C77   C     C_3   0.478608 0.740178 0.167652 -0.781871
H53   H     H_    0.469131 0.796969 0.234531 0.214560
H54   H     H_    0.440478 0.691193 0.119125 0.215486
H55   H     H_    0.504095 0.612851 0.185596 0.216074
C78   C     C_3   0.521392 0.259823 0.832348 -0.781870
H56   H     H_    0.559522 0.308808 0.880875 0.215485
H57   H     H_    0.530869 0.203033 0.765469 0.214559
H58   H     H_    0.495905 0.387150 0.814405 0.216074
C79   C     C_3   0.021391 0.240181 0.332347 -0.781870
H59   H     H_    0.030869 0.296972 0.265469 0.214560
H60   H     H_    0.059522 0.191195 0.380874 0.215485
H61   H     H_    0.995905 0.112854 0.314403 0.216073
C80   C     C_3   0.978608 0.759821 0.667652 -0.781869
H62   H     H_    0.940478 0.808806 0.619126 0.215485
H63   H     H_    0.969131 0.703030 0.734531 0.214559
H64   H     H_    0.004095 0.887148 0.685596 0.216073

loop_
_geom_bond_atom_site_label_1
_geom_bond_atom_site_label_2
_ccdc_geom_bond_type
C34   C38   A    
C59   C63   A    
O1    C5    A    
C78   H56   S    
C15   O27   S    
O19   V1    S    
O23   H23   S    
O13   V1    S    
C79   H59   S    
C67   H15   S    
O3    C7    A    
C48   C52   A    
O15   V3    S    
C65   H11   S    
C47   C55   A    
C65   H9    S    
C74   H46   S    
O26   H26   S    
C14   C25   A    
C53   C54   A    
O7    C3    A    
C67   H16   S    
C66   H12   S    
O27   H27   S    
C9    C18   A    
C53   C58   A    
O9    V1    S    
O10   V2    S    
C14   C18   A    
C74   H45   S    
C73   H41   S    
C55   C60   A    
O4    C8    A    
C46   C54   A    
O22   H22   S    
O1    V3    S    
C44   H3    S    
C12   C23   A    
O2    V4    S    
C33   C49   A    
O3    V1    S    
C45   C53   A    
C62   C70   S    
C68   H19   S    
C73   H42   S    
C29   C37   A    
C1    O15   A    
C76   H50   S    
C2    O16   A    
C7    C9    S    
C38   C73   S    
C31   C39   A    
C46   C50   A    
C70   H34   S    
C32   C40   A    
C45   C49   A    
O14   V2    S    
C75   H48   S    
C29   C41   A    
C52   C64   A    
C16   C20   A    
C4    C29   S    
C44   C48   A    
C69   H31   S    
C61   C69   S    
O11   C7    A    
C15   C28   A    
O12   C8    A    
C33   H5    S    
C9    C22   A    
C79   H60   S    
C78   H57   S    
C10   C17   A    
C35   H7    S    
C17   O22   S    
C56   C59   A    
C11   C24   A    
C77   H54   S    
C77   H53   S    
C42   H1    S    
O5    V1    S    
C80   H63   S    
C41   H2    S    
C71   H37   S    
O7    V3    S    
C27   C28   A    
O8    V4    S    
C60   C64   A    
C65   H10   S    
C68   H20   S    
C10   C21   A    
O18   V4    S    
C15   C19   A    
C30   C38   A    
C80   H62   S    
C16   O28   S    
C40   C75   S    
C36   C52   A    
C8    C10   S    
C34   H6    S    
O5    C1    A    
C11   C20   A    
C71   H36   S    
C18   O21   S    
C31   C43   A    
C24   C67   S    
C21   C25   A    
O8    C4    A    
O9    C5    A    
C1    C32   S    
C67   H17   S    
C50   C62   A    
C75   H49   S    
C33   C37   A    
C2    C31   S    
C49   C61   A    
O25   H25   S    
C3    C30   S    
C21   C66   S    
C13   O25   S    
C36   H8    S    
C51   C63   A    
O6    V2    S    
C22   C65   S    
C78   H58   S    
C72   H38   S    
C23   C68   S    
C70   H32   S    
C79   H61   S    
C72   H40   S    
O12   V4    S    
C39   C76   S    
O28   H28   S    
C35   C51   A    
C64   C72   S    
C77   H55   S    
C73   H43   S    
C34   C50   A    
O21   H21   S    
O16   V4    S    
C80   H64   S    
C3    O13   A    
C57   C77   S    
O17   V3    S    
C14   O26   S    
O6    C2    A    
C23   C27   A    
O24   H24   S    
O11   V3    S    
C30   C42   A    
C76   H52   S    
C66   H14   S    
C16   C27   A    
C6    C12   S    
C71   H35   S    
C22   C26   A    
C35   C39   A    
C66   H13   S    
C36   C40   A    
C32   C44   A    
O2    C6    A    
C72   H39   S    
C5    C11   S    
C69   H29   S    
C48   C56   A    
C58   C62   A    
C74   H44   S    
C47   C51   A    
C13   C26   A    
C54   C57   A    
O10   C6    A    
C42   C46   A    
C20   O23   S    
C41   C45   A    
C59   C79   S    
O20   V2    S    
C43   H4    S    
C43   C47   A    
C13   C17   A    
O4    V2    S    
C55   C56   A    
C68   H18   S    
C24   C28   A    
C76   H51   S    
C25   C26   A    
C4    O14   A    
C70   H33   S    
C12   C19   A    
C75   H47   S    
C63   C71   S    
C37   C74   S    
C57   C61   A    
C60   C80   S    
C19   O24   S    
C69   H30   S    
C58   C78   S    
