data_mof_unit_64805.cif
_audit_creation_date              2012-10-26T18:54:34-0400
_audit_creation_method            fapswitch 2.2
_symmetry_space_group_name_H-M    P1
_symmetry_Int_Tables_number       1
_space_group_crystal_system       triclinic
_cell_length_a                    15.926229
_cell_length_b                    11.731267
_cell_length_c                    10.476461
_cell_angle_alpha                 90.000072
_cell_angle_beta                  89.93911
_cell_angle_gamma                 90.000096
_cell_volume                      1957.36685864

loop_
_atom_site_label
_atom_site_type_symbol
_atom_type_description
_atom_site_fract_x
_atom_site_fract_y
_atom_site_fract_z
_atom_type_partial_charge
C1    C     C_1   0.500000 0.161948 0.500000 -0.011284
C2    C     C_1   0.500000 0.940267 0.500000 -0.029587
C3    C     C_3   0.971982 0.416548 0.573087 0.124651
C4    C     C_3   0.028018 0.583452 0.426913 0.124652
C5    C     C_3   0.028020 0.401720 0.455514 0.098989
C6    C     C_3   0.971980 0.598279 0.544486 0.098989
C7    C     C_1   0.250142 0.500054 0.500390 -0.011434
C8    C     C_1   0.749858 0.499946 0.499610 -0.011434
C9    C     C_3   0.027606 0.515416 0.622652 -0.110909
C10   C     C_3   0.972394 0.484584 0.377348 -0.110909
C11   C     C_3   0.083678 0.500184 0.502060 0.051787
C12   C     C_1   0.500000 0.838052 0.500000 -0.011283
C13   C     C_3   0.916322 0.499816 0.497940 0.051786
C14   C     C_1   0.174931 0.500108 0.501076 -0.017583
C15   C     C_1   0.825069 0.499892 0.498924 -0.017584
C16   C     C_1   0.500004 0.500000 0.072084 0.109562
C17   C     C_1   0.499996 0.500000 0.927915 0.109562
C18   C     C_R   0.500000 0.283331 0.500000 0.548486
C19   C     C_R   0.500000 0.716669 0.500000 0.548486
C20   C     C_R   0.339441 0.500005 0.500058 0.548467
C21   C     C_R   0.660559 0.499994 0.499942 0.548467
C22   C     C_1   0.500000 0.059733 0.500000 -0.029587
Cu1   Cu    Cu3+1 0.500000 0.500000 0.625300 1.010712
Cu2   Cu    Cu3+1 0.500000 0.500000 0.374700 1.010712
H1    H     H_    0.007608 0.244118 0.382170 0.227694
H2    H     H_    0.049354 0.527898 0.722304 0.118127
H3    H     H_    0.094614 0.308396 0.327706 0.238877
H4    H     H_    0.992391 0.755880 0.617836 0.227694
H5    H     H_    0.905382 0.691604 0.672291 0.238877
H6    H     H_    0.992369 0.278581 0.685674 0.246946
H7    H     H_    0.907182 0.268440 0.592152 0.233976
H8    H     H_    0.007631 0.721418 0.314326 0.246946
H9    H     H_    0.092818 0.731560 0.407848 0.233976
H10   H     H_    0.950646 0.472102 0.277696 0.118127
N1    N     N_1   0.500010 0.500000 0.186410 -0.186622
N2    N     N_1   0.499990 0.500000 0.813590 -0.186622
N3    N     N_3   0.059518 0.292493 0.410132 -0.622351
N4    N     N_3   0.940482 0.707507 0.589867 -0.622352
N5    N     N_3   0.940380 0.323710 0.651870 -0.612656
N6    N     N_3   0.059620 0.676290 0.348130 -0.612656
O1    O     O_R   0.499990 0.337200 0.605810 -0.488093
O2    O     O_R   0.500010 0.662800 0.394190 -0.488093
O3    O     O_R   0.500010 0.337200 0.394190 -0.489023
O4    O     O_R   0.499990 0.662800 0.605810 -0.489023
O5    O     O_R   0.379070 0.500000 0.605790 -0.491786
O6    O     O_R   0.620930 0.500000 0.394210 -0.491786
O7    O     O_R   0.379080 0.500000 0.394170 -0.486945
O8    O     O_R   0.620920 0.500000 0.605830 -0.486945

loop_
_geom_bond_atom_site_label_1
_geom_bond_atom_site_label_2
_ccdc_geom_bond_type
H5    N4    S    
C2    C22   S    
Cu1   Cu2   S    
C6    N4    S    
C5    C11   S    
C3    C9    S    
C17   N2    T    
C5    N3    S    
Cu2   O2    S    
C20   O5    A    
Cu1   O1    S    
C19   O2    A    
H4    N4    S    
C21   O8    A    
C2    C12   T    
C6    C9    S    
C13   C15   S    
C8    C21   S    
C3    N5    S    
C1    C22   T    
C10   H10   S    
C18   O3    A    
C6    C13   S    
C9    C11   S    
C1    C18   S    
H3    N3    S    
Cu1   O5    S    
C12   C19   S    
H7    N5    S    
C9    H2    S    
Cu1   N2    S    
C8    C15   T    
H8    N6    S    
C16   N1    T    
C11   C14   S    
C20   O7    A    
C4    C10   S    
Cu2   N1    S    
C3    C5    S    
C5    C10   S    
C19   O4    A    
C4    C6    S    
C21   O6    A    
C18   O1    A    
H6    N5    S    
Cu2   O3    S    
H9    N6    S    
C16   C17   S    
Cu1   O8    S    
H1    N3    S    
Cu2   O7    S    
C7    C20   S    
C7    C14   T    
Cu1   O4    S    
C4    N6    S    
Cu2   O6    S    
C4    C11   S    
C10   C13   S    
C3    C13   S    
