data_mof_unit_29434.cif
_audit_creation_date              2012-12-10T17:47:43-0500
_audit_creation_method            fapswitch 2.2
_symmetry_space_group_name_H-M    P1
_symmetry_Int_Tables_number       1
_space_group_crystal_system       triclinic
_cell_length_a                    14.78759
_cell_length_b                    14.962836
_cell_length_c                    14.314952
_cell_angle_alpha                 75.53765
_cell_angle_beta                  101.774675
_cell_angle_gamma                 115.853454
_cell_volume                      2743.54250935

loop_
_atom_site_label
_atom_site_type_symbol
_atom_type_description
_atom_site_fract_x
_atom_site_fract_y
_atom_site_fract_z
_atom_type_partial_charge
C1    C     C_R   0.879756 0.312609 0.515150 0.817944
C2    C     C_R   0.119958 0.687215 0.487420 0.803001
C3    C     C_R   0.636046 0.079287 0.547487 0.057337
C4    C     C_R   0.357757 0.922489 0.520709 0.071547
C5    C     C_R   0.673812 0.003726 0.588990 0.008420
C6    C     C_R   0.318459 0.997927 0.494113 0.019728
C7    C     C_R   0.529990 0.052981 0.535239 0.001077
C8    C     C_R   0.462826 0.949869 0.549811 -0.004413
C9    C     C_R   0.502086 0.877404 0.596957 -0.260508
C10   C     C_R   0.489154 0.126393 0.511278 -0.230280
C11   C     C_R   0.605742 0.903873 0.620264 0.418784
C12   C     C_R   0.385122 0.100173 0.493150 0.360272
C13   C     C_R   0.702364 0.643247 0.320105 -0.298538
C14   C     C_R   0.321136 0.431633 0.699296 -0.318082
C15   C     C_R   0.787150 0.621846 0.351327 0.485433
C16   C     C_R   0.222354 0.401500 0.654406 0.563548
C17   C     C_R   0.720812 0.531364 0.504783 0.469801
C18   C     C_R   0.280147 0.476456 0.498728 0.475077
C19   C     C_R   0.640286 0.567643 0.475888 -0.081530
C20   C     C_R   0.383388 0.507535 0.541632 -0.153237
C21   C     C_R   0.629935 0.617018 0.379528 0.029365
C22   C     C_R   0.401616 0.486005 0.643837 0.023095
C23   C     C_R   0.000198 0.499991 0.668584 0.851664
C24   C     C_R   0.999691 0.499701 0.331476 0.856089
C25   C     C_R   0.563945 0.551816 0.534211 0.106123
C26   C     C_R   0.469130 0.553087 0.488464 0.106948
C27   C     C_R   0.466710 0.608726 0.394713 -0.097892
C28   C     C_R   0.580937 0.547002 0.634936 -0.009878
C29   C     C_R   0.547011 0.641992 0.341473 -0.106046
C30   C     C_R   0.500422 0.511582 0.689522 -0.063903
C31   C     C_1   0.000453 0.499717 0.771127 -0.076372
C32   C     C_1   0.999297 0.499328 0.229052 -0.032890
C33   C     C_1   0.000308 0.499489 0.856674 0.031670
C34   C     C_1   0.999335 0.499214 0.143571 0.043851
C35   C     C_1   0.999941 0.499307 0.957398 0.046948
C36   C     C_1   0.999627 0.499225 0.042881 0.047732
C37   C     C_R   0.809945 0.205147 0.532907 -0.063698
C38   C     C_R   0.187532 0.794195 0.488120 -0.048995
C39   C     C_R   0.778735 0.030224 0.597981 -0.093758
C40   C     C_R   0.213454 0.968716 0.468951 -0.082079
C41   C     C_R   0.845703 0.129741 0.570758 -0.184482
C42   C     C_R   0.148921 0.868094 0.467184 -0.198311
C43   C     C_R   0.705617 0.178717 0.517504 -0.139310
C44   C     C_R   0.291335 0.821927 0.513762 -0.200163
Cu1   Cu    Cu3+1 0.081740 0.475690 0.523180 1.070116
Cu2   Cu    Cu3+1 0.918260 0.524310 0.476820 1.078837
H1    H     H_    0.404428 0.629699 0.363310 0.186636
H2    H     H_    0.656077 0.570072 0.672108 0.214355
H3    H     H_    0.319634 0.764262 0.525156 0.154090
H4    H     H_    0.680209 0.237081 0.480360 0.170592
H5    H     H_    0.068646 0.848492 0.448473 0.171222
H6    H     H_    0.925522 0.147531 0.580005 0.227998
H7    H     H_    0.810524 0.974757 0.625481 0.222332
H8    H     H_    0.179544 0.022681 0.449753 0.216021
H9    H     H_    0.452501 0.800010 0.621199 0.198744
H10   H     H_    0.537079 0.205095 0.510441 0.215727
H11   H     H_    0.542288 0.684195 0.268413 0.154647
H12   H     H_    0.515184 0.500423 0.767969 0.149535
H13   H     H_    0.691556 0.681781 0.246561 0.214407
H14   H     H_    0.335684 0.405505 0.776250 0.202220
N1    N     N_R   0.795420 0.560790 0.441960 -0.287351
N2    N     N_R   0.204580 0.439210 0.558040 -0.266956
O1    O     O_R   0.977910 0.338120 0.530560 -0.521388
O2    O     O_R   0.022090 0.661880 0.469440 -0.554944
O3    O     O_R   0.839850 0.379180 0.491410 -0.549136
O4    O     O_R   0.160150 0.620820 0.508590 -0.605295
O5    O     O_R   0.069040 0.479460 0.643530 -0.553373
O6    O     O_R   0.930960 0.520540 0.356470 -0.506408
O7    O     O_R   0.930990 0.520530 0.604380 -0.500570
O8    O     O_R   0.069010 0.479470 0.395620 -0.508494
S1    S     S_3+6 0.646558 0.810396 0.691902 -0.012338
O9    O     O_2   0.690851 0.776450 0.629013 -0.312346
O10   O     O_2   0.725899 0.854058 0.771596 -0.265296
O11   O     O_3   0.548716 0.711101 0.741812 -0.554409
H15   H     H_    0.579259 0.679787 0.801502 0.379892
S2    S     S_3+6 0.342249 0.198581 0.466255 0.057450
O12   O     O_2   0.290422 0.203653 0.364405 -0.206556
O13   O     O_2   0.267927 0.176831 0.535362 -0.261794
O14   O     O_3   0.439507 0.310774 0.475577 -0.485337
H16   H     H_    0.428203 0.332219 0.530670 0.388498
S3    S     S_3+6 0.244542 0.442828 0.381431 0.052281
O15   O     O_2   0.322678 0.417802 0.354431 -0.219839
O16   O     O_2   0.146082 0.351071 0.382115 -0.222928
O17   O     O_3   0.230736 0.538455 0.297429 -0.584842
H17   H     H_    0.219703 0.517138 0.234386 0.371964
S4    S     S_3+6 0.714487 0.441193 0.617787 0.004629
O18   O     O_2   0.606625 0.380305 0.638855 -0.326013
O19   O     O_2   0.755274 0.365047 0.621785 -0.266833
O20   O     O_3   0.780086 0.505163 0.708293 -0.563418
H18   H     H_    0.760845 0.455260 0.768820 0.375203
S5    S     S_3+6 0.131909 0.286907 0.712152 0.058528
O21   O     O_2   0.103908 0.209358 0.650024 -0.261837
O22   O     O_2   0.177842 0.251556 0.810099 -0.267695
O23   O     O_3   0.026608 0.295360 0.727750 -0.531774
H19   H     H_    0.980139 0.225200 0.751998 0.372498
S6    S     S_3+6 0.869771 0.672673 0.256729 0.044610
O24   O     O_2   0.839985 0.593013 0.196496 -0.257107
O25   O     O_2   0.852857 0.760865 0.190559 -0.291182
O26   O     O_3   0.994526 0.714511 0.291178 -0.515090
H20   H     H_    0.018269 0.787906 0.288882 0.356427

loop_
_geom_bond_atom_site_label_1
_geom_bond_atom_site_label_2
_ccdc_geom_bond_type
C44   H3    S    
C7    C10   A    
C27   C29   A    
C23   O7    A    
C35   C36   T    
S2    O14   S    
C4    C8    A    
S3    O15   D    
C24   O8    A    
C7    C8    A    
C39   C41   A    
Cu1   Cu2   S    
C25   C28   A    
C38   C44   A    
C3    C43   A    
C26   C27   A    
C19   C21   A    
S2    O13   D    
C5    C11   A    
C3    C7    A    
C6    C12   A    
C33   C35   S    
C11   S1    S    
S6    O26   S    
Cu1   N2    S    
C18   S3    S    
C23   O5    A    
Cu2   O7    S    
C17   N1    A    
C8    C9    A    
S6    O25   D    
Cu1   O5    S    
C1    O3    A    
C31   C33   T    
C9    H9    S    
C10   H10   S    
C41   H6    S    
C18   C20   A    
C1    C37   S    
C42   H5    S    
C40   C42   A    
C16   N2    A    
C1    O1    A    
S3    O16   D    
C2    O2    A    
Cu2   N1    S    
O11   H15   S    
S4    O19   D    
C17   S4    S    
C6    C40   A    
O17   H17   S    
Cu2   O3    S    
C4    C6    A    
C15   S6    S    
S1    O10   D    
S4    O18   D    
C18   N2    A    
C4    C44   A    
C3    C5    A    
C25   C26   A    
C21   C29   A    
Cu1   O1    S    
Cu2   O2    S    
C23   C31   S    
C37   C43   A    
C24   C32   S    
Cu2   O6    S    
S5    O22   D    
C2    C38   S    
O26   H20   S    
S6    O24   D    
C15   N1    A    
C13   C21   A    
S2    O12   D    
C9    C11   A    
C10   C12   A    
C20   C22   A    
C40   H8    S    
C13   C15   A    
C14   C16   A    
S5    O21   D    
S3    O17   S    
C27   H1    S    
C5    C39   A    
C28   H2    S    
C22   C30   A    
Cu1   O8    S    
C29   H11   S    
C2    O4    A    
S4    O20   S    
S1    O11   S    
C43   H4    S    
C38   C42   A    
C13   H13   S    
C14   H14   S    
C14   C22   A    
C12   S2    S    
S1    O9    D    
S5    O23   S    
C39   H7    S    
C20   C26   A    
C30   H12   S    
C28   C30   A    
C17   C19   A    
C34   C36   S    
C37   C41   A    
O23   H19   S    
C19   C25   A    
C24   O6    A    
O14   H16   S    
C16   S5    S    
Cu1   O4    S    
O20   H18   S    
C32   C34   T    
