data_mof_unit_15464.cif
_audit_creation_date              2012-12-10T17:29:23-0500
_audit_creation_method            fapswitch 2.2
_symmetry_space_group_name_H-M    P1
_symmetry_Int_Tables_number       1
_space_group_crystal_system       triclinic
_cell_length_a                    11.99612
_cell_length_b                    12.894123
_cell_length_c                    13.062734
_cell_angle_alpha                 87.454775
_cell_angle_beta                  113.552319
_cell_angle_gamma                 93.384112
_cell_volume                      1848.50837618

loop_
_atom_site_label
_atom_site_type_symbol
_atom_type_description
_atom_site_fract_x
_atom_site_fract_y
_atom_site_fract_z
_atom_type_partial_charge
C1    C     C_R   0.477593 0.299436 0.498840 0.885872
C2    C     C_R   0.613379 0.511194 0.829787 -0.136589
C3    C     C_R   0.535469 0.811885 0.501618 -0.053559
C4    C     C_R   0.567614 0.501490 0.708851 0.875257
C5    C     C_R   0.464067 0.188142 0.497505 -0.056625
C6    C     C_R   0.339770 0.030263 0.470472 -0.219694
C7    C     C_R   0.350594 0.137556 0.475443 -0.216705
C8    C     C_R   0.566870 0.132138 0.516107 -0.279667
C9    C     C_R   0.556860 0.025654 0.510821 0.187546
C10   C     C_R   0.442425 0.974382 0.487688 0.188672
C11   C     C_R   0.432524 0.867855 0.482676 -0.286455
C12   C     C_R   0.565858 0.532524 0.989970 0.071009
C13   C     C_R   0.648825 0.862530 0.523402 -0.203489
C14   C     C_R   0.659524 0.969820 0.528030 -0.223966
C15   C     C_R   0.000495 0.583295 0.381233 -0.323244
C16   C     C_R   0.522283 0.700574 0.500924 0.879610
C17   C     C_R   0.122505 0.577411 0.394983 0.035482
C18   C     C_R   0.162890 0.465757 0.553512 -0.056014
C19   C     C_R   0.040850 0.469502 0.543074 0.088339
C20   C     C_R   0.958665 0.529256 0.455781 0.085210
C21   C     C_R   0.836821 0.533518 0.445823 -0.062517
C22   C     C_R   0.877207 0.421694 0.604256 0.012365
C23   C     C_R   0.542245 0.556473 0.877827 0.081596
C24   C     C_R   0.998935 0.415152 0.617386 -0.334421
C25   C     C_R   0.433586 0.506335 0.291103 0.874145
C26   C     C_R   0.287502 0.631383 0.006904 -0.201486
C27   C     C_R   0.397164 0.528936 0.172780 -0.072718
C28   C     C_R   0.722627 0.465190 0.898243 -0.248181
C29   C     C_R   0.759535 0.459601 0.014529 0.079524
C30   C     C_R   0.679203 0.491865 0.059359 -0.254341
C31   C     C_R   0.878966 0.416623 0.088428 0.120570
C32   C     C_R   0.980939 0.431547 0.060579 -0.178026
C33   C     C_R   0.092574 0.391020 0.129585 -0.139295
C34   C     C_R   0.474753 0.549851 0.028728 0.092117
C35   C     C_R   0.105027 0.337105 0.228277 -0.081851
C36   C     C_R   0.005277 0.322153 0.257506 -0.129911
C37   C     C_R   0.892718 0.360721 0.187859 -0.152408
C38   C     C_R   0.374848 0.610991 0.964859 0.175188
C39   C     C_R   0.364674 0.650698 0.860681 -0.257699
C40   C     C_R   0.446743 0.622896 0.816857 -0.197159
C41   C     C_R   0.477944 0.502954 0.127338 -0.264932
C42   C     C_R   0.300396 0.592453 0.112359 -0.218246
H1    H     H_    0.237780 0.614322 0.147833 0.155310
H2    H     H_    0.059834 0.368400 0.685477 0.146270
H3    H     H_    0.291222 0.700266 0.811607 0.150209
H4    H     H_    0.226554 0.419144 0.619651 0.136002
H5    H     H_    0.211848 0.679568 0.959898 0.137091
H6    H     H_    0.545745 0.447381 0.172298 0.151174
H7    H     H_    0.777138 0.431156 0.860528 0.149806
H8    H     H_    0.708062 0.489490 0.148998 0.129734
H9    H     H_    0.344336 0.828787 0.464764 0.159452
H10   H     H_    0.153634 0.618457 0.336570 0.124193
H11   H     H_    0.975030 0.475295 0.986060 0.128563
H12   H     H_    0.728844 0.819437 0.538066 0.162502
H13   H     H_    0.169610 0.401375 0.106445 0.142719
H14   H     H_    0.191844 0.306524 0.281772 0.136421
H15   H     H_    0.014898 0.279948 0.333876 0.126544
H16   H     H_    0.816478 0.345376 0.211534 0.122908
H17   H     H_    0.435577 0.655149 0.735664 0.175661
H18   H     H_    0.251753 0.991191 0.452892 0.136998
H19   H     H_    0.747515 0.008921 0.545545 0.137579
H20   H     H_    0.270643 0.180667 0.461011 0.153484
H21   H     H_    0.655117 0.171145 0.534161 0.159606
H22   H     H_    0.773145 0.580100 0.379636 0.130239
H23   H     H_    0.846015 0.380320 0.662459 0.124295
H24   H     H_    0.939376 0.629395 0.312606 0.145340
N1    N     N_R   0.798200 0.480260 0.519790 -0.094863
N2    N     N_R   0.201820 0.519740 0.480210 -0.099673
O1    O     O_R   0.579910 0.341070 0.505280 -0.621759
O2    O     O_R   0.388440 0.353740 0.492580 -0.626926
O3    O     O_R   0.643280 0.490550 0.663120 -0.617324
O4    O     O_R   0.451810 0.503220 0.650420 -0.617223
O5    O     O_R   0.611560 0.646260 0.507420 -0.619585
O6    O     O_R   0.420090 0.658930 0.494720 -0.633306
O7    O     O_R   0.548190 0.496780 0.349580 -0.616456
O8    O     O_R   0.356720 0.509450 0.336880 -0.621155
Zn1   Zn    Zn3+2 0.627850 0.491540 0.508480 0.934659
Zn2   Zn    Zn3+2 0.372150 0.508460 0.491520 0.928206

loop_
_geom_bond_atom_site_label_1
_geom_bond_atom_site_label_2
_ccdc_geom_bond_type
C33   H13   S    
O2    Zn2   S    
O1    Zn1   S    
C19   C20   A    
N1    Zn1   S    
C4    O4    A    
C22   H23   S    
C12   C23   A    
C16   O6    A    
C36   C37   A    
O8    Zn2   S    
C38   C39   A    
C18   N2    A    
C23   C40   A    
C18   C19   A    
C21   H22   S    
O4    Zn2   S    
C35   C36   A    
C8    C9    A    
C9    C10   A    
C37   H16   S    
C3    C13   A    
C39   H3    S    
C30   H8    S    
C40   H17   S    
C13   C14   A    
C21   N1    A    
C34   C41   A    
C18   H4    S    
C17   H10   S    
N2    Zn2   S    
C15   C20   A    
C16   O5    A    
C6    H18   S    
C3    C11   A    
C36   H15   S    
C39   C40   A    
C5    C7    A    
C26   C38   A    
C15   H24   S    
C1    O1    A    
C31   C37   A    
C25   O7    A    
C2    C4    S    
C9    C14   A    
C7    H20   S    
C29   C30   A    
C28   H7    S    
C27   C41   A    
C31   C32   A    
O7    Zn1   S    
C26   H5    S    
C24   H2    S    
C1    C5    S    
C42   H1    S    
C12   C34   A    
C32   H11   S    
O3    Zn1   S    
C26   C42   A    
C13   H12   S    
C15   C17   A    
C28   C29   A    
C17   N2    A    
C12   C30   A    
C35   H14   S    
C34   C38   A    
C6    C10   A    
C5    C8    A    
C6    C7    A    
C25   C27   S    
C1    O2    A    
C25   O8    A    
C32   C33   A    
C19   C24   A    
C29   C31   S    
C14   H19   S    
C27   C42   A    
C33   C35   A    
C41   H6    S    
C22   C24   A    
C22   N1    A    
C11   H9    S    
C10   C11   A    
C8    H21   S    
C20   C21   A    
O6    Zn2   S    
C2    C23   A    
O5    Zn1   S    
C2    C28   A    
C4    O3    A    
C3    C16   S    
