data_mof_unit_48754.cif
_audit_creation_date              2012-10-26T17:12:42-0400
_audit_creation_method            fapswitch 2.2
_symmetry_space_group_name_H-M    P1
_symmetry_Int_Tables_number       1
_space_group_crystal_system       triclinic
_cell_length_a                    28.036268
_cell_length_b                    18.826781
_cell_length_c                    16.721738
_cell_angle_alpha                 89.999875
_cell_angle_beta                  62.951692
_cell_angle_gamma                 89.999922
_cell_volume                      7860.89156523

loop_
_atom_site_label
_atom_site_type_symbol
_atom_type_description
_atom_site_fract_x
_atom_site_fract_y
_atom_site_fract_z
_atom_type_partial_charge
C1    C     C_R   0.296233 0.731425 0.328295 0.549173
C2    C     C_R   0.603375 0.000000 0.489775 -0.000558
C3    C     C_R   0.686365 0.723192 0.911355 0.014288
C4    C     C_R   0.118292 0.828076 0.046854 -0.068486
C5    C     C_R   0.881708 0.171924 0.953146 -0.068486
C6    C     C_R   0.881707 0.828076 0.953146 -0.068486
C7    C     C_R   0.118292 0.171924 0.046854 -0.068485
C8    C     C_R   0.618292 0.328075 0.046854 -0.068486
C9    C     C_R   0.381708 0.671924 0.953146 -0.068486
C10   C     C_R   0.381707 0.328076 0.953146 -0.068486
C11   C     C_R   0.618292 0.671924 0.046854 -0.068486
C12   C     C_R   0.148922 0.815424 0.091457 0.354015
C13   C     C_R   0.896624 0.500000 0.510224 -0.000558
C14   C     C_R   0.851078 0.184576 0.908543 0.354015
C15   C     C_R   0.851078 0.815425 0.908543 0.354015
C16   C     C_R   0.148922 0.184575 0.091457 0.354015
C17   C     C_R   0.648922 0.315424 0.091457 0.354015
C18   C     C_R   0.351078 0.684575 0.908543 0.354015
C19   C     C_R   0.351078 0.315425 0.908543 0.354015
C20   C     C_R   0.648922 0.684575 0.091457 0.354015
C21   C     C_R   0.240286 0.694741 0.794927 -0.098296
C22   C     C_R   0.759714 0.305259 0.205073 -0.098296
C23   C     C_R   0.759714 0.694741 0.205073 -0.098296
C24   C     C_R   0.103375 0.500000 0.489775 -0.000558
C25   C     C_R   0.240285 0.305259 0.794927 -0.098296
C26   C     C_R   0.740286 0.194741 0.794927 -0.098296
C27   C     C_R   0.259714 0.805259 0.205073 -0.098296
C28   C     C_R   0.259715 0.194741 0.205073 -0.098296
C29   C     C_R   0.740285 0.805259 0.794927 -0.098296
C30   C     C_R   0.271412 0.680812 0.838276 -0.065397
C31   C     C_R   0.728588 0.319188 0.161724 -0.065397
C32   C     C_R   0.728588 0.680812 0.161724 -0.065398
C33   C     C_R   0.271412 0.319188 0.838276 -0.065398
C34   C     C_R   0.771412 0.180812 0.838276 -0.065397
C35   C     C_R   0.607958 0.873227 0.465161 -0.003580
C36   C     C_R   0.228588 0.819188 0.161724 -0.065397
C37   C     C_R   0.228588 0.180812 0.161724 -0.065398
C38   C     C_R   0.771412 0.819188 0.838276 -0.065398
C39   C     C_R   0.927582 0.900855 0.065088 0.544782
C40   C     C_R   0.072417 0.099145 0.934912 0.544783
C41   C     C_R   0.072417 0.900855 0.934912 0.544783
C42   C     C_R   0.927582 0.099145 0.065088 0.544782
C43   C     C_R   0.427582 0.400855 0.065088 0.544782
C44   C     C_R   0.572417 0.599145 0.934912 0.544783
C45   C     C_R   0.572417 0.400855 0.934912 0.544783
C46   C     C_R   0.392042 0.126773 0.534839 -0.003580
C47   C     C_R   0.427582 0.599145 0.065088 0.544782
C48   C     C_R   0.053713 0.628607 0.484837 0.001332
C49   C     C_R   0.946287 0.371393 0.515163 0.001332
C50   C     C_R   0.946284 0.628607 0.515172 0.001332
C51   C     C_R   0.053716 0.371393 0.484828 0.001332
C52   C     C_R   0.553713 0.128607 0.484837 0.001332
C53   C     C_R   0.446287 0.871393 0.515163 0.001332
C54   C     C_R   0.446284 0.128607 0.515172 0.001332
C55   C     C_R   0.553716 0.871393 0.484828 0.001332
C56   C     C_R   0.026952 0.693056 0.490537 -0.101498
C57   C     C_R   0.392045 0.873225 0.534832 -0.003581
C58   C     C_R   0.973048 0.306944 0.509463 -0.101498
C59   C     C_R   0.973043 0.693055 0.509481 -0.101497
C60   C     C_R   0.026957 0.306945 0.490519 -0.101497
C61   C     C_R   0.526952 0.193056 0.490536 -0.101498
C62   C     C_R   0.473048 0.806944 0.509463 -0.101498
C63   C     C_R   0.473043 0.193055 0.509480 -0.101497
C64   C     C_R   0.526957 0.806945 0.490520 -0.101497
C65   C     C_R   0.973738 0.564352 0.504645 0.018740
C66   C     C_R   0.026262 0.435648 0.495355 0.018740
C67   C     C_R   0.026261 0.564352 0.495360 0.018739
C68   C     C_R   0.607955 0.126775 0.465168 -0.003581
C69   C     C_R   0.973739 0.435648 0.504640 0.018739
C70   C     C_R   0.473738 0.064352 0.504645 0.018740
C71   C     C_R   0.526262 0.935648 0.495355 0.018740
C72   C     C_R   0.526261 0.064352 0.495360 0.018739
C73   C     C_R   0.473739 0.935648 0.504640 0.018739
C74   C     C_R   0.447672 1.000000 0.508017 -0.006785
C75   C     C_R   0.552327 0.000000 0.491983 -0.006785
C76   C     C_R   0.947672 0.500000 0.508017 -0.006785
C77   C     C_R   0.052327 0.500000 0.491983 -0.006785
C78   C     C_R   0.370617 0.934987 0.513892 -0.013465
C79   C     C_R   0.107958 0.373227 0.465161 -0.003580
C80   C     C_R   0.629383 0.065013 0.486108 -0.013465
C81   C     C_R   0.629384 0.934988 0.486106 -0.013465
C82   C     C_R   0.370616 0.065012 0.513894 -0.013465
C83   C     C_R   0.870617 0.434987 0.513892 -0.013465
C84   C     C_R   0.129383 0.565013 0.486108 -0.013465
C85   C     C_R   0.129384 0.434988 0.486106 -0.013464
C86   C     C_R   0.870616 0.565012 0.513894 -0.013465
C87   C     C_R   0.324571 0.935094 0.497711 -0.023193
C88   C     C_R   0.675429 0.064906 0.502289 -0.023193
C89   C     C_R   0.675429 0.935094 0.502288 -0.023193
C90   C     C_R   0.892042 0.626773 0.534839 -0.003580
C91   C     C_R   0.324571 0.064906 0.497712 -0.023193
C92   C     C_R   0.824571 0.435094 0.497711 -0.023193
C93   C     C_R   0.175429 0.564906 0.502289 -0.023193
C94   C     C_R   0.175429 0.435094 0.502288 -0.023193
C95   C     C_R   0.824571 0.564906 0.497712 -0.023193
C96   C     C_R   0.303285 1.000000 0.488399 -0.165478
C97   C     C_R   0.696715 0.000000 0.511601 -0.165478
C98   C     C_R   0.803285 0.500000 0.488399 -0.165478
C99   C     C_R   0.196715 0.500000 0.511601 -0.165478
C100  C     C_1   0.642697 0.827438 0.392590 0.237927
C101  C     C_R   0.892045 0.373225 0.534832 -0.003581
C102  C     C_1   0.357303 0.172562 0.607410 0.237928
C103  C     C_1   0.357307 0.827434 0.607403 0.237929
C104  C     C_1   0.642693 0.172566 0.392597 0.237929
C105  C     C_1   0.142697 0.327438 0.392590 0.237927
C106  C     C_1   0.857303 0.672562 0.607410 0.237928
C107  C     C_1   0.857307 0.327434 0.607403 0.237930
C108  C     C_1   0.142693 0.672566 0.392597 0.237930
C109  C     C_R   0.703766 0.268575 0.671705 0.549173
C110  C     C_R   0.107955 0.626775 0.465168 -0.003581
C111  C     C_R   0.217311 0.761420 0.957232 -0.028656
C112  C     C_R   0.782689 0.238580 0.042768 -0.028656
C113  C     C_R   0.782689 0.761420 0.042768 -0.028656
C114  C     C_R   0.217311 0.238580 0.957232 -0.028656
C115  C     C_R   0.717311 0.261420 0.957232 -0.028656
C116  C     C_R   0.282689 0.738580 0.042768 -0.028656
C117  C     C_R   0.282689 0.261420 0.042768 -0.028656
C118  C     C_R   0.717311 0.738580 0.957232 -0.028656
C119  C     C_R   0.263978 0.719296 0.915095 0.036799
C120  C     C_R   0.703766 0.731425 0.671705 0.549174
C121  C     C_R   0.736022 0.280704 0.084905 0.036799
C122  C     C_R   0.736022 0.719296 0.084905 0.036800
C123  C     C_R   0.263978 0.280703 0.915095 0.036800
C124  C     C_R   0.763978 0.219296 0.915095 0.036799
C125  C     C_R   0.236022 0.780704 0.084905 0.036799
C126  C     C_R   0.236022 0.219296 0.084905 0.036799
C127  C     C_R   0.763978 0.780704 0.915095 0.036799
C128  C     C_R   0.298699 0.711888 0.955237 0.016949
C129  C     C_R   0.701301 0.288112 0.044763 0.016949
C130  C     C_R   0.701301 0.711888 0.044763 0.016950
C131  C     C_R   0.296234 0.268575 0.328295 0.549174
C132  C     C_R   0.298699 0.288112 0.955237 0.016950
C133  C     C_R   0.798699 0.211888 0.955237 0.016949
C134  C     C_R   0.201301 0.788112 0.044763 0.016949
C135  C     C_R   0.201301 0.211888 0.044763 0.016950
C136  C     C_R   0.798699 0.788112 0.955237 0.016950
C137  C     C_R   0.139339 0.817977 0.953322 -0.050499
C138  C     C_R   0.860661 0.182023 0.046677 -0.050499
C139  C     C_R   0.860661 0.817978 0.046678 -0.050499
C140  C     C_R   0.139339 0.182022 0.953322 -0.050499
C141  C     C_R   0.639339 0.317977 0.953322 -0.050499
C142  C     C_R   0.796233 0.231425 0.328295 0.549173
C143  C     C_R   0.360661 0.682023 0.046677 -0.050499
C144  C     C_R   0.360660 0.317978 0.046678 -0.050499
C145  C     C_R   0.639339 0.682022 0.953322 -0.050499
C146  C     C_R   0.114714 0.845008 0.900990 -0.023632
C147  C     C_R   0.885285 0.154992 0.099010 -0.023633
C148  C     C_R   0.885285 0.845008 0.099010 -0.023633
C149  C     C_R   0.114714 0.154992 0.900990 -0.023633
C150  C     C_R   0.614714 0.345008 0.900990 -0.023632
C151  C     C_R   0.385285 0.654992 0.099010 -0.023633
C152  C     C_R   0.385285 0.345008 0.099010 -0.023633
C153  C     C_R   0.203766 0.768575 0.671705 0.549173
C154  C     C_R   0.614715 0.654992 0.900990 -0.023633
C155  C     C_R   0.135574 0.825150 0.810602 -0.157652
C156  C     C_R   0.864426 0.174850 0.189398 -0.157652
C157  C     C_R   0.864426 0.825150 0.189398 -0.157653
C158  C     C_R   0.135574 0.174850 0.810602 -0.157653
C159  C     C_R   0.635574 0.325150 0.810602 -0.157652
C160  C     C_R   0.364426 0.674850 0.189398 -0.157652
C161  C     C_R   0.364426 0.325150 0.189398 -0.157653
C162  C     C_R   0.635574 0.674850 0.810602 -0.157653
C163  C     C_R   0.179101 0.778524 0.770789 -0.020861
C164  C     C_R   0.203766 0.231425 0.671705 0.549173
C165  C     C_R   0.820898 0.221476 0.229211 -0.020861
C166  C     C_R   0.820899 0.778524 0.229211 -0.020859
C167  C     C_R   0.179101 0.221476 0.770789 -0.020860
C168  C     C_R   0.679101 0.278524 0.770789 -0.020861
C169  C     C_R   0.320898 0.721476 0.229211 -0.020861
C170  C     C_R   0.320899 0.278524 0.229211 -0.020859
C171  C     C_R   0.679101 0.721476 0.770789 -0.020860
C172  C     C_R   0.202351 0.750131 0.824072 0.027140
C173  C     C_R   0.797648 0.249869 0.175928 0.027140
C174  C     C_R   0.797649 0.750131 0.175928 0.027143
C175  C     C_R   0.796234 0.768575 0.328295 0.549174
C176  C     C_R   0.202351 0.249869 0.824072 0.027143
C177  C     C_R   0.702351 0.250131 0.824072 0.027140
C178  C     C_R   0.297648 0.749869 0.175928 0.027140
C179  C     C_R   0.297649 0.250131 0.175928 0.027143
C180  C     C_R   0.702351 0.749869 0.824072 0.027143
C181  C     C_R   0.200606 0.631213 0.513285 0.551429
C182  C     C_R   0.799394 0.368787 0.486715 0.551429
C183  C     C_R   0.799394 0.631213 0.486715 0.551430
C184  C     C_R   0.200606 0.368787 0.513285 0.551429
C185  C     C_R   0.700606 0.131213 0.513285 0.551429
C186  C     C_R   0.396624 1.000000 0.510224 -0.000558
C187  C     C_R   0.299394 0.868787 0.486715 0.551429
C188  C     C_R   0.299394 0.131213 0.486715 0.551430
C189  C     C_R   0.700606 0.868787 0.513285 0.551429
C190  C     C_R   0.186365 0.776807 0.911355 0.014288
C191  C     C_R   0.813635 0.223192 0.088645 0.014288
C192  C     C_R   0.813635 0.776807 0.088645 0.014288
C193  C     C_R   0.186365 0.223192 0.911355 0.014288
C194  C     C_R   0.686365 0.276807 0.911355 0.014288
C195  C     C_R   0.313635 0.723193 0.088645 0.014288
C196  C     C_R   0.313635 0.276807 0.088645 0.014288
Cu1   Cu    Cu3+1 0.209920 0.785290 0.495070 0.962032
Cu2   Cu    Cu3+1 0.504760 0.500000 0.075850 0.979076
Cu3   Cu    Cu3+1 0.995240 0.000000 0.924150 0.979076
Cu4   Cu    Cu3+1 0.004760 0.000000 0.075850 0.979076
Cu5   Cu    Cu3+1 0.790080 0.214710 0.504930 0.962032
Cu6   Cu    Cu3+1 0.790080 0.785290 0.504930 0.962031
Cu7   Cu    Cu3+1 0.209920 0.214710 0.495070 0.962031
Cu8   Cu    Cu3+1 0.709920 0.285290 0.495070 0.962032
Cu9   Cu    Cu3+1 0.290080 0.714710 0.504930 0.962032
Cu10  Cu    Cu3+1 0.290080 0.285290 0.504930 0.962031
Cu11  Cu    Cu3+1 0.709920 0.714710 0.495070 0.962031
Cu12  Cu    Cu3+1 0.495240 0.500000 0.924150 0.979075
F1    F     F_    0.124593 0.823792 0.181989 -0.646602
F2    F     F_    0.875406 0.176208 0.818011 -0.646602
F3    F     F_    0.875406 0.823793 0.818011 -0.646606
F4    F     F_    0.124594 0.176207 0.181989 -0.646606
F5    F     F_    0.624594 0.323792 0.181989 -0.646602
F6    F     F_    0.375406 0.676208 0.818011 -0.646602
F7    F     F_    0.375406 0.323793 0.818011 -0.646605
F8    F     F_    0.624594 0.676207 0.181989 -0.646605
H1    H     H_    0.547193 0.756588 0.483502 0.136158
H2    H     H_    0.730842 1.000000 0.525590 0.158632
H3    H     H_    0.769158 0.500000 0.474410 0.158632
H4    H     H_    0.230842 0.500000 0.525590 0.158632
H5    H     H_    0.118617 0.848101 0.769797 0.162507
H6    H     H_    0.881382 0.151899 0.230203 0.162507
H7    H     H_    0.881382 0.848100 0.230203 0.162507
H8    H     H_    0.118617 0.151900 0.769797 0.162507
H9    H     H_    0.618617 0.348101 0.769797 0.162507
H10   H     H_    0.381382 0.651899 0.230203 0.162507
H11   H     H_    0.381383 0.348100 0.230203 0.162507
H12   H     H_    0.452807 0.243412 0.516498 0.136158
H13   H     H_    0.618617 0.651900 0.769797 0.162507
H14   H     H_    0.077140 0.842383 0.088747 0.180891
H15   H     H_    0.922860 0.157617 0.911253 0.180891
H16   H     H_    0.922859 0.842384 0.911253 0.180891
H17   H     H_    0.077140 0.157616 0.088747 0.180891
H18   H     H_    0.577140 0.342383 0.088747 0.180891
H19   H     H_    0.422860 0.657617 0.911253 0.180891
H20   H     H_    0.422859 0.342384 0.911253 0.180891
H21   H     H_    0.577140 0.657616 0.088747 0.180891
H22   H     H_    0.246101 0.660444 0.739558 0.145882
H23   H     H_    0.452813 0.756587 0.516475 0.136155
H24   H     H_    0.753899 0.339556 0.260441 0.145882
H25   H     H_    0.753899 0.660443 0.260442 0.145882
H26   H     H_    0.246101 0.339556 0.739558 0.145882
H27   H     H_    0.746101 0.160443 0.739558 0.145882
H28   H     H_    0.253899 0.839556 0.260441 0.145882
H29   H     H_    0.253899 0.160443 0.260442 0.145882
H30   H     H_    0.746101 0.839556 0.739558 0.145882
H31   H     H_    0.299851 0.637747 0.812483 0.188282
H32   H     H_    0.700149 0.362253 0.187517 0.188282
H33   H     H_    0.700150 0.637747 0.187517 0.188282
H34   H     H_    0.547187 0.243413 0.483525 0.136155
H35   H     H_    0.299850 0.362252 0.812483 0.188282
H36   H     H_    0.799850 0.137747 0.812483 0.188282
H37   H     H_    0.200149 0.862253 0.187517 0.188282
H38   H     H_    0.200150 0.137747 0.187517 0.188282
H39   H     H_    0.799850 0.862252 0.812483 0.188282
H40   H     H_    0.047193 0.256588 0.483502 0.136158
H41   H     H_    0.952807 0.743412 0.516498 0.136158
H42   H     H_    0.952813 0.256587 0.516474 0.136156
H43   H     H_    0.047187 0.743413 0.483525 0.136156
H44   H     H_    0.269158 0.000000 0.474410 0.158632
N1    N     N_1   0.669537 0.791260 0.333310 -0.248730
N2    N     N_1   0.330463 0.208740 0.666690 -0.248730
N3    N     N_1   0.330469 0.791254 0.666682 -0.248724
N4    N     N_1   0.669530 0.208746 0.333317 -0.248724
N5    N     N_1   0.169537 0.291260 0.333310 -0.248730
N6    N     N_1   0.830463 0.708740 0.666690 -0.248730
N7    N     N_1   0.830469 0.291254 0.666682 -0.248724
N8    N     N_1   0.169530 0.708746 0.333318 -0.248724
O1    O     O_R   0.255040 0.869590 0.478480 -0.517075
O2    O     O_R   0.817950 0.203450 0.375560 -0.510730
O3    O     O_R   0.817950 0.796550 0.375560 -0.510729
O4    O     O_R   0.182050 0.203450 0.624440 -0.510729
O5    O     O_R   0.682050 0.296550 0.624440 -0.510729
O6    O     O_R   0.317950 0.703450 0.375560 -0.510730
O7    O     O_R   0.317950 0.296550 0.375560 -0.510729
O8    O     O_R   0.682050 0.703450 0.624440 -0.510729
O9    O     O_R   0.250530 0.763330 0.367210 -0.500201
O10   O     O_R   0.749470 0.236670 0.632790 -0.500201
O11   O     O_R   0.749470 0.763330 0.632790 -0.500201
O12   O     O_R   0.744960 0.130410 0.521520 -0.517075
O13   O     O_R   0.250530 0.236670 0.367210 -0.500201
O14   O     O_R   0.750530 0.263330 0.367210 -0.500201
O15   O     O_R   0.249470 0.736670 0.632790 -0.500201
O16   O     O_R   0.249470 0.263330 0.632790 -0.500201
O17   O     O_R   0.750530 0.736670 0.367210 -0.500201
O18   O     O_R   0.177260 0.690030 0.513710 -0.505607
O19   O     O_R   0.822740 0.309970 0.486290 -0.505607
O20   O     O_R   0.822740 0.690030 0.486290 -0.505606
O21   O     O_R   0.177260 0.309970 0.513710 -0.505606
O22   O     O_R   0.677260 0.190030 0.513710 -0.505607
O23   O     O_R   0.744960 0.869590 0.521520 -0.517075
O24   O     O_R   0.322740 0.809970 0.486290 -0.505607
O25   O     O_R   0.322740 0.190030 0.486290 -0.505606
O26   O     O_R   0.677260 0.809970 0.513710 -0.505606
O27   O     O_R   0.051640 0.926880 0.885090 -0.508589
O28   O     O_R   0.948360 0.073120 0.114910 -0.508589
O29   O     O_R   0.948360 0.926880 0.114910 -0.508588
O30   O     O_R   0.051640 0.073120 0.885090 -0.508588
O31   O     O_R   0.551640 0.426880 0.885090 -0.508589
O32   O     O_R   0.448360 0.573120 0.114910 -0.508589
O33   O     O_R   0.448360 0.426880 0.114910 -0.508588
O34   O     O_R   0.255040 0.130410 0.478480 -0.517076
O35   O     O_R   0.551640 0.573120 0.885090 -0.508588
O36   O     O_R   0.940620 0.926560 0.986760 -0.518026
O37   O     O_R   0.059380 0.073440 0.013240 -0.518026
O38   O     O_R   0.059380 0.926560 0.013240 -0.518025
O39   O     O_R   0.940620 0.073440 0.986760 -0.518025
O40   O     O_R   0.440620 0.426560 0.986760 -0.518026
O41   O     O_R   0.559380 0.573440 0.013240 -0.518026
O42   O     O_R   0.559380 0.426560 0.013240 -0.518025
O43   O     O_R   0.440620 0.573440 0.986760 -0.518025
O44   O     O_R   0.755040 0.369590 0.478480 -0.517075
O45   O     O_R   0.244960 0.630410 0.521520 -0.517075
O46   O     O_R   0.244960 0.369590 0.521520 -0.517075
O47   O     O_R   0.755040 0.630410 0.478480 -0.517076
O48   O     O_R   0.182050 0.796550 0.624440 -0.510729

loop_
_geom_bond_atom_site_label_1
_geom_bond_atom_site_label_2
_ccdc_geom_bond_type
C101  C107  S    
C91   C188  S    
C153  O15   A    
Cu8   O22   S    
C27   H28   S    
C109  O10   A    
C9    C143  A    
C25   H26   S    
C124  C133  A    
C50   C59   A    
C52   C61   A    
C54   C63   A    
C58   C60   A    
Cu12  O43   S    
C61   C63   A    
C117  C132  A    
C62   C64   A    
C91   C96   A    
C116  C195  A    
C93   C181  S    
C50   C90   A    
C113  C122  A    
C61   H34   S    
C70   C74   A    
C5    H15   S    
C78   C186  A    
C4    C12   A    
C24   C85   A    
C88   C97   A    
C119  C128  A    
C143  C151  A    
Cu3   Cu4   S    
C49   C69   A    
Cu9   O15   S    
Cu10  O16   S    
C42   C147  S    
C158  C167  A    
C11   C20   A    
C166  C174  A    
C150  C159  A    
C137  C146  A    
C127  C136  A    
C31   C121  A    
C139  C192  A    
C86   C90   A    
C71   C73   A    
C172  C190  A    
Cu2   Cu12  S    
Cu9   O6    S    
C173  C191  A    
C62   H23   S    
C51   C66   A    
Cu6   O3    S    
C142  O2    A    
C1    O9    A    
C52   C72   A    
C3    C118  A    
Cu5   O10   S    
C54   C70   A    
Cu3   O30   S    
Cu5   O2    S    
C163  C172  A    
C181  O18   A    
C183  O20   A    
C42   O28   A    
Cu1   O1    S    
C79   C85   A    
C66   C77   A    
Cu2   O32   S    
C34   C124  A    
C12   C134  A    
C57   C78   A    
Cu2   O42   S    
C56   C59   A    
Cu11  O8    S    
C21   C172  A    
C8    C17   A    
C44   O35   A    
C42   O39   A    
C44   C154  S    
C47   O32   A    
C80   C88   A    
C92   C182  S    
C142  O14   A    
C112  C191  A    
C95   C183  S    
C19   F7    S    
C84   C93   A    
C48   C67   A    
C162  H13   S    
C86   C95   A    
C24   C77   A    
C99   H4    S    
C37   H38   S    
C97   H2    S    
C2    C81   A    
C104  N4    T    
Cu8   O44   S    
C17   C129  A    
C55   C71   A    
C2    C75   A    
C78   C87   A    
C48   C110  A    
C6    H16   S    
C123  C132  A    
C9    H19   S    
C29   H30   S    
C138  C191  A    
C67   C77   A    
C27   C178  A    
Cu4   O38   S    
C23   C174  A    
C64   H1    S    
C153  C163  S    
C45   O42   A    
Cu5   O12   S    
Cu6   O11   S    
C105  N5    T    
C41   O38   A    
C60   H40   S    
Cu3   O36   S    
C164  O16   A    
C69   C76   A    
C111  C119  A    
C175  O17   A    
C6    C139  A    
C108  N8    T    
C187  O24   A    
C18   C128  A    
C4    C137  A    
C46   C82   A    
C41   C146  S    
C29   C38   A    
C8    C141  A    
C176  C193  A    
C23   H25   S    
C149  C158  A    
Cu5   O19   S    
C152  C161  A    
Cu6   O20   S    
Cu1   O9    S    
Cu3   O27   S    
C55   C64   A    
Cu4   O28   S    
C18   F6    S    
C72   C75   A    
C141  C150  A    
C120  O8    A    
C139  C148  A    
C162  C171  A    
C26   H27   S    
C87   C187  S    
C15   C136  A    
C155  C163  A    
C32   H33   S    
C140  C193  A    
C39   O36   A    
C3    C180  A    
C109  C168  S    
Cu9   O45   S    
C102  N2    T    
C10   C144  A    
C1    O6    A    
C47   C151  S    
C145  C154  A    
C41   O27   A    
C88   C185  S    
C115  C194  A    
C3    C145  A    
Cu6   Cu11  S    
C31   H32   S    
C155  H5    S    
C118  C127  A    
C114  C123  A    
C35   C100  S    
C131  O13   A    
C22   C173  A    
C37   C126  A    
C117  C126  A    
C26   C177  A    
C19   C132  A    
C113  C192  A    
C181  O45   A    
C83   C101  A    
C44   O41   A    
C154  C162  A    
Cu12  O35   S    
C111  C134  A    
C144  C196  A    
C14   C133  A    
C10   H20   S    
C170  C179  A    
C116  C125  A    
Cu4   O29   S    
C112  C121  A    
C144  C152  A    
C28   C37   A    
C108  C110  S    
C148  C157  A    
C50   C65   A    
C51   C79   A    
C43   C152  S    
C137  C190  A    
C9    C18   A    
C100  N1    T    
C157  H7    S    
C51   C60   A    
C184  O21   A    
C174  C192  A    
C8    H18   S    
C125  C134  A    
C73   C74   A    
Cu1   Cu9   S    
Cu1   O18   S    
Cu1   O48   S    
C166  C175  S    
C65   C76   A    
C82   C186  A    
C20   F8    S    
C184  O46   A    
C49   C101  A    
C7    C140  A    
C168  C177  A    
C47   O43   A    
C45   C150  S    
C189  O23   A    
C146  C155  A    
C65   C67   A    
C39   C148  S    
C160  C169  A    
C93   C99   A    
C81   C89   A    
C38   H39   S    
C98   H3    S    
Cu7   O34   S    
C94   C184  S    
Cu7   Cu10  S    
C22   H24   S    
C179  C196  A    
C57   C103  S    
Cu2   O33   S    
C106  N6    T    
C30   H31   S    
C32   C122  A    
C90   C106  S    
C177  C194  A    
C53   C57   A    
C120  O11   A    
C118  C130  A    
C188  O34   A    
Cu7   O13   S    
C10   C19   A    
C96   H44   S    
C143  C195  A    
C46   C54   A    
C39   O29   A    
C147  C156  A    
C5    C14   A    
Cu10  O7    S    
C7    C16   A    
C58   H42   S    
C126  C135  A    
Cu6   O23   S    
C182  O44   A    
C43   O40   A    
C56   H43   S    
C45   O31   A    
C189  O26   A    
C158  H8    S    
C115  C124  A    
C120  C171  S    
C164  C167  S    
C185  O22   A    
C68   C104  S    
C121  C129  A    
Cu11  O17   S    
C63   H12   S    
Cu10  O46   S    
C27   C36   A    
C21   C30   A    
C13   C83   A    
Cu7   O21   S    
C23   C32   A    
C156  C165  A    
Cu8   O14   S    
C40   C149  S    
C28   C179  A    
C82   C91   A    
C187  O1    A    
C111  C190  A    
C89   C189  S    
C59   H41   S    
Cu12  O31   S    
C109  O5    A    
C74   C186  A    
C68   C80   A    
C7    H17   S    
C131  C170  S    
C114  C193  A    
Cu2   O41   S    
C36   C125  A    
C112  C133  A    
C38   C127  A    
C35   C81   A    
C95   C98   A    
C92   C98   A    
C5    C138  A    
C83   C92   A    
C43   O33   A    
Cu11  O47   S    
Cu12  O40   S    
C156  H6    S    
C153  O48   A    
C66   C69   A    
C30   C119  A    
C165  C173  A    
C159  C168  A    
C79   C105  S    
Cu3   O39   S    
C33   H35   S    
Cu10  O25   S    
C15   F3    S    
C6    C15   A    
C26   C34   A    
C160  H10   S    
C113  C136  A    
C13   C86   A    
C114  C135  A    
C183  O47   A    
C188  O25   A    
C52   C68   A    
C28   H29   S    
C21   H22   S    
C182  O19   A    
Cu4   O37   S    
C17   F5    S    
C22   C31   A    
C14   F2    S    
C35   C55   A    
C16   F4    S    
C11   C145  A    
C29   C180  A    
C84   C110  A    
C49   C58   A    
C89   C97   A    
C4    H14   S    
C131  O7    A    
C85   C94   A    
C13   C76   A    
C138  C147  A    
C87   C96   A    
C161  C170  A    
Cu8   O5    S    
C107  N7    T    
Cu5   Cu8   S    
C171  C180  A    
C40   O37   A    
C185  O12   A    
C175  O3    A    
C169  C178  A    
C115  C129  A    
C48   C56   A    
C53   C73   A    
C20   C130  A    
C157  C166  A    
C34   H36   S    
C11   H21   S    
C178  C195  A    
C36   H37   S    
C151  C160  A    
Cu9   O24   S    
C40   O30   A    
C24   C84   A    
C117  C196  A    
C142  C165  S    
C71   C75   A    
C25   C176  A    
C94   C99   A    
C140  C149  A    
C1    C169  S    
C141  C194  A    
C159  H9    S    
Cu11  O26   S    
C164  O4    A    
C2    C80   A    
Cu7   O4    S    
C12   F1    S    
C53   C62   A    
C116  C128  A    
C25   C33   A    
C33   C123  A    
C103  N3    T    
C70   C72   A    
C161  H11   S    
C16   C135  A    
C122  C130  A    
C167  C176  A    
C46   C102  S    
