data_mof_unit_12860.cif
_audit_creation_date              2012-12-11T16:28:23-0500
_audit_creation_method            fapswitch 2.2
_symmetry_space_group_name_H-M    P1
_symmetry_Int_Tables_number       1
_space_group_crystal_system       triclinic
_cell_length_a                    16.499426
_cell_length_b                    7.244957
_cell_length_c                    15.340461
_cell_angle_alpha                 90.000039
_cell_angle_beta                  94.567958
_cell_angle_gamma                 90.0
_cell_volume                      1827.9375676

loop_
_atom_site_label
_atom_site_type_symbol
_atom_type_description
_atom_site_fract_x
_atom_site_fract_y
_atom_site_fract_z
_atom_type_partial_charge
O1    O     O_R   0.663460 0.361760 0.165970 -0.500064
O2    O     O_R   0.336540 0.638240 0.834030 -0.551153
O3    O     O_R   0.836540 0.861760 0.334030 -0.500065
O4    O     O_R   0.163460 0.138240 0.665970 -0.551153
O5    O     O_R   0.827100 0.689870 0.163730 -0.487310
O6    O     O_R   0.172900 0.310130 0.836270 -0.540888
O7    O     O_R   0.672900 0.189870 0.336270 -0.487310
O8    O     O_R   0.327100 0.810130 0.663730 -0.540888
H1    H     H_    0.210626 0.073414 0.512270 0.100195
H2    H     H_    0.788456 0.071559 0.492221 0.105192
H3    H     H_    0.289374 0.573414 0.987730 0.100195
H4    H     H_    0.711544 0.571559 0.007779 0.105191
C1    C     C_R   0.852870 0.522715 0.143066 0.750053
C2    C     C_R   0.147062 0.477069 0.856859 0.740544
C3    C     C_R   0.647130 0.022715 0.356934 0.750053
C4    C     C_R   0.352938 0.977069 0.643141 0.740544
O9    O     O_R   0.663490 0.691370 0.155500 -0.557010
O10   O     O_R   0.336510 0.308630 0.844500 -0.506516
O11   O     O_R   0.836510 0.191370 0.344500 -0.557010
O12   O     O_R   0.163490 0.808630 0.655500 -0.506516
O13   O     O_R   0.671770 0.863320 0.325740 -0.537418
O14   O     O_R   0.328230 0.136680 0.674260 -0.481922
O15   O     O_R   0.828230 0.363320 0.174260 -0.537419
O16   O     O_R   0.171770 0.636680 0.825740 -0.481921
C5    C     C_R   0.633126 0.523253 0.137293 0.762340
C6    C     C_R   0.366962 0.476963 0.862702 0.773617
C7    C     C_R   0.866874 0.023253 0.362706 0.762340
C8    C     C_R   0.133038 0.976962 0.637298 0.773618
O17   O     O_3   0.752910 0.528800 0.305860 -0.367204
O18   O     O_3   0.247090 0.471200 0.694140 -0.366262
O19   O     O_3   0.747090 0.028800 0.194140 -0.367204
O20   O     O_3   0.252910 0.971200 0.805860 -0.366262
V1    V     V_3+5 0.749460 0.803010 0.239640 1.636454
V2    V     V_3+5 0.250540 0.196990 0.760360 1.641020
V3    V     V_3+5 0.750540 0.303010 0.260360 1.636454
V4    V     V_3+5 0.249460 0.696990 0.739640 1.641019
C9    C     C_1   0.468545 0.994343 0.529761 0.078360
C10   C     C_1   0.531185 0.004736 0.469892 0.070103
C11   C     C_1   0.031455 0.494343 0.970239 0.078359
C12   C     C_1   0.968815 0.504736 0.030108 0.070104
C13   C     C_R   0.042011 0.040169 0.324235 0.327044
C14   C     C_R   0.956710 0.995167 0.677649 0.327845
C15   C     C_R   0.457989 0.540169 0.175765 0.327046
C16   C     C_R   0.543290 0.495167 0.822351 0.327846
C17   C     C_R   0.115997 0.128816 0.310287 0.105279
C18   C     C_R   0.882204 0.077445 0.695930 0.115812
C19   C     C_R   0.384003 0.628816 0.189713 0.105278
C20   C     C_R   0.617796 0.577445 0.804070 0.115811
C21   C     C_R   0.177179 0.137865 0.379335 0.102244
C22   C     C_R   0.820764 0.098479 0.627696 0.104370
C23   C     C_R   0.322821 0.637864 0.120665 0.102244
C24   C     C_R   0.679236 0.598479 0.872304 0.104370
C25   C     C_R   0.161148 0.071561 0.461686 -0.192626
C26   C     C_R   0.837985 0.058048 0.542400 -0.204650
C27   C     C_R   0.338852 0.571561 0.038313 -0.192626
C28   C     C_R   0.662015 0.558048 0.957600 -0.204650
C29   C     C_R   0.081380 0.023586 0.480878 -0.014647
C30   C     C_R   0.917997 0.019978 0.520992 -0.010338
C31   C     C_R   0.418620 0.523586 0.019122 -0.014647
C32   C     C_R   0.582003 0.519978 0.979008 -0.010339
C33   C     C_R   0.018739 0.019867 0.411418 -0.073448
C34   C     C_R   0.980444 0.995280 0.589837 -0.075441
C35   C     C_R   0.481261 0.519867 0.088582 -0.073446
C36   C     C_R   0.519555 0.495280 0.910163 -0.075440
C37   C     C_R   0.063563 0.988389 0.568588 -0.103998
C38   C     C_R   0.935798 0.012709 0.431964 -0.100831
C39   C     C_R   0.436436 0.488389 0.931412 -0.103998
C40   C     C_R   0.564202 0.512709 0.068036 -0.100830
C41   C     C_1   0.415600 0.985981 0.580969 -0.078669
C42   C     C_1   0.584259 0.013354 0.418851 -0.082156
C43   C     C_1   0.084400 0.485981 0.919030 -0.078669
C44   C     C_1   0.915741 0.513354 0.081149 -0.082154
C45   C     C_3   0.129545 0.214201 0.222652 -0.649012
H5    H     H_    0.146614 0.361324 0.231865 0.178363
H6    H     H_    0.178777 0.140783 0.191774 0.211167
H7    H     H_    0.073698 0.212424 0.177301 0.248998
C46   C     C_3   0.869266 0.145582 0.786968 -0.657604
H8    H     H_    0.849002 0.291730 0.783758 0.186228
H9    H     H_    0.822684 0.060387 0.816309 0.213003
H10   H     H_    0.926188 0.143236 0.830655 0.251869
C47   C     C_3   0.370455 0.714201 0.277348 -0.649014
H11   H     H_    0.353386 0.861323 0.268136 0.178362
H12   H     H_    0.321223 0.640783 0.308226 0.211167
H13   H     H_    0.426302 0.712424 0.322699 0.248998
C48   C     C_3   0.630734 0.645582 0.713032 -0.657604
H14   H     H_    0.650998 0.791730 0.716242 0.186228
H15   H     H_    0.677316 0.560388 0.683691 0.213003
H16   H     H_    0.573812 0.643236 0.669345 0.251869
C49   C     C_3   0.735598 0.161158 0.641917 -0.678781
H17   H     H_    0.725309 0.185900 0.711391 0.227448
H18   H     H_    0.722290 0.290920 0.605067 0.215565
H19   H     H_    0.691495 0.054259 0.616784 0.210742
C50   C     C_3   0.260030 0.215654 0.366018 -0.656407
H20   H     H_    0.287512 0.139640 0.312983 0.215446
H21   H     H_    0.254360 0.363575 0.348137 0.207936
H22   H     H_    0.302128 0.205008 0.426032 0.214289
C51   C     C_3   0.764401 0.661158 0.858083 -0.678781
H23   H     H_    0.774691 0.685900 0.788609 0.227448
H24   H     H_    0.777710 0.790920 0.894934 0.215565
H25   H     H_    0.808505 0.554259 0.883216 0.210742
C52   C     C_3   0.239970 0.715654 0.133982 -0.656406
H26   H     H_    0.212488 0.639640 0.187017 0.215446
H27   H     H_    0.245640 0.863575 0.151863 0.207936
H28   H     H_    0.197872 0.705008 0.073968 0.214289
S1    S     S_3+6 0.999198 0.897147 0.238721 -0.038342
O21   O     O_2   0.928889 0.994462 0.190420 -0.330612
O22   O     O_2   0.060834 0.852263 0.174812 -0.355876
O23   O     O_3   0.968718 0.697772 0.281733 -0.512823
H29   H     H_    0.019329 0.637514 0.306471 0.317835
S2    S     S_3+6 0.001655 0.842089 0.757787 -0.043583
O24   O     O_2   0.071999 0.936141 0.807629 -0.331381
O25   O     O_2   0.941623 0.785835 0.821552 -0.360506
O26   O     O_3   0.032277 0.649857 0.708493 -0.511050
H30   H     H_    0.981737 0.592978 0.681525 0.319165
S3    S     S_3+6 0.500802 0.397147 0.261279 -0.038342
O27   O     O_2   0.571111 0.494462 0.309580 -0.330612
O28   O     O_2   0.439166 0.352264 0.325188 -0.355877
O29   O     O_3   0.531282 0.197772 0.218267 -0.512824
H31   H     H_    0.480670 0.137510 0.193533 0.317836
S4    S     S_3+6 0.498345 0.342089 0.742213 -0.043583
O30   O     O_2   0.428001 0.436141 0.692371 -0.331381
O31   O     O_2   0.558377 0.285836 0.678448 -0.360506
O32   O     O_3   0.467723 0.149857 0.791507 -0.511050
H32   H     H_    0.518264 0.092978 0.818474 0.319165

loop_
_geom_bond_atom_site_label_1
_geom_bond_atom_site_label_2
_ccdc_geom_bond_type
C30   C34   A    
C16   C20   A    
C10   C42   T    
C52   H26   S    
C27   C31   A    
C2    C43   S    
O10   C6    A    
C13   C33   A    
C47   H13   S    
C51   H23   S    
C15   C35   A    
O32   H32   S    
C48   H14   S    
C16   C36   A    
S1    O22   D    
C50   H20   S    
C13   S1    S    
C6    C39   S    
C9    C41   T    
O8    V4    S    
C48   H16   S    
O13   V1    S    
O3    V1    S    
S3    O27   D    
C24   C51   S    
O23   H29   S    
C1    O15   A    
C17   C45   S    
C45   H5    S    
C2    O16   A    
O29   H31   S    
C15   S3    S    
S2    O24   D    
C33   C38   A    
C30   C38   A    
S3    O28   D    
O5    V1    S    
O19   V1    S    
C49   H18   S    
O11   C7    A    
C14   C34   A    
O5    C1    A    
S4    O32   S    
C31   C39   A    
O7    C3    A    
O8    C4    A    
C11   C43   T    
O1    C5    A    
C45   H6    S    
C5    C40   S    
O9    V1    S    
C47   H12   S    
S4    O31   D    
C47   H11   S    
C46   H9    S    
O14   V2    S    
S1    O23   S    
O4    V2    S    
C48   H15   S    
C36   C39   A    
C51   H24   S    
C11   C12   S    
C25   C29   A    
C19   C23   A    
O12   C8    A    
C46   H8    S    
O6    V2    S    
O20   V2    S    
C9    C10   S    
O6    C2    A    
C22   C49   S    
C17   C21   A    
S3    O29   S    
O2    C6    A    
C22   C26   A    
C49   H19   S    
O10   V2    S    
S2    O26   S    
H4    C28   S    
C50   H22   S    
O15   V3    S    
C14   C18   A    
C45   H7    S    
H1    C25   S    
C51   H25   S    
H3    C27   S    
S4    O30   D    
O1    V3    S    
O26   H30   S    
C26   C30   A    
C46   H10   S    
O2    V4    S    
C3    C42   S    
O17   V3    S    
C35   C40   A    
C4    O14   A    
C12   C44   T    
C34   C37   A    
O7    V3    S    
C4    C41   S    
C29   C37   A    
C18   C46   S    
C29   C33   A    
C1    C44   S    
C23   C52   S    
S1    O21   D    
C18   C22   A    
C31   C35   A    
O16   V4    S    
C52   H27   S    
O18   V4    S    
C32   C36   A    
O9    C5    A    
O3    C7    A    
C8    C37   S    
C14   S2    S    
C7    C38   S    
C13   C17   A    
C3    O13   A    
C21   C25   A    
C23   C27   A    
C19   C47   S    
H2    C26   S    
S2    O25   D    
O12   V4    S    
C28   C32   A    
C20   C24   A    
C32   C40   A    
C50   H21   S    
O4    C8    A    
C16   S4    S    
C20   C48   S    
O11   V3    S    
C52   H28   S    
C21   C50   S    
C49   H17   S    
C15   C19   A    
C24   C28   A    
