data_mof_unit_30499.cif
_audit_creation_date              2012-12-11T20:41:39-0500
_audit_creation_method            fapswitch 2.2
_symmetry_space_group_name_H-M    P1
_symmetry_Int_Tables_number       1
_space_group_crystal_system       triclinic
_cell_length_a                    8.231468
_cell_length_b                    18.850727
_cell_length_c                    27.017437
_cell_angle_alpha                 97.017126
_cell_angle_beta                  92.422015
_cell_angle_gamma                 86.299028
_cell_volume                      4149.6926623

loop_
_atom_site_label
_atom_site_type_symbol
_atom_type_description
_atom_site_fract_x
_atom_site_fract_y
_atom_site_fract_z
_atom_type_partial_charge
Ba1   Ba    Ba6+2 0.852670 0.466460 0.522850 1.687845
Ba2   Ba    Ba6+2 0.337150 0.533490 0.477140 1.660456
C1    C     C_3   0.589534 0.219047 0.660179 -0.358704
C2    C     C_R   0.919235 0.571797 0.178959 0.571338
C3    C     C_2   0.765155 0.548565 0.273358 -0.071462
C4    C     C_3   0.134865 0.277655 0.655226 0.308784
C5    C     C_3   0.748103 0.573030 0.328196 -0.044582
C6    C     C_1   0.984609 0.491925 0.343517 0.032849
C7    C     C_2   0.025346 0.487954 0.295727 -0.115777
C8    C     C_2   0.907519 0.515632 0.257009 0.184651
C9    C     C_R   0.024412 0.506350 0.102121 -0.078824
C10   C     C_R   0.053884 0.445621 0.127619 -0.036224
C11   C     C_R   0.121596 0.382631 0.101459 -0.059567
C12   C     C_3   0.589791 0.290811 0.639889 0.389323
C13   C     C_R   0.956477 0.569649 0.128221 -0.031156
C14   C     C_2   0.855511 0.530361 0.361547 -0.297326
C15   C     C_2   0.351215 0.482401 0.641304 -0.278368
C16   C     C_3   0.060829 0.269668 0.704699 -0.331381
C17   C     C_R   0.169650 0.437427 0.972975 0.019684
C18   C     C_R   0.068044 0.563644 0.974115 0.020486
C19   C     C_R   0.137773 0.499503 0.948087 0.050094
C20   C     C_R   0.239205 0.375128 0.945082 -0.098350
C21   C     C_R   0.276052 0.373882 0.895036 -0.061988
C22   C     C_R   0.245762 0.434600 0.870132 -0.033235
C23   C     C_3   0.519931 0.645775 0.630021 0.301714
C24   C     C_R   0.176211 0.497528 0.896570 -0.078113
C25   C     C_R   0.145376 0.558603 0.871495 -0.033683
C26   C     C_R   0.185658 0.556364 0.820887 0.586598
C27   C     C_R   0.283749 0.433640 0.819306 0.587693
C28   C     C_3   0.212562 0.309902 0.400532 0.730799
C29   C     C_2   0.453512 0.478608 0.729197 -0.081125
C30   C     C_3   0.499208 0.486678 0.676339 -0.066531
C31   C     C_1   0.211966 0.513283 0.657246 0.044267
C32   C     C_2   0.171360 0.513554 0.704436 -0.086369
C33   C     C_2   0.297354 0.493757 0.743277 0.213358
C34   C     C_3   0.508957 0.672307 0.685336 -0.371786
C35   C     C_R   0.131368 0.439602 0.024497 0.019444
C36   C     C_R   0.062426 0.503910 0.050519 0.050519
C37   C     C_R   0.030883 0.565930 0.025561 0.020168
C38   C     C_R   0.159523 0.379576 0.051313 -0.098376
C39   C     C_R   0.926950 0.630251 0.103224 -0.053505
C40   C     C_3   0.306706 0.253098 0.365625 -0.330271
C41   C     C_R   0.037770 0.623648 0.947440 -0.099229
C42   C     C_R   0.075718 0.621071 0.897547 -0.060867
C43   C     C_R   0.963038 0.628593 0.053315 -0.101992
C44   C     C_2   0.405278 0.300161 0.520402 -0.222778
C45   C     C_3   0.073739 0.687504 0.342449 0.313803
C46   C     C_3   0.322808 0.252235 0.551402 -0.071503
C47   C     C_2   0.356389 0.173502 0.534811 -0.132421
C48   C     C_2   0.483771 0.150835 0.505489 -0.064177
C49   C     C_2   0.575664 0.205628 0.484291 -0.139569
C50   C     C_1   0.526736 0.274498 0.491424 0.022884
C51   C     C_R   0.642264 0.932124 0.487425 0.460626
C52   C     C_3   0.011348 0.682751 0.583095 0.303858
C53   C     C_R   0.537056 0.073247 0.497083 0.463639
C54   C     C_R   0.610647 0.807086 0.506688 -0.124471
C55   C     C_R   0.662984 0.734823 0.504443 0.041083
C56   C     C_3   0.089537 0.708799 0.290251 0.233950
C57   C     C_R   0.898123 0.756298 0.459396 0.015744
C58   C     C_R   0.847153 0.829234 0.461133 -0.138940
C59   C     C_R   0.700042 0.855180 0.484133 -0.069266
C60   C     C_R   0.801297 0.709306 0.478783 -0.282135
C61   C     C_3   0.993823 0.763542 0.596693 -0.376105
C62   C     C_3   0.668848 0.381765 0.373447 0.292671
C63   C     C_3   0.684076 0.363360 0.317361 -0.359238
C64   C     C_3   0.533353 0.725495 0.364985 0.349652
C65   C     C_3   0.497974 0.797303 0.345274 -0.340584
C66   C     C_R   0.014214 0.448934 0.178643 0.598584
H1    H     H_    0.655439 0.282181 0.604295 0.065660
H2    H     H_    0.786268 0.399942 0.389875 0.031053
H3    H     H_    0.573143 0.425530 0.380457 0.073217
H4    H     H_    0.527721 0.179969 0.632818 0.066055
H5    H     H_    0.784682 0.321911 0.309359 0.149255
H6    H     H_    0.709897 0.411634 0.300211 0.067761
H7    H     H_    0.568553 0.343032 0.300261 0.118187
H8    H     H_    0.462284 0.311249 0.633513 -0.101830
H9    H     H_    0.524385 0.225315 0.695769 0.129113
H10   H     H_    0.395979 0.632917 0.615324 0.027837
H11   H     H_    0.603159 0.596818 0.625426 0.034886
H12   H     H_    0.370130 0.279036 0.337876 0.102620
H13   H     H_    0.432222 0.723154 0.690483 0.140420
H14   H     H_    0.452954 0.632285 0.705045 0.076047
H15   H     H_    0.632608 0.681617 0.701957 0.125632
H16   H     H_    0.716618 0.198008 0.666962 0.133215
H17   H     H_    0.154071 0.278497 0.735372 0.114590
H18   H     H_    0.143246 0.635339 0.344589 0.041787
H19   H     H_    0.943173 0.681592 0.348621 -0.027051
H20   H     H_    0.080913 0.660425 0.262850 0.090158
H21   H     H_    0.210538 0.729938 0.286041 0.081107
H22   H     H_    0.667788 0.714739 0.365667 -0.045279
H23   H     H_    0.398056 0.222145 0.387107 0.052728
H24   H     H_    0.489722 0.729724 0.403655 0.075376
H25   H     H_    0.565399 0.839048 0.368734 0.078247
H26   H     H_    0.365920 0.813064 0.346402 0.140149
H27   H     H_    0.170415 0.333931 0.656537 0.015495
H28   H     H_    0.537748 0.793990 0.306244 0.144536
H29   H     H_    0.145030 0.465724 0.284638 0.130946
H30   H     H_    0.145957 0.334853 0.119794 0.122765
H31   H     H_    0.548692 0.467093 0.756638 0.097057
H32   H     H_    0.329292 0.324590 0.875802 0.119591
H33   H     H_    0.267516 0.325809 0.960736 0.069348
H34   H     H_    0.221460 0.215474 0.345267 0.127315
H35   H     H_    0.210950 0.328741 0.034714 0.069991
H36   H     H_    0.672723 0.567132 0.247297 0.119498
H37   H     H_    0.875102 0.679951 0.122304 0.134935
H38   H     H_    0.984283 0.674174 0.963796 0.070651
H39   H     H_    0.243911 0.239926 0.650961 -0.017031
H40   H     H_    0.049941 0.668885 0.879331 0.123575
H41   H     H_    0.047986 0.529603 0.715491 0.119377
H42   H     H_    0.935940 0.678106 0.037858 0.071714
H43   H     H_    0.843981 0.544076 0.401485 0.081738
H44   H     H_    0.358268 0.453495 0.604079 0.066484
H45   H     H_    0.891521 0.662676 0.570937 0.005763
H46   H     H_    0.288748 0.135761 0.551772 0.099356
H47   H     H_    0.681166 0.188493 0.462067 0.120923
H48   H     H_    0.502722 0.825703 0.527156 0.110521
H49   H     H_    0.922952 0.865268 0.445655 0.105929
H50   H     H_    0.379195 0.357461 0.528339 0.073235
H51   H     H_    0.957533 0.309805 0.712020 0.165632
H52   H     H_    0.841158 0.653335 0.477773 0.057309
H53   H     H_    0.017238 0.215014 0.704050 0.110905
H54   H     H_    0.300068 0.343727 0.423295 -0.058930
H55   H     H_    0.993026 0.805662 0.298702 0.312757
H56   H     H_    0.096682 0.670561 0.552138 0.074417
H57   H     H_    0.193384 0.242555 0.448527 0.259739
H58   H     H_    0.903180 0.777306 0.626182 0.136751
H59   H     H_    0.952743 0.790117 0.563612 0.065100
H60   H     H_    0.113054 0.783926 0.610576 0.127491
N1    N     N_R   0.947791 0.511804 0.204155 -0.425416
N2    N     N_R   0.254268 0.494326 0.795232 -0.425034
N3    N     N_R   0.500896 0.954945 0.510096 -0.242752
N4    N     N_R   0.449658 0.023787 0.514885 -0.243182
N5    N     N_R   0.677802 0.050504 0.473839 -0.235506
N6    N     N_R   0.729294 0.981402 0.469064 -0.238476
O1    O     O_2   0.914730 0.537460 0.618690 -0.462867
O2    O     O_2   0.234991 0.753472 0.471293 -0.480369
O3    O     O_3   0.137668 0.740163 0.377757 -0.616254
O4    O     O_3   0.146720 0.537410 0.558510 -0.490719
O5    O     O_3   0.553920 0.415280 0.473710 -0.500569
O6    O     O_2   0.383540 0.672140 0.526840 -0.461080
O7    O     O_3   0.580662 0.699687 0.605835 -0.639879
O8    O     O_2   0.419353 0.533008 0.323067 -0.502240
O9    O     O_3   0.452628 0.671829 0.334305 -0.600198
O10   O     O_2   0.036636 0.395414 0.199958 -0.596398
O11   O     O_2   0.342134 0.378596 0.796432 -0.604605
O12   O     O_3   0.628127 0.320639 0.393679 -0.637083
O13   O     O_2   0.861919 0.627823 0.200767 -0.577396
O14   O     O_2   0.161692 0.610141 0.799866 -0.598471
O15   O     O_3   0.666360 0.409390 0.586570 -0.487447
O16   O     O_2   0.835073 0.447556 0.670584 -0.479303
O17   O     O_3   0.069906 0.651713 0.625266 -0.629417
O18   O     O_3   0.668343 0.339022 0.674895 -0.586901
O19   O     O_2   0.806150 0.327840 0.473120 -0.388891
O20   O     O_3   0.073640 0.373350 0.561550 -0.458944
O21   O     O_2   0.990310 0.245366 0.518954 -0.430930
O22   O     O_3   0.964640 0.759426 0.279654 -0.690195
O23   O     O_3   0.021401 0.260409 0.615978 -0.582379
O24   O     O_3   0.118996 0.276551 0.431954 -0.683349
O25   O     O_2   0.274960 0.462520 0.381280 -0.486198
O26   O     O_3   0.042980 0.462530 0.441480 -0.472070
O27   O     O_3   0.523340 0.590550 0.413420 -0.476595
O28   O     O_3   0.106321 0.348878 0.370678 -0.622408
O29   O     O_3   0.635780 0.584660 0.526290 -0.477361
O30   O     O_3   0.116060 0.626590 0.438450 -0.492206
P1    P     P_3+3 0.084800 0.558370 0.611580 0.998018
P2    P     P_3+3 0.628800 0.338360 0.458800 1.008999
P3    P     P_3+3 0.102451 0.280737 0.560917 1.004149
P4    P     P_3+3 0.104900 0.441570 0.388420 1.010260
P5    P     P_3+3 0.097722 0.719776 0.437215 0.950460
P6    P     P_3+3 0.666268 0.421965 0.652011 0.985216
P7    P     P_3+3 0.569014 0.674480 0.541351 0.950050
P8    P     P_3+3 0.534686 0.588869 0.349018 0.943530

loop_
_geom_bond_atom_site_label_1
_geom_bond_atom_site_label_2
_ccdc_geom_bond_type
C19   C24   A    
C40   H12   S    
O19   P2    D    
C9    C36   A    
O23   P3    S    
C55   C60   A    
C64   H22   S    
C29   C30   S    
C54   C55   A    
C10   C11   A    
C10   C66   A    
C24   C25   A    
C20   H33   S    
C39   H37   S    
O4    P1    S    
Ba2   O5    S    
C17   C19   A    
C22   C24   A    
O9    P8    S    
Ba1   Ba2   S    
C35   C38   A    
C27   O11   D    
C36   C37   A    
C52   C61   S    
C34   H15   S    
C52   H45   S    
C44   C50   D    
O7    P7    S    
C63   H5    S    
O25   P4    D    
C44   H50   S    
C32   C33   S    
C62   H3    S    
C11   H30   S    
C22   C27   A    
C11   C38   A    
C52   H56   S    
C6    P4    S    
C50   P2    S    
O27   P8    S    
C9    C13   A    
C25   C42   A    
C28   H54   S    
C34   H14   S    
Ba2   O25   S    
C65   H26   S    
C4    H39   S    
Ba1   O15   S    
O16   P6    D    
C51   N3    A    
C29   H31   S    
C17   C35   A    
C7    C8    S    
O3    P5    S    
C61   H60   S    
Ba1   O5    S    
C37   C43   A    
C21   H32   S    
O12   P2    S    
C3    H36   S    
C57   C58   A    
C6    C14   D    
C23   H11   S    
C5    P8    S    
O30   P5    S    
C66   N1    Am   
C15   C31   D    
C40   H34   S    
Ba2   O27   S    
C31   C32   D    
H55   O22   S    
C42   H40   S    
O1    P1    D    
C4    C16   S    
C44   C46   S    
C26   O14   D    
C16   H17   S    
C31   P1    S    
O15   P6    S    
Ba2   O4    S    
C45   H18   S    
C17   C20   A    
C64   C65   S    
C13   C39   A    
O21   P3    D    
C3    C5    S    
C18   C37   A    
Ba2   O30   S    
H57   O24   S    
C6    C7    D    
C64   H24   S    
C64   O9    S    
C23   C34   S    
C53   N5    A    
C2    O13   D    
C49   H47   S    
C63   H6    S    
C23   H10   S    
C58   C59   A    
C41   H38   S    
C12   H8    S    
O5    P2    S    
C41   C42   A    
C35   C36   A    
O18   P6    S    
C38   H35   S    
C27   N2    Am   
C53   N4    A    
Ba1   P1    S    
C34   H13   S    
C21   C22   A    
C45   O3    S    
C48   C49   S    
C54   H48   S    
C58   H49   S    
C54   C59   A    
C18   C19   A    
Ba1   O19   S    
C33   N2    S    
C52   O17   S    
C1    C12   S    
C56   O22   S    
O28   P4    S    
C46   C47   S    
C47   C48   D    
O6    P7    D    
C62   H2    S    
N5    N6    A    
C15   C30   S    
C12   H1    S    
C29   C33   D    
O20   P3    S    
C28   O28   S    
C51   C59   S    
N3    N4    A    
C1    H9    S    
C15   H44   S    
Ba2   P4    S    
C25   C26   A    
C4    O23   S    
O29   P7    S    
O8    P8    D    
C28   O24   S    
C30   P6    S    
C5    C14   S    
C57   C60   A    
C7    H29   S    
C62   O12   S    
C43   H42   S    
C60   H52   S    
Ba1   O26   S    
C23   O7    S    
C51   N6    A    
C56   H20   S    
Ba2   O29   S    
C9    C10   A    
C2    N1    Am   
C48   C53   S    
C63   H7    S    
Ba2   O6    S    
C62   C63   S    
C2    C13   A    
C1    H4    S    
C8    N1    S    
C49   C50   D    
O17   P1    S    
C45   C56   S    
C47   H46   S    
C65   H28   S    
C46   P3    S    
Ba1   P2    S    
C57   P5    S    
C66   O10   D    
C26   N2    Am   
O26   P4    S    
Ba1   O20   S    
C56   H21   S    
C18   C41   A    
C61   H58   S    
C16   H53   S    
C3    C8    D    
O2    P5    D    
Ba1   O29   S    
Ba2   O26   S    
C4    H27   S    
C12   O18   S    
C1    H16   S    
C65   H25   S    
C32   H41   S    
C39   C43   A    
C20   C21   A    
C28   C40   S    
Ba1   O1    S    
C16   H51   S    
C61   H59   S    
Ba1   O4    S    
C40   H23   S    
C14   H43   S    
C45   H19   S    
C55   P7    S    
