data_mof_unit_15669.cif
_audit_creation_date              2013-03-05T15:40:46-0500
_audit_creation_method            fapswitch 2.2
_symmetry_space_group_name_H-M    P1
_symmetry_Int_Tables_number       1
_space_group_crystal_system       triclinic
_cell_length_a                    6.927508
_cell_length_b                    17.308128
_cell_length_c                    24.116954
_cell_angle_alpha                 104.692997
_cell_angle_beta                  90.390401
_cell_angle_gamma                 90.221772
_cell_volume                      2797.00255897

loop_
_atom_site_label
_atom_site_type_symbol
_atom_site_description
_atom_site_fract_x
_atom_site_fract_y
_atom_site_fract_z
_atom_type_partial_charge
O1    O     O_R   0.494290 0.391990 0.999150 -0.496853
O2    O     O_R   0.827170 0.534410 0.082350 -0.563556
O3    O     O_R   0.994360 0.608010 0.000850 -0.575317
C1    C     C_R   0.658656 0.547931 0.106203 0.871343
O4    O     O_R   0.824210 0.388010 0.004470 -0.519706
O5    O     O_R   0.991370 0.460560 0.922410 -0.542390
C2    C     C_R   0.653631 0.354374 0.999795 0.995950
O6    O     O_R   0.497270 0.539440 0.077590 -0.524249
O7    O     O_3   0.659770 0.523970 0.973170 -0.302771
V1    V     V_3+5 0.935840 0.495550 0.004980 1.256677
O8    O     O_R   0.320910 0.465590 0.917650 -0.538650
C3    C     C_R   0.151277 0.448085 0.894104 0.925612
O9    O     O_R   0.323870 0.611990 0.995530 -0.583707
C4    C     C_R   0.154550 0.645160 0.998531 0.829922
V2    V     V_3+5 0.435470 0.504450 0.995020 1.257859
O10   O     O_3   0.161670 0.476030 0.026830 -0.214243
C5    C     C_2   0.142820 0.730351 0.998125 -0.248344
H1    H     H_    0.277202 0.761361 0.994770 0.100008
C6    C     C_2   0.972733 0.769692 0.002031 -0.252566
H2    H     H_    0.838353 0.738683 0.005391 0.098277
C7    C     C_R   0.088946 0.244666 0.625610 0.594542
N1    N     N_R   0.102512 0.325762 0.648276 -0.446077
C8    C     C_R   0.095145 0.377214 0.613385 0.554067
C9    C     C_R   0.073037 0.347692 0.553576 -0.012513
C10   C     C_R   0.056199 0.264601 0.529917 -0.041880
C11   C     C_R   0.062906 0.212709 0.566214 -0.095965
C12   C     C_R   0.064618 0.399304 0.517088 -0.077635
C13   C     C_R   0.042215 0.368895 0.457971 -0.053177
C14   C     C_R   0.027900 0.286096 0.433817 -0.016166
C15   C     C_R   0.032876 0.233491 0.469921 -0.076426
C16   C     C_R   0.014416 0.150154 0.446186 -0.109334
C17   C     C_R   0.006683 0.098816 0.483800 0.346258
C18   C     C_R   0.037489 0.130373 0.542807 -0.084043
C19   C     C_R   0.010183 0.254567 0.374243 0.662697
N2    N     N_R   0.006852 0.173611 0.351269 -0.438601
C20   C     C_R   0.010700 0.121492 0.385644 0.633768
O11   O     O_2   0.100975 0.194879 0.660433 -0.475297
O12   O     O_2   0.106022 0.456744 0.636454 -0.551831
H3    H     H_    0.075779 0.463419 0.534047 0.123934
H4    H     H_    0.037613 0.410559 0.431212 0.145490
O13   O     O_2   0.999302 0.304366 0.339421 -0.476764
O14   O     O_2   0.018964 0.042430 0.361012 -0.480185
H5    H     H_    0.033110 0.090256 0.570742 0.187235
C21   C     C_R   0.832241 0.104721 0.263595 0.008079
H6    H     H_    0.709628 0.098407 0.289685 0.155039
C22   C     C_R   0.819182 0.075478 0.204118 -0.092334
H7    H     H_    0.686022 0.047081 0.185499 0.110628
C23   C     C_R   0.976697 0.082041 0.169257 -0.156638
C24   C     C_R   0.147140 0.119191 0.195298 -0.151788
H8    H     H_    0.269979 0.124457 0.168918 0.136980
C25   C     C_R   0.161902 0.149428 0.255180 0.386094
C26   C     C_R   0.001361 0.142310 0.289714 0.188914
C27   C     C_R   0.273652 0.402952 0.735709 0.017774
H9    H     H_    0.389359 0.416245 0.709554 0.103341
C28   C     C_R   0.284681 0.431718 0.795440 -0.114422
H10   H     H_    0.407883 0.468089 0.814018 0.117938
C29   C     C_R   0.138230 0.414425 0.830797 -0.163496
C30   C     C_R   0.979144 0.366418 0.804559 0.304435
C31   C     C_R   0.967502 0.340171 0.744594 -0.043294
H11   H     H_    0.845549 0.303994 0.724710 0.137715
C32   C     C_R   0.114548 0.357091 0.709833 0.204785
C33   C     C_R   0.473230 0.879412 0.611613 0.627381
N3    N     N_R   0.519859 0.833255 0.648340 -0.432191
C34   C     C_R   0.583978 0.756427 0.627698 0.618564
C35   C     C_R   0.607138 0.723844 0.568270 -0.020325
C36   C     C_R   0.563176 0.771060 0.530170 -0.040383
C37   C     C_R   0.496027 0.849580 0.551885 -0.064525
C38   C     C_R   0.674168 0.645534 0.546099 -0.065358
C39   C     C_R   0.696286 0.614488 0.487003 -0.070429
C40   C     C_R   0.651869 0.660919 0.448490 -0.029657
C41   C     C_R   0.585736 0.739573 0.470203 -0.042433
C42   C     C_R   0.541255 0.786673 0.432069 -0.045728
C43   C     C_R   0.475264 0.865140 0.454308 0.044303
C44   C     C_R   0.453693 0.896268 0.513433 0.010044
C45   C     C_R   0.670842 0.630496 0.388684 0.569094
N4    N     N_R   0.625019 0.676673 0.351825 -0.444984
C46   C     C_R   0.562133 0.753736 0.372545 0.582033
O15   O     O_2   0.404815 0.953861 0.632738 -0.480276
O16   O     O_2   0.627101 0.711902 0.664571 -0.542769
H12   H     H_    0.709699 0.607877 0.574334 0.136648
H13   H     H_    0.747858 0.553862 0.471623 0.124232
O17   O     O_2   0.735108 0.555353 0.367622 -0.514168
O18   O     O_2   0.517093 0.798106 0.335726 -0.525672
H14   H     H_    0.439713 0.902814 0.426091 0.169575
H15   H     H_    0.403684 0.957091 0.528910 0.152879
C47   C     C_R   0.769497 0.671740 0.257063 0.002451
H16   H     H_    0.866968 0.719918 0.277158 0.117967
C48   C     C_R   0.777229 0.639193 0.197619 -0.154215
H17   H     H_    0.879944 0.663732 0.172906 0.110772
C49   C     C_R   0.651117 0.577135 0.169923 -0.172250
C50   C     C_R   0.520087 0.545802 0.203936 0.377408
C51   C     C_R   0.513023 0.579668 0.263483 -0.039849
H18   H     H_    0.410946 0.557047 0.289416 0.141211
C52   C     C_R   0.636208 0.642662 0.290445 0.200740
C53   C     C_R   0.341778 0.845897 0.738409 -0.013987
H19   H     H_    0.230292 0.807239 0.714474 0.138798
C54   C     C_R   0.323593 0.875031 0.797941 -0.066482
H20   H     H_    0.198028 0.858314 0.818864 0.101316
C55   C     C_R   0.468931 0.923233 0.830280 -0.164774
C56   C     C_R   0.630389 0.943358 0.801559 -0.157886
H21   H     H_    0.742223 0.981338 0.825985 0.154633
C57   C     C_R   0.648134 0.915803 0.741670 0.456982
C58   C     C_R   0.502880 0.865857 0.709656 0.196294
C59   C     C_2   0.635669 0.270224 0.002480 -0.191375
H22   H     H_    0.752825 0.247565 0.023965 0.083199
C60   C     C_2   0.477490 0.223157 0.984082 0.170361
O19   O     O_R   0.618210 0.960470 0.922400 -0.561300
O20   O     O_R   0.291310 0.111960 0.995450 -0.512353
O21   O     O_R   0.124210 0.039530 0.077580 -0.563277
C61   C     C_R   0.462082 0.143572 0.995382 0.804070
O22   O     O_R   0.288310 0.965490 0.917650 -0.551427
O23   O     O_R   0.121180 0.892010 0.999220 -0.564217
C62   C     C_R   0.457017 0.950992 0.893866 0.834815
O24   O     O_R   0.621230 0.107990 0.000760 -0.568719
O25   O     O_3   0.455770 0.976060 0.026840 -0.283834
V3    V     V_3+5 0.179680 0.004440 0.995020 1.194287
O26   O     O_R   0.791670 0.888040 0.004570 -0.568906
C63   C     C_R   0.960996 0.854871 0.001584 0.848193
O27   O     O_R   0.794680 0.034510 0.082370 -0.560500
C64   C     C_R   0.964238 0.050496 0.105986 0.855125
V4    V     V_3+5 0.680070 0.995560 0.005010 1.159512
O28   O     O_3   0.953840 0.023940 0.973160 -0.245697
N5    N     N_R   0.339964 0.186314 0.279946 0.094323
O29   O     O_R   0.392879 0.184271 0.331424 -0.382350
O30   O     O_R   0.457205 0.217518 0.249548 -0.314491
N6    N     N_R   0.833399 0.340028 0.837689 0.100204
O31   O     O_R   0.883463 0.305021 0.877309 -0.267476
O32   O     O_R   0.654461 0.335283 0.820417 -0.340270
S1    S     S_3+6 0.367448 0.462880 0.174926 -0.034056
O33   O     O_2   0.466611 0.403964 0.127199 -0.315742
O34   O     O_2   0.314036 0.422085 0.220839 -0.222926
O35   O     O_3   0.165481 0.495772 0.149718 -0.502252
H23   H     H_    0.078578 0.448615 0.139487 0.370431
S2    S     S_3+6 0.851985 0.945019 0.707844 -0.026313
O36   O     O_2   0.791732 0.007609 0.678041 -0.209001
O37   O     O_2   0.006339 0.979238 0.751331 -0.264877
O38   O     O_3   0.940524 0.865887 0.659238 -0.551545
H24   H     H_    0.025548 0.888826 0.634590 0.373773
S3    S     S_3+6 0.295776 0.247272 0.938917 0.000326
O39   O     O_2   0.152435 0.301427 0.975634 -0.229616
O40   O     O_2   0.382408 0.288581 0.897151 -0.242340
O41   O     O_3   0.179491 0.164511 0.901836 -0.440533
H25   H     H_    0.278560 0.133030 0.876481 0.336294
N7    N     N_R   0.952472 0.016135 0.464022 0.118900
O42   O     O_R   0.792235 0.996951 0.435260 -0.325520
O43   O     O_R   0.036375 0.962993 0.485453 -0.383028

loop_
_geom_bond_atom_site_label_1
_geom_bond_atom_site_label_2
_geom_bond_distance
_ccdc_geom_bond_type
C38   H12   1.083125 S    
C28   H10   1.083069 S    
N6    O31   1.300447 A    
O25   V4    1.703740 S    
C25   N5    1.440960 S    
C43   C44   1.399887 A    
C20   O14   1.348120 S    
C53   H19   1.082294 S    
C9    C12   1.405079 A    
C1    O6    1.297873 A    
S2    O38   1.681684 S    
C59   C60   1.365415 D    
C54   H20   1.083090 S    
C49   C50   1.422307 A    
N5    O29   1.301187 A    
C23   C64   1.486324 S    
C27   H9    1.082775 S    
C33   N3    1.372654 A    
V3    O28   1.709574 S    
C33   C37   1.411708 A    
C13   C14   1.406262 A    
O5    C3    1.295048 A    
C15   C16   1.415386 A    
S3    O41   1.682855 S    
C47   C48   1.402525 A    
N5    O30   1.301684 A    
C46   O18   1.348921 S    
O25   V3    2.160274 S    
C19   N2    1.369896 A    
O26   V4    2.015503 S    
O19   C62   1.295474 A    
C47   C52   1.402182 A    
O21   V3    1.969716 S    
N4    C52   1.450415 S    
O24   V4    2.017459 S    
O8    V2    1.975585 S    
C16   C17   1.422836 A    
C6    C63   1.479597 S    
C53   C58   1.405284 A    
O35   H23   0.990711 S    
C24   C25   1.408593 A    
C8    C9    1.409835 A    
O22   V3    1.971654 S    
O1    V2    2.017089 S    
O7    V1    2.160276 S    
C61   O24   1.286636 A    
C43   H14   1.083046 S    
S1    O35   1.679709 S    
C21   C26   1.403138 A    
C27   C28   1.401147 A    
C36   C37   1.408829 A    
C31   H11   1.083435 S    
O9    C4    1.302304 A    
C4    C5    1.479549 S    
C57   C58   1.414236 A    
C19   O13   1.349327 S    
C27   C32   1.402460 A    
C56   C57   1.407894 A    
C59   H22   1.086649 S    
C54   C55   1.403825 A    
C7    C11   1.408609 A    
C21   C22   1.396954 A    
C1    C49   1.492331 S    
O27   V4    1.975672 S    
C22   C23   1.403722 A    
C31   C32   1.400031 A    
C25   C26   1.417497 A    
C18   H5    1.083661 S    
N4    C46   1.374014 A    
N7    O43   1.300839 A    
C12   H3    1.083222 S    
C50   C51   1.408012 A    
O4    C2    1.306748 A    
C47   H16   1.082735 S    
C38   C39   1.399503 A    
S2    O37   1.502928 D    
C10   C11   1.404900 A    
C14   C19   1.405870 A    
N2    C20   1.371484 A    
O2    C1    1.300557 A    
C45   N4    1.374139 A    
C57   S2    1.770562 S    
C55   C62   1.489136 S    
C14   C15   1.410786 A    
C11   C18   1.403252 A    
C36   C41   1.420161 A    
S3    O39   1.498953 D    
C35   C38   1.406849 A    
C51   C52   1.401926 A    
C5    H1    1.086485 S    
O22   C62   1.302416 A    
C37   C44   1.406124 A    
C9    C10   1.410311 A    
O27   C64   1.299643 A    
V4    O28   2.152259 S    
C40   C41   1.408490 A    
O3    C4    1.289036 A    
C3    C29   1.491674 S    
N3    C58   1.448634 S    
C23   C24   1.407556 A    
C48   C49   1.408513 A    
C30   N6    1.434914 S    
O6    V2    1.972331 S    
C2    C59   1.479032 S    
C28   C29   1.408873 A    
C34   O16   1.348975 S    
O19   V4    1.973401 S    
O2    V1    1.971602 S    
O23   V3    2.013870 S    
C21   H6    1.082025 S    
S1    O33   1.502475 D    
C60   C61   1.474031 S    
C10   C15   1.417928 A    
C22   H7    1.083065 S    
N6    O32   1.300649 A    
O1    C2    1.285711 A    
C33   O15   1.348920 S    
N1    C8    1.372458 A    
C42   C43   1.407046 A    
O5    V1    1.969935 S    
C42   C46   1.412436 A    
O8    C3    1.302329 A    
C53   C54   1.402562 A    
C45   O17   1.349140 S    
S2    O36   1.502931 D    
C50   S1    1.770944 S    
C8    O12   1.349119 S    
O38   H24   0.990255 S    
C55   C56   1.407864 A    
N7    O42   1.301308 A    
C34   C35   1.411275 A    
O20   V3    2.010047 S    
C6    H2    1.086491 S    
O9    V2    2.015439 S    
C30   C31   1.403277 A    
O4    V1    2.009921 S    
O3    V1    2.013907 S    
V1    O10   1.709522 S    
O26   C63   1.302349 A    
C17   C18   1.403449 A    
N1    C32   1.447245 S    
O23   C63   1.289097 A    
S3    O40   1.502065 D    
C60   S3    1.778005 S    
C51   H18   1.082845 S    
C5    C6    1.355009 D    
O20   C61   1.301686 A    
C35   C36   1.408543 A    
C44   H15   1.082979 S    
O7    V2    1.704011 S    
C39   C40   1.407092 A    
C17   N7    1.436528 S    
C39   H13   1.083299 S    
N3    C34   1.373007 A    
C41   C42   1.408469 A    
C7    O11   1.349648 S    
C48   H17   1.083407 S    
C40   C45   1.411648 A    
C24   H8    1.083229 S    
N2    C26   1.445629 S    
O41   H25   0.990660 S    
C13   H4    1.083257 S    
C16   C20   1.417960 A    
C56   H21   1.082925 S    
S1    O34   1.503894 D    
C29   C30   1.421999 A    
C7    N1    1.373626 A    
V2    O10   2.152256 S    
O21   C64   1.295944 A    
C12   C13   1.396239 A    
