data_mof_unit_64870.cif
_audit_creation_date              2013-03-05T16:23:06-0500
_audit_creation_method            fapswitch 2.2
_symmetry_space_group_name_H-M    P1
_symmetry_Int_Tables_number       1
_space_group_crystal_system       triclinic
_cell_length_a                    43.068153
_cell_length_b                    30.468744
_cell_length_c                    30.496062
_cell_angle_alpha                 90.000022
_cell_angle_beta                  89.999061
_cell_angle_gamma                 90.005908
_cell_volume                      40017.9243236

loop_
_atom_site_label
_atom_site_type_symbol
_atom_site_description
_atom_site_fract_x
_atom_site_fract_y
_atom_site_fract_z
_atom_type_partial_charge
Zn1   Zn    Zn3+2 0.224060 0.448080 0.500000 0.998699
Zn2   Zn    Zn3+2 0.775940 0.551920 0.500000 0.998232
Zn3   Zn    Zn3+2 0.224060 0.551920 0.500000 1.006819
Zn4   Zn    Zn3+2 0.775940 0.448080 0.500000 0.994965
Zn5   Zn    Zn3+2 0.724060 0.948080 0.000000 0.998442
Zn6   Zn    Zn3+2 0.275940 0.051920 0.000000 0.998490
Zn7   Zn    Zn3+2 0.724060 0.051920 0.000000 1.006646
Zn8   Zn    Zn3+2 0.275940 0.948080 0.000000 0.994988
Zn9   Zn    Zn3+2 0.275990 0.500000 0.448100 0.989006
Zn10  Zn    Zn3+2 0.724010 0.500000 0.551900 0.989007
Zn11  Zn    Zn3+2 0.724010 0.500000 0.448100 0.992950
Zn12  Zn    Zn3+2 0.275990 0.500000 0.551900 0.980282
Zn13  Zn    Zn3+2 0.775990 0.000000 0.948100 0.988967
Zn14  Zn    Zn3+2 0.224010 1.000000 0.051900 0.988919
Zn15  Zn    Zn3+2 0.224010 0.000000 0.948100 0.992974
Zn16  Zn    Zn3+2 0.775990 1.000000 0.051900 0.980350
O1    O     O_3   0.250020 0.500000 0.500000 -0.482766
O2    O     O_3   0.749980 0.500000 0.500000 -0.482826
O3    O     O_3   0.750020 0.000000 0.000000 -0.482693
O4    O     O_3   0.249980 0.000000 0.000000 -0.482862
O5    O     O_R   0.231840 0.587470 0.448900 -0.637719
O6    O     O_R   0.768160 0.412530 0.551100 -0.640797
O7    O     O_R   0.768160 0.412530 0.448900 -0.643058
O8    O     O_R   0.231840 0.587470 0.551100 -0.637679
O9    O     O_R   0.231840 0.412530 0.551100 -0.641380
O10   O     O_R   0.768160 0.587470 0.448900 -0.641619
O11   O     O_R   0.768160 0.587470 0.551100 -0.640731
O12   O     O_R   0.231840 0.412530 0.448900 -0.639547
O13   O     O_R   0.731840 0.087470 0.948900 -0.636923
O14   O     O_R   0.268160 0.912530 0.051100 -0.639867
O15   O     O_R   0.268160 0.912530 0.948900 -0.643960
O16   O     O_R   0.731840 0.087470 0.051100 -0.638637
O17   O     O_R   0.731840 0.912530 0.051100 -0.640428
O18   O     O_R   0.268160 0.087470 0.948900 -0.640410
O19   O     O_R   0.268160 0.087470 0.051100 -0.641680
O20   O     O_R   0.731840 0.912530 0.948900 -0.640757
O21   O     O_R   0.268210 0.448870 0.412550 -0.641604
O22   O     O_R   0.731790 0.551130 0.587450 -0.641269
O23   O     O_R   0.731790 0.551130 0.412550 -0.641011
O24   O     O_R   0.268210 0.448870 0.587450 -0.645116
O25   O     O_R   0.268210 0.551130 0.587450 -0.643619
O26   O     O_R   0.731790 0.448870 0.412550 -0.638789
O27   O     O_R   0.731790 0.448870 0.587450 -0.640524
O28   O     O_R   0.268210 0.551130 0.412550 -0.641249
O29   O     O_R   0.768210 0.948870 0.912550 -0.641302
O30   O     O_R   0.231790 0.051130 0.087450 -0.641070
O31   O     O_R   0.231790 0.051130 0.912550 -0.641326
O32   O     O_R   0.768210 0.948870 0.087450 -0.645292
O33   O     O_R   0.768210 0.051130 0.087450 -0.643415
O34   O     O_R   0.231790 0.948870 0.912550 -0.638587
O35   O     O_R   0.231790 0.948870 0.087450 -0.640789
O36   O     O_R   0.768210 0.051130 0.912550 -0.641464
O37   O     O_R   0.319350 0.500000 0.463670 -0.645165
O38   O     O_R   0.680650 0.500000 0.536330 -0.645990
O39   O     O_R   0.680650 0.500000 0.463670 -0.641792
O40   O     O_R   0.319350 0.500000 0.536330 -0.645675
O41   O     O_R   0.819350 1.000000 0.963670 -0.645144
O42   O     O_R   0.180650 1.000000 0.036330 -0.646008
O43   O     O_R   0.180650 1.000000 0.963670 -0.641774
O44   O     O_R   0.819350 1.000000 0.036330 -0.645710
O45   O     O_R   0.180700 0.536340 0.500000 -0.636851
O46   O     O_R   0.819300 0.463660 0.500000 -0.640565
O47   O     O_R   0.180700 0.463660 0.500000 -0.637617
O48   O     O_R   0.819300 0.536340 0.500000 -0.636954
O49   O     O_R   0.680700 0.036340 0.000000 -0.636930
O50   O     O_R   0.319300 0.963660 0.000000 -0.640513
O51   O     O_R   0.680700 0.963660 0.000000 -0.637713
O52   O     O_R   0.319300 0.036340 0.000000 -0.636891
C1    C     C_R   0.615340 0.499959 0.539768 -0.174072
C2    C     C_R   0.384658 0.500026 0.460225 -0.173764
C3    C     C_R   0.384659 0.499952 0.539768 -0.174444
C4    C     C_R   0.615343 0.500001 0.460225 -0.166174
C5    C     C_R   0.115339 0.000052 0.039766 -0.173664
C6    C     C_R   0.884657 0.999925 0.960223 -0.173866
C7    C     C_R   0.884660 0.000046 0.039766 -0.174482
C8    C     C_R   0.115345 0.999901 0.960223 -0.166645
H1    H     H_    0.627436 0.499831 0.570903 0.167805
H2    H     H_    0.372560 0.500171 0.429092 0.167855
H3    H     H_    0.372563 0.499811 0.570902 0.165308
H4    H     H_    0.627442 0.500134 0.429092 0.172743
H5    H     H_    0.127434 0.000230 0.070901 0.167743
H6    H     H_    0.872559 0.999766 0.929091 0.167877
H7    H     H_    0.872564 0.000211 0.070901 0.165313
H8    H     H_    0.127444 0.999730 0.929091 0.172836
C9    C     C_R   0.583029 0.499967 0.539754 -0.164800
C10   C     C_R   0.416970 0.500002 0.460236 -0.164706
C11   C     C_R   0.416971 0.499962 0.539753 -0.166058
C12   C     C_R   0.583032 0.499978 0.460236 -0.161906
C13   C     C_R   0.083027 0.000024 0.039750 -0.165642
C14   C     C_R   0.916969 0.999930 0.960232 -0.164510
C15   C     C_R   0.916972 0.000019 0.039750 -0.166187
C16   C     C_R   0.083033 0.999905 0.960232 -0.160962
H9    H     H_    0.570826 0.499438 0.570805 0.142052
H10   H     H_    0.429171 0.500537 0.429183 0.142836
H11   H     H_    0.429173 0.499422 0.570804 0.140609
H12   H     H_    0.570832 0.500501 0.429183 0.145234
H13   H     H_    0.070823 0.000588 0.070799 0.141739
H14   H     H_    0.929169 0.999369 0.929180 0.142992
H15   H     H_    0.929175 0.000573 0.070800 0.140656
H16   H     H_    0.070833 0.999333 0.929179 0.145739
C17   C     C_R   0.566656 0.499970 0.499994 0.106165
C18   C     C_R   0.433345 0.499979 0.499994 0.108760
C19   C     C_R   0.066656 0.999960 0.999989 0.106107
C20   C     C_R   0.933345 0.999969 0.999989 0.108735
C21   C     C_R   0.249990 0.584204 0.415838 0.812392
C22   C     C_R   0.749980 0.415828 0.584195 0.812857
C23   C     C_R   0.749952 0.415800 0.415833 0.810064
C24   C     C_R   0.250019 0.584233 0.584132 0.809887
C25   C     C_R   0.249988 0.415795 0.584162 0.806286
C26   C     C_R   0.749982 0.584173 0.415806 0.806608
C27   C     C_R   0.750013 0.584203 0.584164 0.809923
C28   C     C_R   0.250019 0.415826 0.415806 0.810335
C29   C     C_R   0.749990 0.084204 0.915838 0.812701
C30   C     C_R   0.249980 0.915828 0.084195 0.813292
C31   C     C_R   0.249953 0.915800 0.915831 0.809587
C32   C     C_R   0.750018 0.084233 0.084134 0.809598
C33   C     C_R   0.749988 0.915795 0.084162 0.806826
C34   C     C_R   0.249982 0.084173 0.915805 0.807183
C35   C     C_R   0.250013 0.084203 0.084164 0.809419
C36   C     C_R   0.750019 0.915826 0.915806 0.809743
C37   C     C_R   0.631748 0.499987 0.499998 -0.013570
C38   C     C_R   0.368252 0.499993 0.499997 -0.010303
C39   C     C_R   0.131748 0.999985 0.999997 -0.013561
C40   C     C_R   0.868252 0.999991 0.999996 -0.010279
C41   C     C_R   0.334190 0.499999 0.499999 0.792324
C42   C     C_R   0.665810 0.499997 0.500000 0.792528
C43   C     C_R   0.834190 0.999999 0.999999 0.792333
C44   C     C_R   0.165810 0.999997 1.000000 0.792524
C45   C     C_R   0.165697 0.499995 0.500001 0.820538
C46   C     C_R   0.834303 0.500006 0.500004 0.820793
C47   C     C_R   0.665698 0.999995 0.000002 0.820604
C48   C     C_R   0.334303 0.000006 0.000003 0.820785
C49   C     C_R   0.114844 0.539576 0.499695 -0.195060
C50   C     C_R   0.885163 0.460438 0.500175 -0.202525
C51   C     C_R   0.114890 0.460302 0.500318 -0.191128
C52   C     C_R   0.885105 0.539713 0.499919 -0.191434
C53   C     C_R   0.614844 0.039577 0.000074 -0.195431
C54   C     C_R   0.385163 0.960437 0.999798 -0.202489
C55   C     C_R   0.614890 0.960301 0.000002 -0.191798
C56   C     C_R   0.385105 0.039713 0.000239 -0.191025
H17   H     H_    0.127490 0.570320 0.498907 0.199759
H18   H     H_    0.872523 0.429687 0.500810 0.194851
H19   H     H_    0.127595 0.429619 0.501127 0.205151
H20   H     H_    0.872397 0.570397 0.499249 0.204505
H21   H     H_    0.627489 0.070326 0.000635 0.199352
H22   H     H_    0.372522 0.929688 0.999083 0.194516
H23   H     H_    0.627593 0.929611 0.999405 0.204706
H24   H     H_    0.372396 0.070394 0.000974 0.205151
C57   C     C_R   0.082249 0.540196 0.499076 -0.034798
C58   C     C_R   0.917759 0.459827 0.500821 -0.029679
C59   C     C_R   0.082317 0.459565 0.500937 -0.034203
C60   C     C_R   0.917677 0.540463 0.499329 -0.034059
C61   C     C_R   0.582249 0.040200 0.000717 -0.033963
C62   C     C_R   0.417759 0.959827 0.999186 -0.029079
C63   C     C_R   0.582318 0.959560 0.999414 -0.033109
C64   C     C_R   0.417678 0.040462 0.000858 -0.035713
C65   C     C_R   0.065693 0.499874 0.499979 -0.093027
C66   C     C_R   0.934310 0.500157 0.500109 -0.092939
C67   C     C_R   0.565692 0.999874 0.000103 -0.092426
C68   C     C_R   0.434308 0.000156 0.999995 -0.092942
H25   H     H_    0.528347 0.450526 0.449242 0.145830
H26   H     H_    0.471653 0.549421 0.550744 0.142616
H27   H     H_    0.471643 0.450532 0.449240 0.143839
H28   H     H_    0.528356 0.549419 0.550743 0.141723
H29   H     H_    0.028358 0.049352 0.949185 0.142888
H30   H     H_    0.971643 0.950565 0.050785 0.141781
H31   H     H_    0.971655 0.049358 0.949186 0.142693
H32   H     H_    0.028347 0.950563 0.050785 0.143198
C69   C     C_R   0.131323 0.499964 0.500004 -0.060637
C70   C     C_R   0.868678 0.500045 0.500029 -0.058989
C71   C     C_R   0.631323 0.999963 0.000023 -0.060384
C72   C     C_R   0.368678 0.000045 0.000013 -0.059043
N1    N     N_R   0.015424 0.481167 0.466586 -0.113096
N2    N     N_R   0.984582 0.518872 0.533504 -0.110621
N3    N     N_R   0.015503 0.518764 0.533494 -0.117088
N4    N     N_R   0.984503 0.481278 0.466594 -0.119394
N5    N     N_R   0.515421 0.981249 0.033555 -0.111791
N6    N     N_R   0.484575 0.018793 0.966553 -0.113943
N7    N     N_R   0.515496 0.018682 0.966555 -0.116943
N8    N     N_R   0.484500 0.981357 0.033551 -0.115592
C73   C     C_R   0.968563 0.500144 0.500046 0.416555
C74   C     C_R   0.031442 0.499896 0.500042 0.416278
C75   C     C_R   0.468559 0.000143 0.000056 0.416126
C76   C     C_R   0.531438 0.999896 0.000050 0.416271
C77   C     C_R   0.766114 0.657546 0.387392 -0.160727
C78   C     C_R   0.272471 0.381004 0.651105 -0.166765
C79   C     C_R   0.233874 0.342459 0.387392 -0.157938
C80   C     C_R   0.727541 0.618976 0.651124 -0.159384
C81   C     C_R   0.766118 0.342465 0.612616 -0.158455
C82   C     C_R   0.272422 0.618926 0.348818 -0.157389
C83   C     C_R   0.265979 0.612549 0.657545 -0.162582
C84   C     C_R   0.772424 0.348763 0.381098 -0.159719
C85   C     C_R   0.266115 0.157545 0.887392 -0.158669
C86   C     C_R   0.772474 0.880996 0.151098 -0.167114
C87   C     C_R   0.733877 0.842457 0.887393 -0.159995
C88   C     C_R   0.227545 0.118969 0.151131 -0.159007
C89   C     C_R   0.266118 0.842465 0.112616 -0.156664
C90   C     C_R   0.772423 0.118928 0.848820 -0.157792
C91   C     C_R   0.766133 0.112655 0.157442 -0.162319
C92   C     C_R   0.272342 0.848642 0.881217 -0.161484
H33   H     H_    0.779161 0.663587 0.417144 0.170610
H34   H     H_    0.290397 0.405906 0.652258 0.164594
H35   H     H_    0.220812 0.336432 0.417135 0.171787
H36   H     H_    0.709617 0.594071 0.652280 0.168434
H37   H     H_    0.779172 0.336432 0.582868 0.169585
H38   H     H_    0.290297 0.593959 0.347593 0.168913
H39   H     H_    0.278901 0.582679 0.663662 0.166199
H40   H     H_    0.790297 0.347535 0.406048 0.170436
H41   H     H_    0.279161 0.163587 0.917145 0.171464
H42   H     H_    0.790407 0.905890 0.152244 0.164416
H43   H     H_    0.720814 0.836430 0.917136 0.170929
H44   H     H_    0.209626 0.094055 0.152294 0.168613
H45   H     H_    0.279173 0.836432 0.082868 0.170281
H46   H     H_    0.790300 0.093963 0.847597 0.168713
H47   H     H_    0.779200 0.082891 0.163455 0.166338
H48   H     H_    0.290131 0.847301 0.906280 0.168919
C93   C     C_R   0.765585 0.689712 0.354987 -0.148270
C94   C     C_R   0.272339 0.348190 0.682858 -0.151086
C95   C     C_R   0.234405 0.310286 0.354994 -0.146173
C96   C     C_R   0.727677 0.651784 0.682883 -0.147026
C97   C     C_R   0.765590 0.310300 0.645021 -0.146303
C98   C     C_R   0.272295 0.651744 0.317069 -0.144746
C99   C     C_R   0.265447 0.644969 0.689690 -0.148565
C100  C     C_R   0.772316 0.317021 0.348270 -0.146271
C101  C     C_R   0.265587 0.189711 0.854986 -0.147554
C102  C     C_R   0.772341 0.848183 0.182852 -0.151398
C103  C     C_R   0.734408 0.810284 0.854995 -0.146895
C104  C     C_R   0.227678 0.151778 0.182889 -0.146698
C105  C     C_R   0.265590 0.810299 0.145021 -0.145501
C106  C     C_R   0.772296 0.151746 0.817071 -0.145139
C107  C     C_R   0.765595 0.145065 0.189599 -0.148731
C108  C     C_R   0.272244 0.816905 0.848383 -0.147558
H49   H     H_    0.778418 0.719879 0.360088 0.156932
H50   H     H_    0.289993 0.348489 0.708178 0.154267
H51   H     H_    0.221559 0.280130 0.360088 0.158508
H52   H     H_    0.710027 0.651479 0.708209 0.156757
H53   H     H_    0.778430 0.280142 0.639926 0.157301
H54   H     H_    0.289901 0.651385 0.291683 0.157009
H55   H     H_    0.278151 0.639761 0.719919 0.154622
H56   H     H_    0.789933 0.291631 0.348605 0.156978
H57   H     H_    0.278420 0.219878 0.860087 0.157435
H58   H     H_    0.789999 0.848474 0.208165 0.153962
H59   H     H_    0.721563 0.780127 0.860090 0.158001
H60   H     H_    0.210034 0.151464 0.208222 0.157065
H61   H     H_    0.278430 0.780142 0.139926 0.157844
H62   H     H_    0.789903 0.151388 0.791686 0.156647
H63   H     H_    0.778438 0.139955 0.219727 0.154841
H64   H     H_    0.289781 0.791407 0.848830 0.156045
C109  C     C_R   0.748959 0.683064 0.316055 0.069856
C110  C     C_R   0.249513 0.315422 0.682431 0.072059
C111  C     C_R   0.251050 0.316915 0.316074 0.068552
C112  C     C_R   0.750501 0.684555 0.682452 0.069272
C113  C     C_R   0.748955 0.316937 0.683948 0.069311
C114  C     C_R   0.249533 0.684593 0.317584 0.069239
C115  C     C_R   0.248980 0.684050 0.682952 0.071563
C116  C     C_R   0.749557 0.317551 0.315441 0.069952
C117  C     C_R   0.248963 0.183062 0.816053 0.069267
C118  C     C_R   0.749507 0.815426 0.182434 0.072185
C119  C     C_R   0.751054 0.816913 0.816075 0.069147
C120  C     C_R   0.250495 0.184559 0.182449 0.069138
C121  C     C_R   0.248955 0.816936 0.183947 0.068703
C122  C     C_R   0.749533 0.184593 0.817584 0.069430
C123  C     C_R   0.748946 0.184014 0.182994 0.071547
C124  C     C_R   0.249591 0.817575 0.815410 0.070672
C125  C     C_R   0.732307 0.643476 0.309491 -0.002413
C126  C     C_R   0.226412 0.315281 0.649323 -0.002046
C127  C     C_R   0.267720 0.356490 0.309517 -0.000898
C128  C     C_R   0.773598 0.684703 0.649338 -0.003226
C129  C     C_R   0.732295 0.356514 0.690506 -0.001641
C130  C     C_R   0.226492 0.684812 0.350776 -0.005140
C131  C     C_R   0.232498 0.690757 0.643280 -0.005164
C132  C     C_R   0.726502 0.350746 0.315253 -0.002320
C133  C     C_R   0.232311 0.143474 0.809488 -0.002397
C134  C     C_R   0.726398 0.815296 0.149336 -0.002891
C135  C     C_R   0.767722 0.856489 0.809518 -0.000913
C136  C     C_R   0.273586 0.184717 0.149326 -0.002384
C137  C     C_R   0.232295 0.856513 0.190505 -0.001621
C138  C     C_R   0.726490 0.184809 0.850773 -0.006098
C139  C     C_R   0.732279 0.190591 0.143456 -0.004527
C140  C     C_R   0.226643 0.850916 0.815075 -0.002540
C141  C     C_R   0.733110 0.611411 0.342551 -0.220506
C142  C     C_R   0.226924 0.348651 0.617560 -0.220935
C143  C     C_R   0.266913 0.388562 0.342570 -0.219826
C144  C     C_R   0.773081 0.651340 0.617568 -0.217926
C145  C     C_R   0.733098 0.388579 0.657445 -0.218830
C146  C     C_R   0.226997 0.651435 0.382531 -0.211182
C147  C     C_R   0.233291 0.657663 0.611241 -0.214964
C148  C     C_R   0.726985 0.382487 0.348637 -0.215886
C149  C     C_R   0.233113 0.111409 0.842549 -0.220834
C150  C     C_R   0.726913 0.848664 0.117571 -0.219249
C151  C     C_R   0.766914 0.888562 0.842570 -0.219511
C152  C     C_R   0.273071 0.151352 0.117557 -0.219601
C153  C     C_R   0.233098 0.888579 0.157444 -0.219152
C154  C     C_R   0.726995 0.151433 0.882529 -0.209672
C155  C     C_R   0.733092 0.157519 0.111396 -0.216898
C156  C     C_R   0.227106 0.882640 0.848475 -0.215541
H65   H     H_    0.720422 0.581032 0.338049 0.199158
H66   H     H_    0.209466 0.348909 0.591976 0.198943
H67   H     H_    0.279615 0.418930 0.338073 0.197774
H68   H     H_    0.790534 0.651088 0.591977 0.200226
H69   H     H_    0.720403 0.418949 0.661942 0.197736
H70   H     H_    0.209586 0.651239 0.408180 0.201889
H71   H     H_    0.220733 0.662260 0.580798 0.201463
H72   H     H_    0.709562 0.408137 0.348850 0.199213
H73   H     H_    0.220425 0.081031 0.838047 0.199158
H74   H     H_    0.709451 0.848930 0.091994 0.200060
H75   H     H_    0.779615 0.918930 0.838073 0.197768
H76   H     H_    0.290520 0.151108 0.091960 0.199112
H77   H     H_    0.220403 0.918949 0.161941 0.197735
H78   H     H_    0.709583 0.151235 0.908176 0.202837
H79   H     H_    0.720395 0.162023 0.081054 0.200986
H80   H     H_    0.209761 0.908397 0.848573 0.199281
C157  C     C_R   0.749840 0.618179 0.381477 -0.033347
C158  C     C_R   0.249807 0.381462 0.618161 -0.030831
C159  C     C_R   0.250164 0.381814 0.381483 -0.033978
C160  C     C_R   0.750199 0.618529 0.618170 -0.033217
C161  C     C_R   0.749836 0.381822 0.618524 -0.033292
C162  C     C_R   0.249815 0.618543 0.381843 -0.034154
C163  C     C_R   0.249862 0.618589 0.618107 -0.032650
C164  C     C_R   0.749800 0.381789 0.381509 -0.033878
C165  C     C_R   0.249841 0.118178 0.881477 -0.033803
C166  C     C_R   0.749804 0.881463 0.118163 -0.031172
C167  C     C_R   0.750165 0.881814 0.881484 -0.033517
C168  C     C_R   0.250197 0.118531 0.118169 -0.032886
C169  C     C_R   0.249836 0.881822 0.118524 -0.033698
C170  C     C_R   0.749815 0.118543 0.881843 -0.034383
C171  C     C_R   0.749848 0.118578 0.118123 -0.032528
C172  C     C_R   0.249812 0.881799 0.881496 -0.033125
C173  C     C_R   0.770432 0.714240 0.246472 0.311369
C174  C     C_R   0.230331 0.286543 0.754301 0.310760
C175  C     C_R   0.229577 0.285747 0.246490 0.312017
C176  C     C_R   0.769667 0.713417 0.754337 0.312537
C177  C     C_R   0.770469 0.285749 0.753495 0.311161
C178  C     C_R   0.230310 0.713482 0.245745 0.311017
C179  C     C_R   0.270722 0.753359 0.714471 0.309192
C180  C     C_R   0.730323 0.245697 0.286460 0.309255
C181  C     C_R   0.270443 0.214242 0.746477 0.311732
C182  C     C_R   0.730331 0.786551 0.254310 0.310766
C183  C     C_R   0.729586 0.785749 0.746485 0.311652
C184  C     C_R   0.269667 0.213424 0.254329 0.312538
C185  C     C_R   0.270471 0.785749 0.253494 0.311585
C186  C     C_R   0.730311 0.213481 0.745744 0.311013
C187  C     C_R   0.770470 0.253575 0.214261 0.309406
C188  C     C_R   0.230114 0.745940 0.786203 0.309107
C189  C     C_R   0.270322 0.246869 0.714370 -0.188845
C190  C     C_R   0.730630 0.754101 0.286594 -0.188022
C191  C     C_R   0.729706 0.753122 0.714379 -0.189430
C192  C     C_R   0.269370 0.245872 0.286615 -0.187980
C193  C     C_R   0.270359 0.753124 0.285603 -0.185364
C194  C     C_R   0.730603 0.245926 0.713454 -0.186802
C195  C     C_R   0.770383 0.285644 0.246927 -0.182837
C196  C     C_R   0.230383 0.713693 0.753718 -0.183893
C197  C     C_R   0.770311 0.746867 0.214366 -0.189006
C198  C     C_R   0.230629 0.254093 0.786586 -0.188097
C199  C     C_R   0.229696 0.253121 0.214382 -0.189269
C200  C     C_R   0.769369 0.745866 0.786622 -0.187898
C201  C     C_R   0.770358 0.253124 0.785604 -0.185564
C202  C     C_R   0.230602 0.745927 0.213455 -0.186932
C203  C     C_R   0.270630 0.785426 0.747137 -0.183724
C204  C     C_R   0.730591 0.213449 0.253976 -0.184559
H81   H     H_    0.285653 0.244006 0.686345 0.180746
H82   H     H_    0.715196 0.756859 0.314516 0.180912
H83   H     H_    0.714387 0.755997 0.686344 0.180252
H84   H     H_    0.284802 0.243109 0.314538 0.181093
H85   H     H_    0.285714 0.755976 0.313602 0.182890
H86   H     H_    0.715140 0.243181 0.685563 0.181963
H87   H     H_    0.785746 0.313665 0.244127 0.183933
H88   H     H_    0.214737 0.685958 0.756228 0.183333
H89   H     H_    0.785637 0.744001 0.186336 0.180637
H90   H     H_    0.215191 0.256848 0.814502 0.180765
H91   H     H_    0.214373 0.255993 0.186351 0.180360
H92   H     H_    0.784797 0.743100 0.814549 0.181243
H93   H     H_    0.785712 0.255978 0.813604 0.182770
H94   H     H_    0.215138 0.743183 0.185565 0.181791
H95   H     H_    0.286171 0.813269 0.744518 0.183670
H96   H     H_    0.715119 0.185536 0.256668 0.183038
C205  C     C_R   0.250048 0.282664 0.717744 0.005486
C206  C     C_R   0.750235 0.717635 0.282550 0.005355
C207  C     C_R   0.749966 0.717311 0.717767 0.005160
C208  C     C_R   0.249772 0.282344 0.282570 0.005297
C209  C     C_R   0.250061 0.717346 0.282267 0.003338
C210  C     C_R   0.750236 0.282371 0.717456 0.003773
C211  C     C_R   0.750092 0.282243 0.282673 0.003138
C212  C     C_R   0.250244 0.717534 0.717538 0.003154
C213  C     C_R   0.750041 0.782668 0.217747 0.005430
C214  C     C_R   0.250239 0.217633 0.782548 0.005441
C215  C     C_R   0.249960 0.217314 0.217764 0.005215
C216  C     C_R   0.749776 0.782342 0.782571 0.005208
C217  C     C_R   0.750060 0.217346 0.782266 0.003236
C218  C     C_R   0.250236 0.782370 0.217455 0.003870
C219  C     C_R   0.250114 0.782259 0.782648 0.003066
C220  C     C_R   0.750218 0.217515 0.217566 0.003298
C221  C     C_R   0.467471 0.499976 0.499993 0.098001
C222  C     C_R   0.532530 0.499971 0.499993 0.098462
C223  C     C_R   0.967471 0.999962 0.999986 0.098846
C224  C     C_R   0.032530 0.999957 0.999985 0.099087
C225  C     C_R   0.516152 0.472463 0.471249 -0.162545
C226  C     C_R   0.483848 0.527485 0.528737 -0.165297
C227  C     C_R   0.483843 0.472466 0.471248 -0.165201
C228  C     C_R   0.516157 0.527483 0.528737 -0.166172
C229  C     C_R   0.016158 0.027438 0.971213 -0.164886
C230  C     C_R   0.983843 0.972479 0.028756 -0.166105
C231  C     C_R   0.983850 0.027441 0.971214 -0.164016
C232  C     C_R   0.016152 0.972476 0.028756 -0.163449
Br1   Br    Br    0.798231 0.665518 0.239775 -0.445406
Br2   Br    Br    0.202600 0.335333 0.761063 -0.449591
Br3   Br    Br    0.201789 0.334480 0.239789 -0.439957
Br4   Br    Br    0.797379 0.664607 0.761113 -0.432024
Br5   Br    Br    0.798301 0.334449 0.760138 -0.435557
Br6   Br    Br    0.202539 0.664722 0.239045 -0.435784
Br7   Br    Br    0.298861 0.759766 0.666139 -0.449176
Br8   Br    Br    0.702557 0.238910 0.335169 -0.450926
Br9   Br    Br    0.298249 0.165527 0.739788 -0.443288
Br10  Br    Br    0.702608 0.835349 0.261081 -0.448140
Br11  Br    Br    0.701803 0.834487 0.739777 -0.442117
Br12  Br    Br    0.297385 0.164620 0.261097 -0.433424
Br13  Br    Br    0.298303 0.834447 0.260134 -0.433181
Br14  Br    Br    0.702541 0.164720 0.739042 -0.434238
Br15  Br    Br    0.798296 0.260301 0.165612 -0.447355
Br16  Br    Br    0.202037 0.739455 0.834598 -0.449689
C233  C     C_2   0.066394 0.583554 0.496009 0.933941
O53   O     O_2   0.078648 0.616171 0.511763 -0.588984
O54   O     O_R   0.038016 0.587608 0.474079 -0.759644
H97   H     H_    0.029814 0.618797 0.474212 0.377604
C234  C     C_2   0.933618 0.416464 0.503726 0.926217
O55   O     O_2   0.921401 0.383920 0.487768 -0.604535
O56   O     O_R   0.961958 0.412318 0.525737 -0.759795
H98   H     H_    0.970170 0.381135 0.525478 0.375566
C235  C     C_2   0.066764 0.415974 0.503951 0.933954
O57   O     O_2   0.041430 0.412218 0.521666 -0.589745
O58   O     O_R   0.081728 0.378676 0.487554 -0.785285
H99   H     H_    0.069094 0.350919 0.491810 0.363415
C236  C     C_2   0.933222 0.584071 0.496528 0.931372
O59   O     O_2   0.958528 0.587935 0.478756 -0.590772
O60   O     O_R   0.918278 0.621268 0.513191 -0.780095
H100  H     H_    0.930905 0.649052 0.509065 0.364499
C237  C     C_2   0.566397 0.083576 0.003512 0.930320
O61   O     O_2   0.578622 0.116076 0.987475 -0.585011
O62   O     O_R   0.538056 0.087788 0.025510 -0.760865
H101  H     H_    0.529851 0.118973 0.025172 0.377305
C238  C     C_2   0.433621 0.916468 0.996228 0.924318
O63   O     O_2   0.421377 0.883888 0.012073 -0.601008
O64   O     O_R   0.461997 0.912367 0.974299 -0.762564
H102  H     H_    0.470206 0.881182 0.974512 0.375057
C239  C     C_2   0.566766 0.915951 0.996716 0.930828
O65   O     O_2   0.541460 0.912054 0.978954 -0.591882
O66   O     O_R   0.581703 0.878788 0.013467 -0.781133
H103  H     H_    0.569072 0.850999 0.009406 0.363650
C240  C     C_2   0.433225 0.084064 0.003769 0.935687
O67   O     O_2   0.458559 0.087869 0.021471 -0.587985
O68   O     O_R   0.418253 0.121320 0.987289 -0.785383
H104  H     H_    0.430884 0.149091 0.991480 0.364406
C241  C     C_2   0.713856 0.634552 0.269081 0.945586
O69   O     O_2   0.707258 0.596749 0.259251 -0.595748
O70   O     O_R   0.703406 0.668942 0.242594 -0.769057
H105  H     H_    0.690931 0.658242 0.216512 0.361675
C242  C     C_2   0.201705 0.281086 0.646680 0.945483
O71   O     O_2   0.177884 0.288453 0.626089 -0.596678
O72   O     O_R   0.205621 0.240223 0.666742 -0.768803
H106  H     H_    0.187206 0.220053 0.661999 0.361405
C243  C     C_2   0.286192 0.365392 0.269121 0.943979
O73   O     O_2   0.292800 0.403189 0.259282 -0.600271
O74   O     O_R   0.296651 0.330988 0.242659 -0.769689
H107  H     H_    0.309144 0.341673 0.216589 0.360731
C244  C     C_2   0.798306 0.718896 0.646695 0.945280
O75   O     O_2   0.822121 0.711534 0.626090 -0.592197
O76   O     O_R   0.794397 0.759753 0.666775 -0.769901
H108  H     H_    0.812813 0.779922 0.662028 0.361119
C245  C     C_2   0.713838 0.365428 0.730912 0.945850
O77   O     O_2   0.707233 0.403227 0.740739 -0.598560
O78   O     O_R   0.703391 0.331033 0.757399 -0.768893
H109  H     H_    0.690905 0.341726 0.783471 0.362122
C246  C     C_2   0.201855 0.719093 0.353514 0.953388
O79   O     O_2   0.178062 0.711811 0.374201 -0.588073
O80   O     O_R   0.205808 0.759941 0.333433 -0.767451
H110  H     H_    0.187443 0.780178 0.338257 0.362741
C247  C     C_2   0.214249 0.731357 0.634229 0.953131
O81   O     O_2   0.207750 0.741175 0.596422 -0.589280
O82   O     O_R   0.203884 0.758050 0.668498 -0.767237
H111  H     H_    0.191548 0.784247 0.657715 0.363533
C248  C     C_2   0.701871 0.353505 0.280992 0.951736
O83   O     O_2   0.678051 0.374132 0.288301 -0.598795
O84   O     O_R   0.705862 0.333518 0.240134 -0.766301
H112  H     H_    0.687498 0.338348 0.219913 0.362840
C249  C     C_2   0.213862 0.134548 0.769077 0.945155
O85   O     O_2   0.207264 0.096745 0.759248 -0.595827
O86   O     O_R   0.203414 0.168936 0.742586 -0.769374
H113  H     H_    0.190940 0.158236 0.716505 0.361526
C250  C     C_2   0.701682 0.781114 0.146703 0.945900
O87   O     O_2   0.677860 0.788491 0.126120 -0.592897
O88   O     O_R   0.705591 0.740250 0.166768 -0.768973
H114  H     H_    0.687169 0.720090 0.162034 0.361556
C251  C     C_2   0.786195 0.865391 0.769123 0.944423
O89   O     O_2   0.792802 0.903188 0.759283 -0.600193
O90   O     O_R   0.796655 0.830986 0.742663 -0.769363
H115  H     H_    0.809148 0.841671 0.716592 0.360887
C252  C     C_2   0.298285 0.218922 0.146673 0.944859
O91   O     O_2   0.322099 0.211570 0.126061 -0.595963
O92   O     O_R   0.294370 0.259778 0.166751 -0.769735
H116  H     H_    0.312779 0.279956 0.161995 0.360964
C253  C     C_2   0.213837 0.865427 0.230911 0.945359
O93   O     O_2   0.207232 0.903226 0.240738 -0.598687
O94   O     O_R   0.203391 0.831033 0.257399 -0.769276
H117  H     H_    0.190904 0.841725 0.283471 0.361911
C254  C     C_2   0.701851 0.219088 0.853509 0.953982
O95   O     O_2   0.678057 0.211804 0.874194 -0.583850
O96   O     O_R   0.705803 0.259936 0.833428 -0.767577
H118  H     H_    0.687437 0.280172 0.838250 0.363020
C255  C     C_2   0.713806 0.231023 0.134578 0.951236
O97   O     O_2   0.707151 0.240840 0.096825 -0.590110
O98   O     O_R   0.703403 0.257548 0.168955 -0.767778
H119  H     H_    0.690902 0.283636 0.158291 0.363180
C256  C     C_2   0.202155 0.853853 0.780629 0.952181
O99   O     O_2   0.178350 0.874565 0.787794 -0.597527
O100  O     O_R   0.206271 0.833943 0.739758 -0.766206
H120  H     H_    0.187998 0.838895 0.719400 0.363127

loop_
_geom_bond_atom_site_label_1
_geom_bond_atom_site_label_2
_geom_bond_distance
_ccdc_geom_bond_type
C187  Br15  1.918104 S    
O72   H106  1.013678 S    
C88   C104  1.391875 A    
C223  C230  1.402972 A    
Zn7   O13   1.927142 S    
C111  C127  1.417442 A    
C178  C202  1.395362 A    
C185  Br13  1.918109 S    
C234  O55   1.223446 D    
C3    C38   1.403681 A    
O90   H115  1.013671 S    
C200  H92   1.083482 S    
Zn5   O51   1.926873 S    
C12   H12   1.083116 S    
C184  Br12  1.918109 S    
C125  C141  1.404351 A    
C82   C162  1.400846 A    
O36   C29   1.281212 A    
C173  C197  1.395345 A    
C196  H88   1.083487 S    
C47   C71   1.480447 S    
C225  C227  1.391493 A    
O47   C45   1.281892 A    
C176  Br4   1.918111 S    
C149  H73   1.083554 S    
Zn5   O20   1.927180 S    
Zn6   O19   1.927178 S    
C78   H34   1.082997 S    
C242  O71   1.223604 D    
C134  C150  1.404461 A    
C91   C107  1.391889 A    
C248  O84   1.397503 S    
O49   C47   1.282054 A    
C82   H38   1.082990 S    
C125  C241  1.491322 S    
C240  O68   1.398949 S    
C17   C222  1.469744 S    
C130  C246  1.491337 S    
C55   C71   1.400409 A    
C58   C66   1.420694 A    
C230  C232  1.391489 A    
C106  H62   1.083691 S    
Zn4   O2    1.937249 S    
C54   C62   1.404107 A    
C144  C160  1.403842 A    
C221  C227  1.402963 A    
C94   H50   1.083690 S    
C190  C206  1.400981 A    
C102  C118  1.401149 A    
C133  C149  1.404352 A    
C130  C146  1.404445 A    
C87   C167  1.400838 A    
C5    H5    1.083019 S    
C52   C60   1.403119 A    
C180  Br8   1.918116 S    
C120  C215  1.468475 S    
C98   C114  1.401146 A    
Zn15  O4    1.938076 S    
C132  C248  1.491328 S    
C150  H74   1.083554 S    
O74   H107  1.013674 S    
Zn16  O33   1.927344 S    
C138  C254  1.491333 S    
C174  C198  1.395361 A    
C117  C214  1.468490 S    
C93   H49   1.083687 S    
C255  O98   1.397503 S    
Zn4   O7    1.927150 S    
C133  C249  1.491325 S    
C178  Br6   1.918106 S    
C137  C253  1.491321 S    
C245  O77   1.223597 D    
C194  H86   1.083483 S    
C97   H53   1.083687 S    
O56   H98   1.013857 S    
Zn12  O24   1.927291 S    
C95   H51   1.083686 S    
C186  C217  1.406378 A    
C104  H60   1.083693 S    
O39   C42   1.279029 A    
O7    C23   1.281325 A    
C152  C168  1.403837 A    
C53   C61   1.404086 A    
Zn2   O10   1.927190 S    
C181  C214  1.406386 A    
O16   C32   1.279657 A    
C131  C147  1.404483 A    
C142  C158  1.403846 A    
C14   C20   1.402661 A    
C56   C64   1.403135 A    
C40   C43   1.467018 S    
O29   C36   1.279520 A    
N1    C74   1.357393 A    
Zn7   O3    1.937247 S    
C251  O90   1.397506 S    
C65   C74   1.475116 S    
C197  H89   1.083489 S    
C90   H46   1.082996 S    
C83   C99   1.391873 A    
O54   H97   1.013860 S    
C100  C116  1.401204 A    
C60   C236  1.490205 S    
O13   C29   1.279649 A    
H29   C229  1.083088 S    
C107  H63   1.083692 S    
H27   C227  1.083085 S    
C180  C211  1.406383 A    
C199  C215  1.400966 A    
N5    C76   1.357420 A    
C243  O73   1.223602 D    
C87   C103  1.391995 A    
Zn10  O22   1.927294 S    
C201  H93   1.083484 S    
C6    C14   1.391601 A    
C135  C251  1.491313 S    
O43   C44   1.279027 A    
C85   C101  1.391994 A    
C247  O82   1.397491 S    
C99   H55   1.083698 S    
Zn13  O29   1.927297 S    
C131  C247  1.491403 S    
Zn10  O2    1.938044 S    
C139  C155  1.404458 A    
O64   H102  1.013860 S    
C98   H54   1.083694 S    
Zn3   O1    1.937247 S    
C114  C209  1.468473 S    
C239  O65   1.222857 D    
C126  C242  1.491325 S    
C193  C209  1.400970 A    
C197  C213  1.400970 A    
C88   H44   1.082996 S    
C195  C211  1.400975 A    
C229  C231  1.391480 A    
C183  Br11  1.918116 S    
C80   C160  1.400835 A    
C13   H13   1.083117 S    
C174  Br2   1.918109 S    
C135  C151  1.404348 A    
C48   C72   1.480477 S    
C256  O100  1.397514 S    
C177  C210  1.406381 A    
C176  C207  1.406378 A    
C179  C212  1.406355 A    
O18   C34   1.281259 A    
Zn11  O2    1.938076 S    
O42   C44   1.279058 A    
C233  O53   1.223452 D    
C153  C169  1.403872 A    
C25   C158  1.472900 S    
C78   C158  1.400831 A    
O46   C46   1.282092 A    
C1    H1    1.083021 S    
C139  C255  1.491339 S    
C224  C232  1.402964 A    
C3    H3    1.083021 S    
N6    N7    1.331702 A    
C134  C250  1.491325 S    
C149  C165  1.403869 A    
C235  O57   1.222854 D    
C87   H43   1.082997 S    
C78   C94   1.391881 A    
C223  C231  1.402971 A    
C91   H47   1.082994 S    
C61   C237  1.490028 S    
C82   C98   1.391888 A    
C52   H20   1.083564 S    
C51   C59   1.403133 A    
C198  H90   1.083483 S    
Zn13  O41   1.926864 S    
H32   C232  1.083087 S    
C138  C154  1.404448 A    
C241  O70   1.397508 S    
Zn16  O44   1.926849 S    
C109  C125  1.417449 A    
C203  C219  1.400992 A    
N2    N3    1.331706 A    
C186  C194  1.395363 A    
C9    H9    1.083115 S    
O58   H99   1.013950 S    
H25   C225  1.083085 S    
C5    C39   1.403680 A    
Zn5   O17   1.927187 S    
C173  C206  1.406385 A    
C252  O92   1.397499 S    
C186  Br14  1.918108 S    
C1    C37   1.403679 A    
C202  H94   1.083481 S    
C20   C223  1.469744 S    
C7    C15   1.391606 A    
C105  H61   1.083684 S    
C126  C142  1.404461 A    
C28   C159  1.472934 S    
C51   H19   1.083558 S    
C64   C240  1.490288 S    
C177  Br5   1.918112 S    
O11   C27   1.279611 A    
C111  C208  1.468488 S    
C253  O93   1.223600 D    
C13   C19   1.402660 A    
Zn3   O8    1.927148 S    
C93   C109  1.401217 A    
O15   C31   1.281348 A    
C194  C210  1.400976 A    
C136  C252  1.491329 S    
C97   C113  1.401204 A    
C254  O96   1.397500 S    
O35   C30   1.279575 A    
C63   C67   1.421997 A    
C7    C40   1.403682 A    
C191  H83   1.083486 S    
C64   C68   1.421988 A    
C81   H37   1.082993 S    
C33   C166  1.472894 S    
C140  C256  1.491257 S    
C80   H36   1.082995 S    
C145  H69   1.083549 S    
C108  H64   1.083685 S    
O27   C22   1.279575 A    
C29   C170  1.472923 S    
C202  C218  1.400976 A    
C249  O85   1.223602 D    
C59   C235  1.490285 S    
C143  H67   1.083549 S    
O9    C25   1.279610 A    
C86   H42   1.082992 S    
Zn4   O6    1.927140 S    
C31   C172  1.472995 S    
C2    C38   1.403690 A    
O84   H112  1.013672 S    
C55   C63   1.403118 A    
C80   C96   1.391875 A    
C248  O83   1.223599 D    
C83   H39   1.082998 S    
C79   C159  1.400838 A    
C250  O88   1.397506 S    
C234  O56   1.398700 S    
O37   C41   1.279041 A    
C52   C70   1.400428 A    
C140  C156  1.404332 A    
C226  C228  1.391476 A    
C58   C234  1.490027 S    
O100  H120  1.013708 S    
C10   C18   1.402659 A    
C1    C9    1.391601 A    
N7    C76   1.357396 A    
C107  C123  1.401146 A    
Zn7   O16   1.927148 S    
C63   C239  1.490203 S    
Zn8   O15   1.927150 S    
C187  C220  1.406381 A    
C203  H95   1.083484 S    
C188  C219  1.406424 A    
O48   C46   1.281867 A    
O41   C43   1.279038 A    
O94   H117  1.013672 S    
C104  C120  1.401148 A    
O32   C33   1.281151 A    
C89   C105  1.391990 A    
C246  O80   1.397499 S    
C183  C191  1.395340 A    
C184  C215  1.406384 A    
Zn1   O1    1.937061 S    
C38   C41   1.467018 S    
C146  C162  1.403853 A    
C4    H4    1.083024 S    
C195  H87   1.083483 S    
C124  C140  1.417417 A    
C89   C169  1.400833 A    
C27   C160  1.472885 S    
C54   H22   1.083746 S    
C92   H48   1.083000 S    
C85   C165  1.400826 A    
C66   C73   1.475223 S    
C179  Br7   1.918126 S    
O68   H104  1.013949 S    
C120  C136  1.417516 A    
C174  C205  1.406386 A    
C121  C137  1.417443 A    
C240  O67   1.222858 D    
C50   C70   1.400227 A    
O86   H113  1.013676 S    
C155  C171  1.403859 A    
H30   C230  1.083087 S    
C191  C207  1.400969 A    
C15   H15   1.083113 S    
C21   C162  1.472920 S    
C237  O61   1.223451 D    
O98   H119  1.013676 S    
C23   C164  1.472945 S    
C6    C40   1.403688 A    
C221  C226  1.402959 A    
C106  C122  1.401151 A    
C24   C163  1.472855 S    
C4    C37   1.403689 A    
C94   C110  1.401145 A    
C177  C201  1.395350 A    
O82   H111  1.013726 S    
C8    H8    1.083027 S    
C154  C170  1.403854 A    
C175  C199  1.395339 A    
Zn14  O30   1.927294 S    
O12   C28   1.281240 A    
Zn8   O50   1.926778 S    
O38   C42   1.279055 A    
C16   H16   1.083120 S    
C59   C65   1.422000 A    
C53   H21   1.083752 S    
C128  C244  1.491332 S    
C255  O97   1.223601 D    
C182  Br10  1.918106 S    
C238  O64   1.398697 S    
C118  C134  1.417516 A    
Zn3   O45   1.926778 S    
C101  H57   1.083686 S    
C79   H35   1.083000 S    
Zn11  O26   1.927346 S    
O34   C31   1.279580 A    
C77   H33   1.082994 S    
O52   C48   1.281870 A    
C49   C69   1.400239 A    
C112  C128  1.417518 A    
O31   C34   1.279515 A    
C113  C129  1.417442 A    
C236  O60   1.398943 S    
C187  C195  1.395367 A    
Zn12  O1    1.938074 S    
Zn1   O12   1.927180 S    
C26   C157  1.472927 S    
C119  C135  1.417441 A    
Zn2   O11   1.927178 S    
O8    C24   1.279642 A    
C67   C76   1.475223 S    
C108  C124  1.401217 A    
O26   C23   1.279568 A    
C68   C75   1.475116 S    
N6    C75   1.357395 A    
C153  H77   1.083548 S    
C245  O78   1.397505 S    
C84   C164  1.400834 A    
O70   H105  1.013676 S    
C95   C111  1.401210 A    
C251  O89   1.223599 D    
C124  C219  1.468512 S    
C242  O72   1.397504 S    
C179  C203  1.395361 A    
C121  C218  1.468482 S    
C6    H6    1.083023 S    
C145  C161  1.403871 A    
C237  O62   1.398698 S    
N4    C73   1.357395 A    
Zn14  O42   1.926864 S    
C60   C66   1.421992 A    
Zn13  O3    1.938046 S    
C54   C72   1.400232 A    
O66   H103  1.013949 S    
Zn14  O4    1.938044 S    
C110  C126  1.417512 A    
C192  C208  1.400980 A    
C141  H65   1.083552 S    
C115  C131  1.417534 A    
O28   C21   1.281214 A    
C144  H68   1.083551 S    
Zn6   O18   1.927190 S    
O62   H101  1.013857 S    
C247  O81   1.223618 D    
C147  C163  1.403838 A    
Zn7   O49   1.926778 S    
Zn13  O36   1.927351 S    
Zn14  O35   1.927353 S    
C127  C143  1.404348 A    
H28   C228  1.083086 S    
C119  C216  1.468491 S    
O40   C41   1.279052 A    
C182  C213  1.406387 A    
C148  C164  1.403882 A    
C3    C11   1.391601 A    
C128  C144  1.404456 A    
C105  C121  1.401205 A    
C151  H75   1.083548 S    
Zn9   O37   1.926864 S    
C116  C211  1.468479 S    
Zn11  O39   1.926849 S    
Zn12  O25   1.927344 S    
O14   C30   1.281303 A    
H31   C231  1.083086 S    
C204  C220  1.400970 A    
Zn15  O43   1.926849 S    
C146  H70   1.083554 S    
O44   C43   1.279055 A    
H26   C226  1.083087 S    
C117  C133  1.417449 A    
C222  C225  1.402971 A    
C224  C229  1.402963 A    
C200  C216  1.400983 A    
C91   C171  1.400835 A    
O24   C25   1.281150 A    
Zn5   O3    1.937061 S    
C199  H91   1.083488 S    
C201  C217  1.400968 A    
C176  C200  1.395367 A    
Zn6   O4    1.937058 S    
C49   H17   1.083751 S    
Zn8   O14   1.927140 S    
C86   C102  1.391878 A    
C5    C13   1.391610 A    
C123  C220  1.468472 S    
C100  H56   1.083684 S    
C188  Br16  1.918156 S    
C81   C161  1.400835 A    
C7    H7    1.083021 S    
C46   C70   1.480473 S    
Zn16  O3    1.938074 S    
C123  C139  1.417504 A    
C51   C69   1.400415 A    
C113  C210  1.468484 S    
O20   C36   1.281243 A    
C102  H58   1.083690 S    
C183  C216  1.406387 A    
O33   C32   1.281229 A    
C57   C233  1.490089 S    
C249  O86   1.397506 S    
C189  H81   1.083485 S    
C143  C159  1.403868 A    
C178  C209  1.406381 A    
C57   C65   1.420681 A    
O5    C21   1.279651 A    
C18   C221  1.469727 S    
C50   C58   1.404096 A    
C188  C196  1.395329 A    
O17   C33   1.279608 A    
O25   C24   1.281210 A    
C2    H2    1.083021 S    
O19   C35   1.279611 A    
Zn16  O32   1.927291 S    
Zn15  O31   1.927289 S    
C15   C20   1.402667 A    
O78   H109  1.013673 S    
C56   H24   1.083557 S    
C150  C166  1.403847 A    
C12   C17   1.402668 A    
C109  C206  1.468491 S    
O96   H118  1.013677 S    
C79   C95   1.391992 A    
C116  C132  1.417447 A    
C55   H23   1.083565 S    
C254  O95   1.223607 D    
Zn8   O4    1.937249 S    
C77   C93   1.391995 A    
C180  C204  1.395344 A    
C45   C69   1.480451 S    
C256  O99   1.223606 D    
C122  C217  1.468473 S    
C103  H59   1.083685 S    
C81   C97   1.391991 A    
C35   C168  1.472895 S    
C36   C167  1.472938 S    
C50   H18   1.083746 S    
C129  C245  1.491320 S    
O92   H116  1.013676 S    
C122  C138  1.417504 A    
C118  C213  1.468489 S    
C196  C212  1.400959 A    
C252  O91   1.223604 D    
Zn15  O34   1.927346 S    
C239  O66   1.398947 S    
C32   C171  1.472928 S    
O21   C28   1.279522 A    
C10   H10   1.083116 S    
C22   C161  1.472945 S    
C244  O76   1.397500 S    
C185  C193  1.395348 A    
C192  H84   1.083481 S    
O23   C26   1.279512 A    
C156  C172  1.403918 A    
C175  Br3   1.918115 S    
C156  H80   1.083549 S    
O88   H114  1.013675 S    
C250  O87   1.223607 D    
O10   C26   1.281259 A    
C84   C100  1.391990 A    
C16   C19   1.402661 A    
N8    C75   1.357376 A    
C103  C119  1.401209 A    
C185  C218  1.406385 A    
C181  C189  1.395347 A    
Zn6   O52   1.926873 S    
C233  O54   1.398699 S    
C147  H71   1.083553 S    
C19   C224  1.469727 S    
Zn1   O9    1.927187 S    
C148  H72   1.083550 S    
C141  C157  1.403873 A    
Zn1   O47   1.926873 S    
N2    C73   1.357421 A    
C4    C12   1.391605 A    
Zn2   O48   1.926873 S    
O50   C48   1.282089 A    
C243  O74   1.397503 S    
C155  H79   1.083550 S    
C181  Br9   1.918115 S    
C235  O58   1.398948 S    
C175  C208  1.406389 A    
C49   C57   1.404097 A    
C190  H82   1.083483 S    
O80   H110  1.013674 S    
C34   C165  1.472918 S    
C246  O79   1.223606 D    
O6    C22   1.281303 A    
C114  C130  1.417504 A    
C115  C212  1.468426 S    
C11   H11   1.083118 S    
C30   C169  1.472945 S    
C61   C67   1.420694 A    
C62   C68   1.420679 A    
C92   C172  1.400854 A    
C11   C18   1.402660 A    
C85   H41   1.082995 S    
O76   H108  1.013677 S    
C154  H78   1.083553 S    
C151  C167  1.403869 A    
N5    N8    1.331710 A    
C198  C214  1.400978 A    
Zn9   O21   1.927297 S    
C244  O75   1.223606 D    
C129  C145  1.404362 A    
C137  C153  1.404361 A    
C88   C168  1.400838 A    
Zn11  O23   1.927289 S    
Zn12  O40   1.926849 S    
C8    C16   1.391601 A    
N3    C74   1.357381 A    
Zn9   O1    1.938046 S    
C84   H40   1.082993 S    
C112  C207  1.468476 S    
C253  O94   1.397504 S    
Zn3   O5    1.927142 S    
C2    C10   1.391610 A    
C9    C17   1.402665 A    
C142  H66   1.083555 S    
N1    N4    1.331698 A    
C83   C163  1.400805 A    
Zn9   O28   1.927351 S    
C173  Br1   1.918112 S    
Zn10  O27   1.927353 S    
C8    C39   1.403692 A    
C96   H52   1.083695 S    
O51   C47   1.281892 A    
Zn2   O2    1.937058 S    
C152  H76   1.083553 S    
C90   C106  1.391888 A    
O45   C45   1.282054 A    
C132  C148  1.404354 A    
C127  C243  1.491311 S    
C77   C157  1.400824 A    
C182  C190  1.395364 A    
Zn4   O46   1.926778 S    
C96   C112  1.401146 A    
C101  C117  1.401213 A    
C37   C42   1.467005 S    
C90   C170  1.400843 A    
C222  C228  1.402969 A    
C110  C205  1.468488 S    
C238  O63   1.223449 D    
C189  C205  1.400969 A    
C86   C166  1.400831 A    
O30   C35   1.281127 A    
C241  O69   1.223602 D    
Zn10  O38   1.926864 S    
C53   C71   1.400241 A    
C62   C238  1.490077 S    
O60   H100  1.013950 S    
C136  C152  1.404456 A    
C99   C115  1.401157 A    
C89   H45   1.082994 S    
C92   C108  1.391992 A    
C56   C72   1.400432 A    
C236  O59   1.222856 D    
C39   C44   1.467005 S    
C184  C192  1.395366 A    
O22   C27   1.281127 A    
C14   H14   1.083115 S    
C193  H85   1.083482 S    
C204  H96   1.083482 S    
