data_mof_unit_56840.cif
_audit_creation_date              2013-03-05T15:49:32-0500
_audit_creation_method            fapswitch 2.2
_symmetry_space_group_name_H-M    P1
_symmetry_Int_Tables_number       1
_space_group_crystal_system       triclinic
_cell_length_a                    10.518715
_cell_length_b                    12.136777
_cell_length_c                    12.998236
_cell_angle_alpha                 92.36186
_cell_angle_beta                  90.823228
_cell_angle_gamma                 83.53119
_cell_volume                      1647.35310111

loop_
_atom_site_label
_atom_site_type_symbol
_atom_site_description
_atom_site_fract_x
_atom_site_fract_y
_atom_site_fract_z
_atom_type_partial_charge
O1    O     O_R   0.506170 0.421700 0.658830 -0.512059
O2    O     O_R   0.493830 0.578300 0.341170 -0.514999
O3    O     O_R   0.491330 0.609310 0.646410 -0.657293
O4    O     O_R   0.508670 0.390690 0.353590 -0.645713
C1    C     C_R   0.489374 0.520922 0.700149 0.941755
C2    C     C_R   0.508492 0.478585 0.299529 0.949199
O5    O     O_R   0.690650 0.406190 0.506220 -0.549105
O6    O     O_R   0.309350 0.593810 0.493780 -0.552218
O7    O     O_R   0.675800 0.593810 0.493800 -0.641174
O8    O     O_R   0.324200 0.406190 0.506200 -0.635977
C3    C     C_R   0.741304 0.494429 0.487221 0.916323
C4    C     C_R   0.258499 0.505658 0.512104 0.909930
Zn1   Zn    Zn3+2 0.509910 0.374730 0.508290 1.053753
Zn2   Zn    Zn3+2 0.490090 0.625270 0.491710 1.049719
C5    C     C_R   0.937124 0.283204 0.518715 0.429649
C6    C     C_R   0.065567 0.716347 0.472939 0.429144
C7    C     C_R   0.003308 0.213924 0.592129 -0.049369
C8    C     C_R   0.000688 0.783442 0.397233 -0.031349
C9    C     C_R   0.089299 0.259283 0.661532 0.348305
C10   C     C_R   0.912688 0.737229 0.330305 0.350696
C11   C     C_R   0.120597 0.366822 0.648547 0.330656
C12   C     C_R   0.878942 0.631286 0.347235 0.338089
C13   C     C_R   0.067021 0.428530 0.566652 -0.178254
C14   C     C_R   0.932076 0.571817 0.430598 -0.172481
C15   C     C_R   0.958658 0.396381 0.516535 -0.086170
C16   C     C_R   0.041537 0.603905 0.479441 -0.092736
C17   C     C_R   0.120035 0.521181 0.532547 -0.003954
C18   C     C_R   0.879403 0.479337 0.465146 0.004398
C19   C     C_R   0.524509 0.466280 0.187667 -0.175212
C20   C     C_R   0.468839 0.530473 0.811516 -0.173154
C21   C     C_R   0.402772 0.633395 0.969470 0.192046
C22   C     C_R   0.584313 0.359835 0.030318 0.189622
C23   C     C_R   0.410997 0.629567 0.861301 0.089630
C24   C     C_R   0.569218 0.362802 0.137621 0.086732
C25   C     C_R   0.497674 0.434627 0.869353 0.388967
C26   C     C_R   0.499635 0.561520 0.128553 0.383427
C27   C     C_R   0.519953 0.447097 0.974101 -0.063104
C28   C     C_R   0.473418 0.548105 0.024465 -0.064432
N1    N     N_R   0.523130 0.207800 0.519340 -0.145847
N2    N     N_R   0.476870 0.792200 0.480660 -0.140641
C29   C     C_R   0.411876 0.955379 0.386158 0.263090
C30   C     C_R   0.609964 0.045767 0.608594 0.271203
C31   C     C_R   0.406853 0.842611 0.403645 0.522678
C32   C     C_R   0.605931 0.159544 0.589647 0.524860
C33   C     C_R   0.549064 0.854848 0.546911 0.203205
C34   C     C_R   0.445993 0.143222 0.461394 0.219333
C35   C     C_R   0.542938 0.974013 0.540770 -0.136451
C36   C     C_R   0.467527 0.024574 0.461077 -0.142809
Cl1   Cl    Cl    0.840780 0.812904 0.227228 -0.430162
Cl2   Cl    Cl    0.162734 0.180392 0.761995 -0.433987
Cl3   Cl    Cl    0.374989 0.999726 0.259723 -0.512426
Cl4   Cl    Cl    0.693916 0.006553 0.723486 -0.547210
Cl5   Cl    Cl    0.850364 0.224229 0.417017 -0.632479
Cl6   Cl    Cl    0.151747 0.779036 0.572869 -0.633594
C37   C     C_3   0.980938 0.094049 0.601027 -0.599052
H1    H     H_    0.071429 0.040152 0.585509 0.243705
H2    H     H_    0.950064 0.080275 0.680297 0.307002
H3    H     H_    0.905446 0.068160 0.548335 0.250533
C38   C     C_3   0.026256 0.901955 0.383454 -0.618960
H4    H     H_    0.936922 0.958206 0.396751 0.249106
H5    H     H_    0.102192 0.928854 0.435145 0.247065
H6    H     H_    0.058286 0.911408 0.303601 0.292985
Cl7   Cl    Cl    0.203086 0.434533 0.746031 -0.527420
Cl8   Cl    Cl    0.795690 0.560951 0.251839 -0.518175
Cl9   Cl    Cl    0.537122 0.694959 0.172508 -0.410236
Cl10  Cl    Cl    0.466648 0.300219 0.821777 -0.426406
C39   C     C_3   0.607241 0.258705 0.196803 -0.651378
H7    H     H_    0.644180 0.185518 0.148105 0.248233
H8    H     H_    0.683098 0.274372 0.253659 0.286953
H9    H     H_    0.522480 0.233281 0.235424 0.259338
C40   C     C_3   0.346980 0.724014 0.799335 -0.655942
H10   H     H_    0.293011 0.791752 0.845421 0.243913
H11   H     H_    0.419225 0.764244 0.758222 0.247713
H12   H     H_    0.278509 0.690734 0.743951 0.286281
C41   C     C_3   0.308360 0.719352 0.024270 -0.645252
H13   H     H_    0.213062 0.721920 0.986013 0.236764
H14   H     H_    0.291267 0.698321 0.104678 0.273653
H15   H     H_    0.342894 0.802487 0.023987 0.282488
C42   C     C_3   0.680265 0.272531 0.978941 -0.634176
H16   H     H_    0.769467 0.261423 0.025970 0.239372
H17   H     H_    0.639713 0.192080 0.969526 0.283695
H18   H     H_    0.709978 0.298100 0.902718 0.271199
C43   C     C_3   0.321550 0.197432 0.418215 -0.652616
H19   H     H_    0.338056 0.259448 0.361152 0.255769
H20   H     H_    0.257979 0.139495 0.383535 0.240416
H21   H     H_    0.262376 0.233628 0.483268 0.215177
C44   C     C_3   0.639146 0.799094 0.624997 -0.645399
H22   H     H_    0.650766 0.710360 0.624467 0.259618
H23   H     H_    0.737485 0.820550 0.612554 0.242135
H24   H     H_    0.604160 0.822206 0.703590 0.252255
Cl11  Cl    Cl    0.702447 0.242859 0.663812 -0.521158
Cl12  Cl    Cl    0.307439 0.766623 0.325717 -0.541248

loop_
_geom_bond_atom_site_label_1
_geom_bond_atom_site_label_2
_geom_bond_distance
_ccdc_geom_bond_type
C37   H1    1.108576 S    
O7    Zn2   1.947739 S    
C15   C18   1.416039 A    
O5    C3    1.282944 A    
C19   C26   1.412187 A    
C16   C17   1.421351 A    
C10   Cl1   1.768197 S    
C20   C25   1.412932 A    
O1    C1    1.292803 A    
C5    Cl5   1.768367 S    
C33   C44   1.506795 S    
C14   C16   1.392865 A    
C5    C15   1.418589 A    
O4    Zn1   2.027781 S    
N2    C31   1.358910 A    
C35   C36   1.413471 A    
C21   C23   1.408434 A    
C13   C17   1.400507 A    
C7    C37   1.509058 S    
C38   H4    1.108759 S    
C29   C31   1.403531 A    
O2    C2    1.299121 A    
C30   C32   1.408486 A    
C33   C35   1.445899 A    
C6    C16   1.421704 A    
N2    C33   1.397750 A    
C34   C36   1.432129 A    
C38   H5    1.105123 S    
Zn1   N1    2.025965 S    
C4    C17   1.473964 S    
C39   H7    1.106167 S    
O4    C2    1.301175 A    
C42   H17   1.110323 S    
C26   Cl9   1.779304 S    
C25   Cl10  1.783544 S    
C12   Cl8   1.755881 S    
C19   C24   1.424759 A    
C34   C43   1.508826 S    
C39   H8    1.106640 S    
C22   C24   1.404547 A    
C41   H13   1.110403 S    
C27   C28   1.406725 A    
C40   H12   1.107608 S    
O7    C3    1.320154 A    
C21   C41   1.519081 S    
C43   H19   1.107232 S    
O6    C4    1.281048 A    
C43   H21   1.103762 S    
C22   C27   1.414901 A    
C41   H14   1.107958 S    
C32   Cl11  1.762187 S    
O8    C4    1.321654 A    
N1    C34   1.384564 A    
C43   H20   1.102706 S    
C10   C12   1.398616 A    
C37   H2    1.109551 S    
C12   C14   1.401280 A    
C37   H3    1.105092 S    
O1    Zn1   2.015101 S    
C40   H11   1.103746 S    
C1    C20   1.464604 S    
C5    C7    1.420357 A    
C38   H6    1.110219 S    
O6    Zn2   1.981609 S    
C20   C23   1.420444 A    
C25   C27   1.383273 A    
C14   C18   1.399020 A    
O3    C1    1.306241 A    
O8    Zn1   1.947738 S    
C24   C39   1.518338 S    
C42   H18   1.109813 S    
N1    C32   1.357593 A    
O3    Zn2   2.027782 S    
C31   Cl12  1.754965 S    
C21   C28   1.416723 A    
C39   H9    1.108943 S    
C11   C13   1.401786 A    
C40   H10   1.104998 S    
C22   C42   1.519029 S    
C9    Cl2   1.768074 S    
C3    C18   1.474351 S    
C26   C28   1.383576 A    
C7    C9    1.408142 A    
C29   C36   1.422412 A    
C8    C10   1.407783 A    
C30   C35   1.445637 A    
C13   C15   1.390602 A    
O2    Zn2   2.015100 S    
C41   H15   1.110393 S    
C6    Cl6   1.768598 S    
C11   Cl7   1.754157 S    
C23   C40   1.517484 S    
Zn2   N2    2.025967 S    
C42   H16   1.110881 S    
C8    C38   1.510993 S    
O5    Zn1   1.981610 S    
C2    C19   1.465721 S    
C44   H22   1.069831 S    
C6    C8    1.420810 A    
C44   H24   1.105267 S    
C44   H23   1.110371 S    
C29   Cl3   1.774444 S    
C30   Cl4   1.778354 S    
C9    C11   1.398903 A    
