data_mof_unit_30149.cif
_audit_creation_date              2012-12-11T14:08:17-0500
_audit_creation_method            fapswitch 2.2
_symmetry_space_group_name_H-M    P1
_symmetry_Int_Tables_number       1
_space_group_crystal_system       triclinic
_cell_length_a                    28.101856
_cell_length_b                    7.177758
_cell_length_c                    17.395902
_cell_angle_alpha                 90.000172
_cell_angle_beta                  101.904793
_cell_angle_gamma                 90.003556
_cell_volume                      3433.42786716

loop_
_atom_site_label
_atom_site_type_symbol
_atom_type_description
_atom_site_fract_x
_atom_site_fract_y
_atom_site_fract_z
_atom_type_partial_charge
O1    O     O_R   0.000700 0.436510 0.857920 -0.559360
O2    O     O_R   0.999300 0.563490 0.142080 -0.559403
O3    O     O_R   0.999300 0.936510 0.642080 -0.559369
O4    O     O_R   0.000700 0.063490 0.357920 -0.559408
O5    O     O_R   0.930080 0.766380 0.721890 -0.549226
O6    O     O_R   0.069920 0.233620 0.278110 -0.540889
O7    O     O_R   0.069920 0.266380 0.778110 -0.549227
O8    O     O_R   0.930080 0.733620 0.221890 -0.540890
C1    C     C_R   0.910589 0.597538 0.709177 0.700207
C2    C     C_R   0.089347 0.402791 0.287333 0.709674
C3    C     C_R   0.089412 0.097549 0.790819 0.700205
C4    C     C_R   0.910653 0.902781 0.212667 0.709661
O9    O     O_R   0.996180 0.766230 0.862310 -0.522237
O10   O     O_R   0.003820 0.233770 0.137690 -0.526780
O11   O     O_R   0.003820 0.266230 0.637690 -0.522239
O12   O     O_R   0.996180 0.733770 0.362310 -0.526780
O13   O     O_R   0.065870 0.936460 0.783500 -0.533384
O14   O     O_R   0.934130 0.063540 0.216500 -0.536951
O15   O     O_R   0.934130 0.436460 0.716500 -0.533389
O16   O     O_R   0.065870 0.563540 0.283500 -0.536956
C5    C     C_R   0.999289 0.595976 0.894407 0.739444
C6    C     C_R   0.000737 0.404092 0.105602 0.739754
C7    C     C_R   0.000711 0.095975 0.605593 0.739428
C8    C     C_R   0.999263 0.904093 0.394398 0.739762
O17   O     O_3   0.022790 0.603020 0.723980 -0.383341
O18   O     O_3   0.977210 0.396980 0.276020 -0.383443
O19   O     O_3   0.977210 0.103020 0.776020 -0.383336
O20   O     O_3   0.022790 0.896980 0.223980 -0.383444
V1    V     V_3+5 0.995770 0.877900 0.754830 1.415285
V2    V     V_3+5 0.004230 0.122100 0.245170 1.453442
V3    V     V_3+5 0.004230 0.377900 0.745170 1.415288
V4    V     V_3+5 0.995770 0.622100 0.254830 1.453450
C9    C     C_2   0.997064 0.082948 0.519174 -0.262138
C10   C     C_2   0.002867 0.917429 0.480787 -0.263841
C11   C     C_2   0.002935 0.582950 0.980826 -0.262144
C12   C     C_2   0.997133 0.417427 0.019212 -0.263848
C13   C     C_R   0.683549 0.066346 0.071302 0.630933
C14   C     C_R   0.313815 0.955209 0.975108 0.558070
C15   C     C_R   0.316459 0.566381 0.428723 0.630959
C16   C     C_R   0.686184 0.455128 0.524812 0.558088
O21   O     O_2   0.714078 0.160582 0.034760 -0.507288
O22   O     O_2   0.283033 0.844606 0.004451 -0.525138
O23   O     O_2   0.285938 0.660590 0.465286 -0.507257
O24   O     O_2   0.716955 0.344504 0.495457 -0.525112
N1    N     N_R   0.702042 0.953660 0.133602 -0.541103
N2    N     N_R   0.295814 0.076079 0.915410 -0.568919
N3    N     N_R   0.297957 0.453733 0.366408 -0.541111
N4    N     N_R   0.704198 0.576010 0.584503 -0.568946
C17   C     C_R   0.671956 0.856345 0.171892 0.669162
C18   C     C_R   0.325984 0.192469 0.885303 0.600069
C19   C     C_R   0.328034 0.356441 0.328099 0.669155
C20   C     C_R   0.674041 0.692432 0.614617 0.600216
C21   C     C_R   0.780381 0.032919 0.225511 -0.026115
C22   C     C_R   0.223595 0.951297 0.821793 -0.045629
C23   C     C_R   0.219620 0.533036 0.274516 -0.026108
C24   C     C_R   0.776407 0.451155 0.678102 -0.045603
C25   C     C_R   0.831841 0.016371 0.245514 0.164988
C26   C     C_R   0.172466 0.953005 0.791688 0.235012
C27   C     C_R   0.168160 0.516466 0.254506 0.164988
C28   C     C_R   0.827531 0.452910 0.708245 0.235040
C29   C     C_R   0.830180 0.817571 0.131639 -0.210253
C30   C     C_R   0.164948 0.216862 0.876581 -0.253888
C31   C     C_R   0.169817 0.317585 0.368356 -0.210261
C32   C     C_R   0.835065 0.716830 0.623391 -0.253929
C33   C     C_R   0.779574 0.828958 0.113093 -0.090954
C34   C     C_R   0.214686 0.209600 0.908319 -0.076190
C35   C     C_R   0.220423 0.328994 0.386907 -0.090950
C36   C     C_R   0.785331 0.709546 0.591627 -0.076143
C37   C     C_R   0.754243 0.937267 0.158437 0.311397
C38   C     C_R   0.244222 0.077334 0.882092 0.261015
C39   C     C_R   0.245756 0.437352 0.341578 0.311391
C40   C     C_R   0.755790 0.577229 0.617817 0.260995
C41   C     C_R   0.601072 0.989977 0.084263 -0.096741
C42   C     C_R   0.396303 0.058748 0.974306 -0.115998
C43   C     C_R   0.398929 0.490019 0.415733 -0.096740
C44   C     C_R   0.603705 0.558693 0.525650 -0.115984
C45   C     C_R   0.633053 0.085205 0.045159 -0.021466
C46   C     C_R   0.364203 0.943837 0.005409 -0.039364
C47   C     C_R   0.366957 0.585229 0.454857 -0.021479
C48   C     C_R   0.635794 0.443772 0.494530 -0.039415
C49   C     C_R   0.614164 0.196868 0.980340 -0.121990
C50   C     C_R   0.382999 0.817704 0.065245 -0.127252
C51   C     C_R   0.385857 0.696864 0.519687 -0.121930
C52   C     C_R   0.616984 0.317648 0.434694 -0.127199
C53   C     C_R   0.620590 0.876579 0.149691 -0.073352
C54   C     C_R   0.377040 0.187765 0.914353 -0.080186
C55   C     C_R   0.379401 0.376654 0.350294 -0.073341
C56   C     C_R   0.622983 0.687701 0.585602 -0.080227
C57   C     C_R   0.856876 0.913555 0.196391 -0.081966
C58   C     C_R   0.143055 0.089129 0.818924 -0.121809
C59   C     C_R   0.143123 0.413595 0.303614 -0.081968
C60   C     C_R   0.856948 0.589088 0.681046 -0.121800
H1    H     H_    0.848702 0.735738 0.094427 0.148868
H2    H     H_    0.143153 0.320570 0.898686 0.136531
H3    H     H_    0.151293 0.235712 0.405557 0.148877
H4    H     H_    0.856865 0.820572 0.601310 0.136522
H5    H     H_    0.759771 0.755569 0.062007 0.154346
H6    H     H_    0.230507 0.308130 0.953567 0.140213
H7    H     H_    0.240225 0.255578 0.437984 0.154363
H8    H     H_    0.769517 0.808103 0.546389 0.140223
H9    H     H_    0.637955 0.268833 0.948465 0.175462
H10   H     H_    0.359133 0.726662 0.089589 0.173585
H11   H     H_    0.362072 0.768818 0.551576 0.175478
H12   H     H_    0.640842 0.226598 0.410336 0.173599
C61   C     C_R   0.479756 0.152942 0.968919 -0.004331
C62   C     C_R   0.517558 0.908063 0.095309 -0.003779
C63   C     C_R   0.520261 0.652900 0.531078 -0.004390
C64   C     C_R   0.482435 0.408089 0.404663 -0.003791
C65   C     C_R   0.466288 0.918035 0.065249 0.060274
C66   C     C_R   0.530963 0.128200 0.993329 0.063309
C67   C     C_R   0.533706 0.418027 0.434715 0.060341
C68   C     C_R   0.469051 0.628186 0.506675 0.063296
C69   C     C_R   0.447601 0.043490 0.003016 0.055614
C70   C     C_R   0.549697 0.008813 0.057666 0.062958
C71   C     C_R   0.552406 0.543458 0.496956 0.055652
C72   C     C_R   0.450306 0.508833 0.442324 0.062958
C73   C     C_R   0.459590 0.286271 0.911884 -0.250733
C74   C     C_R   0.537881 0.802720 0.162758 -0.252863
C75   C     C_R   0.540442 0.786162 0.588141 -0.250651
C76   C     C_R   0.462101 0.302783 0.337204 -0.252871
C77   C     C_R   0.409461 0.305749 0.885093 0.301581
C78   C     C_R   0.588221 0.788420 0.190626 0.300309
C79   C     C_R   0.590573 0.805636 0.614905 0.301489
C80   C     C_R   0.411760 0.288502 0.309344 0.300310
O25   O     O_2   0.306493 0.309512 0.826575 -0.484408
O26   O     O_2   0.691849 0.739992 0.230618 -0.483327
O27   O     O_2   0.693550 0.809546 0.673313 -0.484374
O28   O     O_2   0.308131 0.240130 0.269356 -0.483335
C81   C     C_R   0.564332 0.217261 0.954617 -0.183162
C82   C     C_R   0.432834 0.804734 0.094547 -0.197250
C83   C     C_R   0.435691 0.717245 0.545402 -0.183135
C84   C     C_R   0.567148 0.304709 0.405402 -0.197184
H13   H     H_    0.481880 0.384385 0.888460 0.124780
H14   H     H_    0.515448 0.735303 0.197759 0.123347
H15   H     H_    0.518164 0.884189 0.611629 0.124815
H16   H     H_    0.484527 0.235379 0.302190 0.123349
H17   H     H_    0.553240 0.300578 0.902537 0.120542
H18   H     H_    0.444014 0.700250 0.139004 0.120348
H19   H     H_    0.446789 0.800556 0.597486 0.120529
H20   H     H_    0.555959 0.200233 0.360939 0.120326
C85   C     C_2   0.985233 0.262274 0.476854 0.418958
H21   H     H_    0.010199 0.323665 0.444086 0.105753
O29   O     O_2   0.947985 0.345790 0.480905 -0.550516
C86   C     C_2   0.014932 0.738566 0.523255 0.435852
H22   H     H_    0.989738 0.675708 0.555227 0.099513
O30   O     O_2   0.052770 0.657705 0.520546 -0.537321
C87   C     C_2   0.014761 0.762286 0.023146 0.418977
H23   H     H_    0.989793 0.823658 0.055910 0.105748
O31   O     O_2   0.052009 0.845827 0.019098 -0.550523
C88   C     C_2   0.985070 0.238557 0.976744 0.435881
H24   H     H_    0.010267 0.175713 0.944776 0.099512
O32   O     O_2   0.947233 0.157677 0.979449 -0.537327
N5    N     N_2   0.151359 0.821001 0.733165 -0.471424
H25   H     H_    0.121849 0.867901 0.692324 0.259849
C89   C     C_3   0.144763 0.636163 0.762751 -0.346472
H26   H     H_    0.119395 0.640118 0.803913 0.170375
H27   H     H_    0.180005 0.577468 0.793995 0.194838
H28   H     H_    0.129584 0.542353 0.712965 0.201429
N6    N     N_2   0.857730 0.098652 0.316556 -0.540991
H29   H     H_    0.888611 0.171262 0.312021 0.290809
C90   C     C_3   0.865041 0.975189 0.383710 -0.532529
H30   H     H_    0.889242 0.857796 0.375329 0.184795
H31   H     H_    0.829655 0.919185 0.392396 0.207787
H32   H     H_    0.882163 0.053098 0.437412 0.224608
N7    N     N_2   0.848628 0.320906 0.766770 -0.471432
H33   H     H_    0.878128 0.367820 0.807630 0.259851
C91   C     C_3   0.855237 0.136083 0.737183 -0.346505
H34   H     H_    0.880615 0.140079 0.696037 0.170377
H35   H     H_    0.820001 0.077357 0.705921 0.194851
H36   H     H_    0.870410 0.042276 0.786971 0.201431
N8    N     N_2   0.142273 0.598773 0.183471 -0.540998
H37   H     H_    0.111394 0.671373 0.188009 0.290817
C92   C     C_3   0.134962 0.475342 0.116304 -0.532505
H38   H     H_    0.110757 0.357936 0.124672 0.184775
H39   H     H_    0.170347 0.419353 0.107617 0.207791
H40   H     H_    0.117844 0.553274 0.062608 0.224630
C93   C     C_2   0.256391 0.823598 0.789680 0.495598
H41   H     H_    0.292241 0.792828 0.823676 0.033767
O33   O     O_2   0.244527 0.755638 0.724188 -0.476122
C94   C     C_2   0.755330 0.154749 0.274382 0.450409
H42   H     H_    0.774965 0.207858 0.330349 0.112164
O34   O     O_2   0.712953 0.201694 0.252572 -0.516887
C95   C     C_2   0.743604 0.323359 0.710160 0.495430
H43   H     H_    0.707776 0.292455 0.676107 0.033920
O35   O     O_2   0.755440 0.255452 0.775664 -0.476127
C96   C     C_2   0.244672 0.654916 0.225661 0.450387
H44   H     H_    0.225039 0.708051 0.169700 0.112154
O36   O     O_2   0.287049 0.701874 0.247479 -0.516890
N9    N     N_2   0.392504 0.447753 0.829079 -0.455715
H45   H     H_    0.411950 0.455519 0.784923 0.250673
C97   C     C_3   0.388057 0.627876 0.864114 -0.469230
H46   H     H_    0.374505 0.731297 0.817288 0.192141
H47   H     H_    0.423992 0.675988 0.897655 0.175119
H48   H     H_    0.362001 0.619790 0.904092 0.209619
N10   N     N_2   0.605618 0.690059 0.261961 -0.453162
H49   H     H_    0.585548 0.572999 0.268702 0.258340
C98   C     C_3   0.613650 0.807395 0.331087 -0.446375
H50   H     H_    0.632626 0.726509 0.382597 0.209696
H51   H     H_    0.578340 0.857545 0.342531 0.155874
H52   H     H_    0.636867 0.928701 0.323665 0.214538
N11   N     N_2   0.607552 0.947469 0.670993 -0.455725
H53   H     H_    0.588200 0.954743 0.715276 0.250746
C99   C     C_3   0.611853 0.127862 0.636086 -0.469231
H54   H     H_    0.625547 0.230987 0.682972 0.192315
H55   H     H_    0.575833 0.176054 0.602902 0.174986
H56   H     H_    0.637744 0.120198 0.595816 0.209465
N12   N     N_2   0.394354 0.190147 0.238008 -0.453140
H57   H     H_    0.414413 0.073069 0.231266 0.258355
C100  C     C_3   0.386333 0.307478 0.168881 -0.446402
H58   H     H_    0.367354 0.226594 0.117368 0.209690
H59   H     H_    0.421646 0.357614 0.157443 0.155870
H60   H     H_    0.363122 0.428794 0.176302 0.214527

loop_
_geom_bond_atom_site_label_1
_geom_bond_atom_site_label_2
_ccdc_geom_bond_type
O17   V3    S    
C99   H54   S    
O1    C5    A    
N7    H33   S    
C23   C27   A    
C89   H27   S    
O13   V1    S    
N11   H53   S    
C64   C76   A    
O3    C7    A    
C87   H23   S    
C68   C72   A    
C78   N10   S    
C61   C66   A    
C73   H13   S    
C100  H60   S    
C36   H8    S    
C90   H30   S    
O4    V2    S    
C91   H35   S    
C49   H9    S    
C92   H38   S    
C33   C37   A    
O7    C3    A    
C17   O26   S    
N8    C92   S    
C10   C86   S    
C51   H11   S    
C62   C70   A    
C19   O28   S    
C32   C36   A    
O9    V1    S    
C87   O31   D    
O10   V2    S    
C14   O22   S    
N4    C20   A    
C85   O29   D    
C77   N9    S    
C55   C80   A    
O4    C8    A    
C29   H1    S    
O19   V1    S    
C31   H3    S    
O1    V3    S    
C44   C71   A    
C66   C81   A    
O2    V4    S    
C63   C68   A    
C23   C96   S    
O3    V1    S    
C73   C77   A    
O12   V4    S    
C1    O15   A    
C11   C12   D    
C2    O16   A    
C24   C40   A    
O2    C6    A    
C16   C48   A    
O14   V2    S    
N1    C17   A    
C50   C82   A    
C44   C56   A    
C74   H14   S    
O16   V4    S    
C65   C69   A    
O11   C7    A    
C25   N6    S    
O15   V3    S    
O12   C8    A    
C62   C74   A    
C89   H28   S    
N11   C99   S    
C61   C73   A    
C98   H50   S    
N4    C40   S    
C56   C79   A    
C27   N8    S    
C1    C60   S    
C63   C75   A    
C90   H31   S    
C20   O27   S    
C29   C57   A    
C100  H58   S    
C91   H36   S    
O5    V1    S    
C92   H39   S    
C99   H56   S    
C31   C35   A    
C89   H26   S    
O7    V3    S    
C79   N11   S    
N1    C37   S    
N12   H57   S    
O8    V4    S    
C17   C53   A    
C4    C57   S    
C20   C56   A    
C32   H4    S    
C86   O30   D    
C19   C55   A    
C48   C52   A    
C30   C34   A    
O18   V4    S    
C15   O23   S    
C14   C46   A    
C7    C9    S    
C21   C37   A    
C42   C69   A    
C13   C45   A    
C52   C84   A    
C75   H15   S    
C41   C70   A    
C24   C28   A    
C36   C40   A    
C76   H16   S    
C15   C47   A    
C98   H52   S    
C95   H43   S    
C97   H47   S    
O5    C1    A    
C26   N5    S    
C99   H55   S    
C46   C50   A    
C49   C81   A    
N6    H29   S    
C22   C38   A    
C45   C49   A    
O8    C4    A    
N3    C39   S    
C54   C77   A    
N6    C90   S    
C9    C10   D    
C50   H10   S    
O9    C5    A    
C53   C78   A    
C18   O25   S    
C11   C87   S    
C42   C54   A    
C98   H51   S    
C26   C58   A    
N8    H37   S    
C41   C53   A    
C25   C57   A    
C34   H6    S    
C43   C55   A    
O6    V2    S    
C2    C59   S    
C75   C79   A    
C30   H2    S    
C80   N12   S    
C52   H12   S    
C88   O32   D    
C27   C59   A    
N5    C89   S    
C32   C60   A    
C13   N1    A    
C82   H18   S    
C21   C94   S    
C91   H34   S    
C90   H32   S    
C94   H42   S    
C15   N3    A    
C22   C26   A    
C92   H40   S    
C61   C69   A    
C97   H46   S    
C16   N4    A    
C66   C70   A    
C3    O13   A    
C21   C25   A    
C94   O34   D    
N2    C38   S    
C44   C48   A    
C86   H22   S    
O6    C2    A    
N3    C19   A    
C22   C93   S    
O11   V3    S    
C5    C11   S    
C24   C95   S    
C35   H7    S    
C84   H20   S    
C6    C12   S    
N2    C18   A    
C28   N7    S    
C64   C67   A    
C9    C85   S    
C64   C72   A    
C95   O35   D    
C51   C83   A    
C96   H44   S    
C97   H48   S    
C33   H5    S    
C85   H21   S    
C47   C51   A    
C3    C58   S    
O10   C6    A    
C34   C38   A    
C43   C47   A    
C74   C78   A    
C30   C58   A    
O20   V2    S    
C100  H59   S    
C93   O33   D    
C63   C71   A    
C35   C39   A    
C68   C83   A    
C13   O21   S    
N9    H45   S    
C8    C10   S    
C14   N2    A    
C83   H19   S    
C18   C54   A    
N10   H49   S    
C12   C88   S    
C29   C33   A    
C67   C84   A    
C16   O24   S    
C81   H17   S    
C31   C59   A    
N7    C91   S    
C93   H41   S    
C42   C46   A    
C4    O14   A    
C65   C82   A    
N12   C100  S    
C41   C45   A    
C88   H24   S    
C67   C71   A    
C43   C72   A    
N9    C97   S    
N5    H25   S    
C28   C60   A    
C96   O36   D    
C23   C39   A    
C76   C80   A    
N10   C98   S    
C62   C65   A    
