data_mof_unit_20076.cif
_audit_creation_date              2012-10-26T18:59:39-0400
_audit_creation_method            fapswitch 2.2
_symmetry_space_group_name_H-M    P1
_symmetry_Int_Tables_number       1
_space_group_crystal_system       triclinic
_cell_length_a                    23.459895
_cell_length_b                    10.930978
_cell_length_c                    9.679462
_cell_angle_alpha                 90.544337
_cell_angle_beta                  92.008655
_cell_angle_gamma                 91.72166
_cell_volume                      2479.41390629

loop_
_atom_site_label
_atom_site_type_symbol
_atom_type_description
_atom_site_fract_x
_atom_site_fract_y
_atom_site_fract_z
_atom_type_partial_charge
C1    C     C_R   0.498119 0.262757 0.499343 0.557035
C2    C     C_R   0.117908 0.583194 0.518490 0.414162
C3    C     C_R   0.241887 0.570096 0.592374 -0.066211
C4    C     C_R   0.391327 0.499019 0.498332 0.585260
C5    C     C_R   0.300737 0.582155 0.577646 0.198208
C6    C     C_R   0.328835 0.496366 0.497118 0.015548
C7    C     C_R   0.296864 0.402815 0.426210 0.185388
C8    C     C_R   0.237236 0.401371 0.428364 -0.058628
C9    C     C_R   0.209192 0.482575 0.514603 0.127545
C10   C     C_R   0.753153 0.373901 0.598889 -0.073207
C11   C     C_R   0.693865 0.380831 0.582497 -0.168571
C12   C     C_R   0.970473 0.237116 0.543156 0.006414
C13   C     C_R   0.669990 0.478477 0.510080 0.014012
C14   C     C_R   0.705492 0.567200 0.453612 -0.129834
C15   C     C_R   0.764292 0.555714 0.459961 -0.067159
C16   C     C_R   0.499138 0.737372 0.500454 0.557745
C17   C     C_R   0.789158 0.461078 0.536525 0.221971
C18   C     C_R   0.477003 0.062635 0.613114 -0.009663
C19   C     C_R   0.492303 0.129422 0.496589 0.019474
C20   C     C_R   0.500890 0.063264 0.373759 -0.169440
C21   C     C_R   0.501825 0.935094 0.374952 -0.170793
C22   C     C_R   0.494297 0.870538 0.498936 0.018007
C23   C     C_R   0.030378 0.245622 0.544169 -0.108179
C24   C     C_R   0.478904 0.938144 0.614965 -0.012958
C25   C     C_3   0.489520 0.932143 0.768977 0.307777
C26   C     C_3   0.486043 0.077281 0.766766 0.306513
C27   C     C_R   0.549816 0.513809 0.078071 0.186434
C28   C     C_R   0.608337 0.493315 0.502483 0.557257
C29   C     C_R   0.450477 0.477243 0.064949 0.049848
C30   C     C_R   0.451530 0.481700 0.918351 -0.019151
C31   C     C_R   0.550147 0.506700 0.931657 0.066703
C32   C     C_3   0.595991 0.602639 0.922250 -0.110625
C33   C     C_3   0.589261 0.624720 0.078148 0.159993
C34   C     C_R   0.059854 0.358919 0.542726 0.019332
C35   C     C_R   0.880841 0.564479 0.583138 0.393512
C36   C     C_R   0.878378 0.350242 0.533210 0.396632
C37   C     C_R   0.938905 0.347213 0.545333 0.049549
C38   C     C_R   0.969400 0.461256 0.555256 -0.054780
C39   C     C_R   0.939956 0.570249 0.572097 -0.011294
C40   C     C_3   0.943715 0.108702 0.546596 -0.244413
C41   C     C_3   0.919285 0.080621 0.687501 -0.407919
C42   C     C_3   0.439558 0.853146 0.829946 -0.250241
C43   C     C_3   0.452364 0.791636 0.967863 -0.400305
C44   C     C_3   0.572821 0.924539 0.914141 -0.091766
C45   C     C_R   0.029399 0.467218 0.546700 -0.079487
C46   C     C_3   0.431351 0.137269 0.823371 -0.282106
C47   C     C_3   0.423754 0.124412 0.979626 -0.459301
C48   C     C_3   0.545791 0.205873 0.915229 -0.096907
C49   C     C_3   0.392775 0.447380 0.124403 -0.237628
C50   C     C_3   0.342834 0.406159 0.025894 -0.481186
C51   C     C_3   0.653365 0.547577 0.880843 -0.254766
C52   C     C_3   0.690202 0.639867 0.803143 -0.418745
C53   C     C_3   0.669867 0.724468 0.168889 -0.141472
C54   C     C_3   0.062322 0.854832 0.684132 -0.096253
C55   C     C_3   0.330607 0.779067 0.555532 -0.132085
C56   C     C_R   0.058872 0.581641 0.540740 0.037168
C57   C     C_3   0.333727 0.214136 0.443509 -0.125382
C58   C     C_R   0.028551 0.690523 0.557185 0.269161
C59   C     C_R   0.969666 0.683470 0.574403 -0.111260
C60   C     C_R   0.119654 0.366090 0.539524 0.401001
Cu1   Cu    Cu3+1 0.500000 0.499980 0.640670 0.947148
Cu2   Cu    Cu3+1 0.500000 0.500020 0.359330 0.948272
H1    H     H_    0.666643 0.312538 0.629890 0.129103
H2    H     H_    0.947030 0.767948 0.583929 0.159891
H3    H     H_    0.221561 0.631896 0.662098 0.167742
H4    H     H_    0.213058 0.334061 0.365832 0.176334
H5    H     H_    0.770794 0.301806 0.661547 0.149041
H6    H     H_    0.953880 0.086111 0.768890 0.140485
H7    H     H_    0.885914 0.145695 0.714154 0.188967
H8    H     H_    0.900108 0.986467 0.685979 0.157275
H9    H     H_    0.911343 0.093389 0.461699 0.207998
H10   H     H_    0.976081 0.038806 0.527301 0.142105
H11   H     H_    0.489404 0.733014 0.958454 0.170224
H12   H     H_    0.687485 0.648736 0.412434 0.133732
H13   H     H_    0.460262 0.857719 0.053715 0.114987
H14   H     H_    0.415122 0.732586 0.994787 0.145145
H15   H     H_    0.400255 0.905349 0.839292 0.115531
H16   H     H_    0.427490 0.777220 0.757005 0.205453
H17   H     H_    0.603419 0.000332 0.892346 0.176956
H18   H     H_    0.543835 0.947558 0.997606 0.091520
H19   H     H_    0.600144 0.852767 0.953944 0.080165
H20   H     H_    0.449892 0.051699 0.024067 0.144770
H21   H     H_    0.436561 0.210554 0.034965 0.139864
H22   H     H_    0.378309 0.103438 0.000925 0.153931
H23   H     H_    0.790560 0.624081 0.410052 0.145112
H24   H     H_    0.431210 0.235703 0.796615 0.163731
H25   H     H_    0.392471 0.097422 0.768850 0.088641
H26   H     H_    0.540533 0.146519 0.005854 0.082598
H27   H     H_    0.515698 0.280318 0.919453 0.154744
H28   H     H_    0.589462 0.247660 0.923413 0.123629
H29   H     H_    0.329145 0.482953 0.959296 0.154039
H30   H     H_    0.354014 0.327078 0.960878 0.143005
H31   H     H_    0.305686 0.377764 0.087273 0.197724
H32   H     H_    0.399148 0.370130 0.195917 0.236499
H33   H     H_    0.377758 0.532257 0.173000 0.185115
H34   H     H_    0.509925 0.110061 0.278477 0.127551
H35   H     H_    0.666230 0.674761 0.711580 0.169894
H36   H     H_    0.704093 0.718573 0.869821 0.149749
H37   H     H_    0.729101 0.595152 0.768326 0.171977
H38   H     H_    0.678748 0.513000 0.970163 0.198431
H39   H     H_    0.645115 0.465764 0.814347 0.164204
H40   H     H_    0.650379 0.784575 0.246388 0.117708
H41   H     H_    0.671781 0.773038 0.069608 0.099433
H42   H     H_    0.714842 0.708855 0.201256 0.137032
H43   H     H_    0.087113 0.942563 0.678424 0.161553
H44   H     H_    0.086656 0.793461 0.754229 0.129887
H45   H     H_    0.511434 0.887555 0.280337 0.121457
H46   H     H_    0.020429 0.875486 0.727910 0.094535
H47   H     H_    0.286455 0.804953 0.524362 0.149185
H48   H     H_    0.355781 0.761107 0.462501 0.114833
H49   H     H_    0.350905 0.859138 0.610784 0.111384
H50   H     H_    0.293057 0.172177 0.479089 0.144680
H51   H     H_    0.361825 0.242861 0.533860 0.104410
H52   H     H_    0.356160 0.142734 0.386169 0.133795
H53   H     H_    0.054300 0.162326 0.543960 0.164340
H54   H     H_    0.413200 0.469815 0.855832 0.163411
H55   H     H_    0.581200 0.675967 0.853254 0.187824
H56   H     H_    0.565534 0.707797 0.105897 0.083688
N1    N     N_R   0.850642 0.457542 0.554113 -0.386352
N2    N     N_R   0.147688 0.476879 0.523563 -0.396731
N3    N     N_R   0.500360 0.500930 0.147930 -0.259184
N4    N     N_R   0.500360 0.500890 0.852020 -0.272747
O1    O     O_R   0.500000 0.319640 0.618810 -0.476276
O2    O     O_R   0.582120 0.500020 0.618760 -0.511500
O3    O     O_R   0.582120 0.500060 0.381180 -0.443801
O4    O     O_2   0.853596 0.665853 0.621265 -0.532463
O5    O     O_3   0.544552 0.882771 0.790710 -0.540458
O6    O     O_3   0.539497 0.141775 0.788226 -0.536871
O7    O     O_3   0.639755 0.610417 0.159044 -0.551250
O8    O     O_3   0.055569 0.804451 0.549662 -0.519322
O9    O     O_3   0.330686 0.677428 0.644492 -0.577363
O10   O     O_3   0.323425 0.312624 0.353853 -0.595705
O11   O     O_2   0.847543 0.249017 0.494898 -0.529674
O12   O     O_2   0.149413 0.262948 0.553890 -0.521192
O13   O     O_2   0.145195 0.689803 0.489579 -0.454661
O14   O     O_R   0.500010 0.319680 0.381230 -0.519953
O15   O     O_R   0.417880 0.499940 0.618820 -0.505499
O16   O     O_R   0.417880 0.499980 0.381240 -0.522150
O17   O     O_R   0.499990 0.680320 0.618770 -0.471359
O18   O     O_R   0.500000 0.680360 0.381190 -0.517861

loop_
_geom_bond_atom_site_label_1
_geom_bond_atom_site_label_2
_ccdc_geom_bond_type
C43   H11   S    
C44   O5    S    
C8    H4    S    
C40   H9    S    
C57   O10   S    
C35   N1    A    
C19   C20   A    
C18   C26   S    
C32   H55   S    
C36   O11   S    
C27   N3    A    
C7    C8    A    
C29   C49   S    
C10   H5    S    
C27   C33   S    
C12   C23   A    
C59   H2    S    
C29   C30   A    
Cu1   O2    S    
C18   C24   A    
C14   H12   S    
C36   C37   A    
C58   O8    S    
C11   H1    S    
C38   C39   A    
C57   H50   S    
C53   H42   S    
C52   H35   S    
C43   H14   S    
C18   C19   A    
C47   H20   S    
Cu2   O14   S    
C12   C37   A    
C36   N1    A    
C38   C45   A    
C4    O15   A    
C30   N4    A    
C45   C56   A    
C8    C9    A    
C29   N3    A    
C48   H26   S    
C13   C28   S    
C47   H21   S    
C49   H32   S    
C1    O14   A    
C15   H23   S    
C20   H34   S    
C33   H56   S    
C48   H28   S    
C21   C22   A    
C55   H47   S    
C34   C60   A    
C3    H3    S    
C41   H6    S    
C43   H13   S    
C54   O8    S    
C1    C19   S    
C54   H44   S    
C27   C31   A    
C51   C52   S    
C44   H18   S    
C24   C25   S    
C4    C6    S    
C44   H19   S    
C2    N2    A    
Cu1   O17   S    
C30   H54   S    
C25   C26   S    
C23   H53   S    
C49   H33   S    
Cu1   N4    S    
C12   C40   S    
C35   O4    S    
C35   C39   A    
C1    O1    A    
C32   C51   S    
C37   C38   A    
C3    C9    A    
C48   O6    S    
C31   C32   S    
C53   H40   S    
C23   C34   A    
C39   C59   A    
C34   C45   A    
C26   O6    S    
C47   H22   S    
Cu2   O16   S    
C7    O10   S    
C21   H45   S    
C50   H30   S    
C40   C41   S    
C42   H16   S    
C55   O9    S    
C48   H27   S    
C55   H48   S    
C22   C24   A    
C16   O17   A    
C53   O7    S    
C42   C43   S    
C60   O12   S    
C16   O18   A    
C28   O3    A    
C41   H7    S    
C46   H25   S    
C33   O7    S    
C51   H38   S    
C15   C17   A    
C46   C47   S    
C16   C22   S    
C40   H10   S    
C54   H43   S    
C55   H49   S    
C44   H17   S    
C31   N4    A    
C3    C5    A    
C25   C42   S    
Cu2   O3    S    
C57   H51   S    
C28   O2    A    
C50   H31   S    
C6    C7    A    
C51   H39   S    
C52   H37   S    
C2    O13   S    
C54   H46   S    
Cu1   O1    S    
C32   C33   S    
C58   C59   A    
C2    C56   A    
C11   C13   A    
Cu1   O15   S    
C5    C6    A    
C57   H52   S    
C53   H41   S    
C52   H36   S    
C56   C58   A    
C60   N2    A    
C25   O5    S    
Cu1   Cu2   S    
C10   C11   A    
C17   N1    S    
C4    O16   A    
C50   H29   S    
C5    O9    S    
C20   C21   A    
C42   H15   S    
C49   C50   S    
C9    N2    S    
C14   C15   A    
C10   C17   A    
Cu2   O18   S    
C13   C14   A    
C26   C46   S    
Cu2   N3    S    
C41   H8    S    
C46   H24   S    
