data_mof_unit_24255.cif
_audit_creation_date              2012-12-10T20:40:57-0500
_audit_creation_method            fapswitch 2.2
_symmetry_space_group_name_H-M    P1
_symmetry_Int_Tables_number       1
_space_group_crystal_system       triclinic
_cell_length_a                    27.675846
_cell_length_b                    10.680156
_cell_length_c                    9.884292
_cell_angle_alpha                 90.489859
_cell_angle_beta                  90.672886
_cell_angle_gamma                 89.989943
_cell_volume                      2921.31402614

loop_
_atom_site_label
_atom_site_type_symbol
_atom_type_description
_atom_site_fract_x
_atom_site_fract_y
_atom_site_fract_z
_atom_type_partial_charge
C1    C     C_R   0.501046 0.259972 0.499664 0.904867
C2    C     C_R   0.278234 0.404221 0.438124 -0.138784
C3    C     C_R   0.253552 0.483898 0.526879 0.172689
C4    C     C_R   0.101336 0.476771 0.525531 -0.060641
C5    C     C_R   0.127460 0.364104 0.529279 -0.051651
C6    C     C_R   0.103005 0.250133 0.514753 -0.142655
C7    C     C_R   0.126102 0.591220 0.522509 -0.046375
C8    C     C_R   0.353803 0.501380 0.501404 -0.128697
C9    C     C_R   0.646730 0.491338 0.501138 -0.042604
C10   C     C_R   0.974959 0.359768 0.534645 0.061006
C11   C     C_R   0.974706 0.585686 0.492208 0.034496
C12   C     C_R   0.406272 0.500536 0.499606 0.919218
C13   C     C_R   0.949555 0.472378 0.511268 0.073623
C14   C     C_R   0.948902 0.254251 0.577310 -0.179640
C15   C     C_R   0.898612 0.255626 0.579898 -0.127771
C16   C     C_R   0.873125 0.363129 0.541112 -0.022600
C17   C     C_R   0.898679 0.471887 0.506459 -0.057717
C18   C     C_R   0.873506 0.580393 0.467122 -0.022898
C19   C     C_R   0.823070 0.578778 0.465327 0.510371
C20   C     C_R   0.822578 0.365789 0.538015 0.510776
C21   C     C_R   0.721893 0.489173 0.378614 -0.087635
C22   C     C_R   0.671842 0.497740 0.378729 -0.207321
C23   C     C_R   0.501455 0.739952 0.500393 0.892269
C24   C     C_R   0.672374 0.474990 0.623112 -0.184897
C25   C     C_R   0.722491 0.467248 0.622770 -0.094859
C26   C     C_R   0.747278 0.474736 0.500621 0.303435
C27   C     C_R   0.025704 0.358737 0.520240 0.009164
C28   C     C_R   0.050503 0.475102 0.522444 0.024812
C29   C     C_R   0.024772 0.589962 0.520199 0.019918
C30   C     C_R   0.052861 0.247454 0.500847 0.119011
C31   C     C_R   0.100639 0.703489 0.537237 -0.137835
C32   C     C_R   0.949387 0.688302 0.438309 -0.213883
C33   C     C_R   0.899275 0.686688 0.428089 -0.130325
C34   C     C_R   0.593989 0.498440 0.500576 0.885440
C35   C     C_R   0.050338 0.702976 0.549925 0.086375
C36   C     C_R   0.512187 0.064907 0.621504 0.132951
C37   C     C_R   0.508110 0.128425 0.499370 -0.108044
C38   C     C_R   0.513658 0.063457 0.376798 -0.195418
C39   C     C_R   0.514125 0.934219 0.377343 -0.191786
C40   C     C_R   0.509116 0.871291 0.500549 -0.116899
C41   C     C_R   0.513178 0.937216 0.622313 0.164145
C42   C     C_3   0.484109 0.930419 0.748716 -0.456039
C43   C     C_3   0.482329 0.072391 0.746413 -0.476186
C44   C     C_R   0.463756 0.442066 0.068923 0.150839
C45   C     C_R   0.177904 0.368714 0.539887 0.546985
C46   C     C_R   0.535735 0.556426 0.074862 -0.135366
C47   C     C_R   0.535157 0.560202 0.931904 0.190993
C48   C     C_R   0.464687 0.438012 0.926162 0.116159
C49   C     C_3   0.412275 0.467148 0.913881 -0.490598
C50   C     C_3   0.411418 0.479119 0.066326 -0.006884
C51   C     C_R   0.176355 0.590354 0.512172 0.575275
C52   C     C_R   0.279783 0.569406 0.608780 0.208045
C53   C     C_R   0.329027 0.589728 0.582970 -0.004230
C54   C     C_R   0.328245 0.405368 0.434023 0.088064
H1    H     H_    0.120335 0.790492 0.550969 0.195374
H2    H     H_    0.968195 0.767662 0.397201 0.172038
H3    H     H_    0.653830 0.467865 0.718531 0.183265
H4    H     H_    0.880901 0.768688 0.389322 0.197831
H5    H     H_    0.742156 0.456555 0.717335 0.149250
H6    H     H_    0.514251 0.111199 0.280562 0.181090
H7    H     H_    0.514885 0.884738 0.281239 0.189586
H8    H     H_    0.448411 0.884879 0.733259 0.206904
H9    H     H_    0.258598 0.336539 0.376679 0.201886
H10   H     H_    0.505497 0.893692 0.835506 0.235800
H11   H     H_    0.445490 0.110268 0.726734 0.214978
H12   H     H_    0.502240 0.116942 0.832477 0.214733
H13   H     H_    0.563727 0.605090 0.131642 0.165777
H14   H     H_    0.405148 0.556339 0.860202 0.235988
H15   H     H_    0.391259 0.385775 0.874237 0.199623
H16   H     H_    0.387700 0.408383 0.112388 0.183884
H17   H     H_    0.123040 0.163654 0.502864 0.209411
H18   H     H_    0.652919 0.509667 0.283163 0.166778
H19   H     H_    0.741082 0.494895 0.284005 0.148804
H20   H     H_    0.879854 0.172164 0.611959 0.193030
H21   H     H_    0.967169 0.171494 0.613709 0.172191
N1    N     N_R   0.201612 0.480913 0.528733 -0.335930
N2    N     N_R   0.798804 0.472722 0.500998 -0.357788
N3    N     N_R   0.499670 0.499140 0.142800 -0.110356
N4    N     N_R   0.499670 0.499180 0.857150 -0.116330
O1    O     O_R   0.500010 0.316790 0.614690 -0.616346
O2    O     O_2   0.797333 0.262465 0.570629 -0.546578
O3    O     O_2   0.199760 0.698044 0.485158 -0.545618
O4    O     O_2   0.798355 0.682752 0.430132 -0.544597
O5    O     O_R   0.500000 0.316760 0.385350 -0.615069
O6    O     O_R   0.428760 0.500040 0.614660 -0.634458
O7    O     O_R   0.428750 0.500000 0.385310 -0.574087
O8    O     O_R   0.500000 0.683240 0.614650 -0.604348
O9    O     O_R   0.499990 0.683210 0.385310 -0.607076
O10   O     O_R   0.571250 0.500000 0.614690 -0.595734
O11   O     O_R   0.571240 0.499960 0.385340 -0.635504
O12   O     O_2   0.202931 0.262056 0.561063 -0.544717
Zn1   Zn    Zn3+2 0.500000 0.500020 0.653130 0.974896
Zn2   Zn    Zn3+2 0.500000 0.499980 0.346870 0.986810
I1    I     I_    0.362326 0.249981 0.338836 -0.386936
I2    I     I_    0.246694 0.655032 0.781562 -0.297514
C55   C     C_3   0.027702 0.813738 0.624200 -0.407587
C56   C     C_3   0.008308 0.774442 0.762311 -0.344421
C57   C     C_3   0.987771 0.886476 0.839461 -0.812126
H22   H     H_    0.016298 0.958016 0.857701 0.270612
H23   H     H_    0.957503 0.929164 0.781166 0.259988
H24   H     H_    0.973956 0.855241 0.938643 0.259966
H25   H     H_    0.979243 0.703542 0.748721 0.234227
H26   H     H_    0.037978 0.732190 0.823499 0.239716
H27   H     H_    0.055182 0.888252 0.642194 0.221048
H28   H     H_    0.998680 0.859420 0.565879 0.224539
I3    I     I_    0.586786 0.681360 0.846688 -0.378430
I4    I     I_    0.397966 0.669548 0.129257 -0.317621
I5    I     I_    0.025234 0.084708 0.400668 -0.448382
C58   C     C_3   0.353172 0.710112 0.632827 -0.428352
C59   C     C_3   0.331585 0.823426 0.558485 -0.278255
C60   C     C_3   0.357943 0.944606 0.595399 -0.830856
H29   H     H_    0.359537 0.957888 0.706943 0.268104
H30   H     H_    0.395091 0.942910 0.554186 0.257900
H31   H     H_    0.338344 0.025138 0.550505 0.289603
H32   H     H_    0.334041 0.808229 0.447300 0.252649
H33   H     H_    0.292856 0.834538 0.583958 0.275753
H34   H     H_    0.348879 0.720862 0.743840 0.234719
H35   H     H_    0.392561 0.710398 0.614362 0.205583

loop_
_geom_bond_atom_site_label_1
_geom_bond_atom_site_label_2
_ccdc_geom_bond_type
C10   C27   A    
C21   C26   A    
C33   H4    S    
C49   H14   S    
C59   H33   S    
C41   C42   S    
C60   H29   S    
C47   N4    A    
C55   H28   S    
C56   C57   S    
C58   H34   S    
C35   C55   S    
C2    H9    S    
C1    O5    A    
C20   N2    A    
C45   N1    A    
C48   N4    A    
C28   C29   A    
C5    C6    A    
C9    C22   A    
N3    Zn2   S    
C44   C50   S    
C15   C16   A    
C21   H19   S    
C52   I2    S    
C18   C19   A    
C19   N2    A    
C59   C60   S    
C20   O2    S    
O9    Zn2   S    
C24   H3    S    
C8    C12   S    
C42   H8    S    
C56   H25   S    
C16   C20   A    
C49   H15   S    
C21   C22   A    
C27   C30   A    
C36   C41   A    
C4    C7    A    
C19   O4    S    
C22   H18   S    
C4    C28   A    
O6    Zn1   S    
C58   H35   S    
C6    H17   S    
C39   H7    S    
C26   N2    S    
C7    C31   A    
C24   C25   A    
C2    C54   A    
C8    C54   A    
C39   C40   A    
C46   N3    A    
C16   C17   A    
C25   C26   A    
C5    C45   A    
O1    Zn1   S    
C34   O11   A    
C37   C38   A    
O7    Zn2   S    
C43   H11   S    
C47   I3    S    
C55   C56   S    
C17   C18   A    
C60   H30   S    
C51   N1    A    
O10   Zn1   S    
C3    N1    S    
C51   O3    S    
N4    Zn1   S    
C56   H26   S    
C38   H6    S    
C12   O6    A    
C48   C49   S    
C6    C30   A    
C11   C32   A    
C49   C50   S    
C57   H23   S    
C23   O9    A    
C55   H27   S    
C10   C14   A    
C50   I4    S    
C31   C35   A    
C42   C43   S    
C42   H10   S    
C52   C53   A    
O11   Zn2   S    
C53   C58   S    
C46   C47   A    
C40   C41   A    
C30   I5    S    
C4    C5    A    
C10   C13   A    
C8    C53   A    
C3    C52   A    
C9    C24   A    
C1    C37   S    
C57   H24   S    
C29   C35   A    
C12   O7    A    
C32   C33   A    
C44   N3    A    
C2    C3    A    
C50   H16   S    
C34   O10   A    
C7    C51   A    
C46   H13   S    
C58   C59   S    
C14   H21   S    
C11   C13   A    
C38   C39   A    
C43   H12   S    
C9    C34   S    
C60   H31   S    
O5    Zn2   S    
C45   O12   S    
C18   C33   A    
C54   I1    S    
C13   C17   A    
C44   C48   A    
C15   H20   S    
C11   C29   A    
C36   C37   A    
C57   H22   S    
C27   C28   A    
C1    O1    A    
C14   C15   A    
C36   C43   S    
C23   O8    A    
C25   H5    S    
C31   H1    S    
O8    Zn1   S    
C59   H32   S    
C32   H2    S    
C23   C40   S    
