data_mof_unit_60425.cif
_audit_creation_date              2012-12-10T17:54:03-0500
_audit_creation_method            fapswitch 2.2
_symmetry_space_group_name_H-M    P1
_symmetry_Int_Tables_number       1
_space_group_crystal_system       triclinic
_cell_length_a                    19.002289
_cell_length_b                    18.698644
_cell_length_c                    18.838983
_cell_angle_alpha                 109.29159
_cell_angle_beta                  109.343467
_cell_angle_gamma                 109.515002
_cell_volume                      5169.57794463

loop_
_atom_site_label
_atom_site_type_symbol
_atom_type_description
_atom_site_fract_x
_atom_site_fract_y
_atom_site_fract_z
_atom_type_partial_charge
C1    C     C_R   0.881052 0.380659 0.999733 0.823642
C2    C     C_R   0.811271 0.312209 0.995331 -0.147102
C3    C     C_R   0.793267 0.224976 0.956186 -0.204905
C4    C     C_R   0.729610 0.160176 0.956605 0.240130
C5    C     C_R   0.682562 0.182484 0.995220 -0.169022
C6    C     C_R   0.693707 0.266377 0.023949 0.084755
C7    C     C_3   0.709547 0.328416 0.109073 0.050736
C8    C     C_3   0.779452 0.399169 0.109916 -0.428008
C9    C     C_R   0.189766 0.512522 0.259696 -0.060876
C10   C     C_R   0.187120 0.501452 0.182348 -0.201240
C11   C     C_R   0.250736 0.485946 0.167327 0.442155
C12   C     C_R   0.887771 0.505270 0.881859 0.785846
C13   C     C_R   0.317778 0.489786 0.233797 0.147114
C14   C     C_R   0.315032 0.498469 0.310272 -0.225370
C15   C     C_R   0.248085 0.506839 0.318566 0.049733
C16   C     C_3   0.209187 0.514665 0.375695 0.666642
C17   C     C_3   0.142449 0.521849 0.308218 -0.492792
C18   C     C_R   0.186628 0.758383 0.004883 -0.058152
C19   C     C_R   0.188555 0.684674 0.003595 -0.213139
C20   C     C_R   0.258191 0.674127 0.000562 0.378065
C21   C     C_R   0.322279 0.737659 0.997454 0.415614
C22   C     C_R   0.316792 0.812049 0.998730 -0.262850
C23   C     C_R   0.119567 0.618767 0.001140 0.889790
C24   C     C_R   0.247385 0.818599 0.001899 -0.071301
C25   C     C_3   0.203272 0.871920 0.000834 0.399756
C26   C     C_3   0.134067 0.802497 0.004195 -0.449077
C27   C     C_R   0.496902 0.380940 0.378571 0.790605
C28   C     C_R   0.613997 0.498796 0.614539 0.676759
C29   C     C_R   0.496131 0.618669 0.614495 0.806983
C30   C     C_R   0.379471 0.499645 0.378342 0.896076
C31   C     C_R   0.502044 0.882738 0.881838 0.806829
C32   C     C_R   0.618123 0.118419 0.999330 0.856919
C33   C     C_R   0.498984 0.118443 0.118338 0.792555
C34   C     C_R   0.118876 0.500736 0.117775 0.876607
C35   C     C_R   0.381845 0.880558 0.999615 0.834495
C36   C     C_R   0.565805 0.298833 0.332412 0.048364
C37   C     C_R   0.495857 0.312694 0.312925 -0.045378
C38   C     C_R   0.420590 0.252930 0.232356 -0.170350
C39   C     C_R   0.420789 0.188189 0.168282 -0.158406
C40   C     C_R   0.495594 0.181487 0.185564 -0.078536
C41   C     C_R   0.565457 0.233826 0.269956 0.129367
C42   C     C_3   0.658509 0.289225 0.301167 -0.428418
C43   C     C_3   0.658658 0.360777 0.369663 -0.437053
C44   C     C_R   0.488390 0.752584 0.674940 0.060218
C45   C     C_2   0.740089 0.566924 0.754016 -0.191608
C46   C     C_R   0.498300 0.684942 0.682595 -0.042927
C47   C     C_R   0.511228 0.683377 0.760042 -0.206238
C48   C     C_R   0.515279 0.749997 0.827067 -0.208084
C49   C     C_R   0.502047 0.816186 0.815456 -0.070577
C50   C     C_R   0.488043 0.814040 0.737419 0.103864
C51   C     C_3   0.480630 0.864094 0.690587 0.101372
C52   C     C_3   0.479573 0.792882 0.618664 -0.474593
C53   C     C_2   0.676817 0.493134 0.679858 0.412352
C54   C     C_2   0.797712 0.563344 0.826059 -0.173157
C55   C     C_2   0.840087 0.519666 0.814267 0.188398
C56   C     C_R   0.757559 0.330476 0.024870 0.085810
Cu1   Cu    Cu3+1 0.999590 0.561790 0.061400 0.975718
Cu2   Cu    Cu3+1 0.000410 0.438210 0.938600 0.999676
Cu3   Cu    Cu3+1 0.558560 0.561730 0.496790 1.028710
Cu4   Cu    Cu3+1 0.434970 0.438120 0.496790 1.024057
Cu5   Cu    Cu3+1 0.438600 0.999980 0.938570 1.051839
Cu6   Cu    Cu3+1 0.561400 0.999920 0.061330 1.023407
H1    H     H_    0.744893 0.629592 0.764868 0.119346
H2    H     H_    0.845180 0.424485 0.162255 0.176996
H3    H     H_    0.076120 0.465351 0.272190 0.189296
H4    H     H_    0.147264 0.587125 0.331991 0.214688
H5    H     H_    0.178539 0.871338 0.938159 0.112099
H6    H     H_    0.131538 0.826324 0.065214 0.215959
H7    H     H_    0.070594 0.763013 0.943781 0.169288
H8    H     H_    0.363406 0.258979 0.217760 0.160451
H9    H     H_    0.363560 0.145104 0.105053 0.190014
H10   H     H_    0.698117 0.262887 0.328674 0.204300
H11   H     H_    0.669317 0.305771 0.252874 0.215755
H12   H     H_    0.698454 0.375706 0.436613 0.201699
H13   H     H_    0.669334 0.418734 0.360878 0.235685
H14   H     H_    0.520309 0.632353 0.769492 0.153226
H15   H     H_    0.801265 0.593129 0.888265 0.147056
H16   H     H_    0.528171 0.749404 0.887205 0.167114
H17   H     H_    0.538937 0.929292 0.724765 0.174199
H18   H     H_    0.417293 0.750768 0.556928 0.257295
H19   H     H_    0.537428 0.817340 0.611664 0.198646
H20   H     H_    0.830999 0.207702 0.928854 0.193861
H21   H     H_    0.734513 0.312726 0.160787 0.118759
H22   H     H_    0.764817 0.450316 0.103752 0.235417
O1    O     O_R   0.909480 0.462010 0.051860 -0.584542
O2    O     O_R   0.445180 0.357580 0.407200 -0.597127
O3    O     O_R   0.638540 0.552110 0.586390 -0.592360
O4    O     O_R   0.534170 0.447730 0.586390 -0.577766
O5    O     O_R   0.548350 0.642270 0.586380 -0.585650
O6    O     O_R   0.443970 0.537890 0.586380 -0.571315
O7    O     O_R   0.459360 0.552110 0.407190 -0.549653
O8    O     O_R   0.354990 0.447740 0.407190 -0.553862
O9    O     O_R   0.448700 0.909820 0.858480 -0.556153
O10   O     O_R   0.552410 0.909770 0.962140 -0.567580
O11   O     O_R   0.538310 0.090150 0.948110 -0.550711
O12   O     O_R   0.910180 0.357650 0.948150 -0.590973
O13   O     O_R   0.642020 0.090090 0.051780 -0.570483
O14   O     O_R   0.447590 0.090130 0.037760 -0.566230
O15   O     O_R   0.551300 0.090080 0.141420 -0.600651
O16   O     O_R   0.357980 0.909810 0.948120 -0.593517
O17   O     O_R   0.461690 0.909750 0.051790 -0.553589
O18   O     O_R   0.910060 0.552180 0.962250 -0.607068
O19   O     O_R   0.910760 0.447820 0.858550 -0.542499
O20   O     O_R   0.089820 0.642350 0.051850 -0.591379
O21   O     O_R   0.090520 0.537990 0.948140 -0.574541
O22   O     O_R   0.089240 0.552180 0.141450 -0.585488
O23   O     O_R   0.089940 0.447820 0.037750 -0.575495
O24   O     O_R   0.549550 0.461960 0.407200 -0.556918
O25   O     O_3   0.249950 0.471532 0.090068 -0.516321
C57   C     C_3   0.212757 0.380669 0.036047 -0.193411
H23   H     H_    0.203406 0.368046 0.970931 0.166216
H24   H     H_    0.148627 0.342552 0.027880 0.141958
H25   H     H_    0.255373 0.355882 0.060796 0.183166
Br1   Br    Br    0.410284 0.481077 0.217595 -0.431204
Br2   Br    Br    0.163118 0.406729 0.380170 -0.520810
O26   O     O_3   0.266742 0.592701 0.456346 -0.596662
C58   C     C_3   0.227352 0.603562 0.507710 -0.234383
H26   H     H_    0.223629 0.558796 0.534810 0.198028
H27   H     H_    0.162554 0.594631 0.471751 0.164430
H28   H     H_    0.268022 0.670982 0.563432 0.217111
O27   O     O_3   0.267497 0.606478 0.008927 -0.520419
C59   C     C_3   0.242918 0.539739 0.927632 -0.127740
H29   H     H_    0.194729 0.536377 0.871169 0.103270
H30   H     H_    0.212937 0.476008 0.924555 0.183309
H31   H     H_    0.300681 0.547116 0.921546 0.176935
O28   O     O_3   0.389780 0.726427 0.994603 -0.528967
C60   C     C_3   0.374613 0.695315 0.908736 -0.297512
H32   H     H_    0.393716 0.749904 0.895147 0.152080
H33   H     H_    0.306425 0.644697 0.859169 0.124417
H34   H     H_    0.414308 0.664502 0.901217 0.188916
O29   O     O_3   0.245656 0.957941 0.072591 -0.569276
C61   C     C_3   0.308669 0.972459 0.150015 -0.249980
H35   H     H_    0.366328 0.976107 0.145228 0.152145
H36   H     H_    0.283133 0.922135 0.167487 0.170788
H37   H     H_    0.329531 0.036579 0.203547 0.184536
O30   O     O_3   0.661652 0.412691 0.674819 -0.552048
C62   C     C_3   0.628604 0.347330 0.589314 -0.208192
H38   H     H_    0.660504 0.371872 0.555654 0.141348
H39   H     H_    0.557913 0.318451 0.551166 0.167605
H40   H     H_    0.640805 0.294090 0.592275 0.199186
Br3   Br    Br    0.372749 0.864804 0.654867 -0.486953
Br4   Br    Br    0.852030 0.483919 0.712016 -0.507260
Br5   Br    Br    0.711609 0.043651 0.907352 -0.537510
Br6   Br    Br    0.611409 0.344691 0.097146 -0.468199

loop_
_geom_bond_atom_site_label_1
_geom_bond_atom_site_label_2
_ccdc_geom_bond_type
C3    H20   S    
C7    H21   S    
C38   H8    S    
O28   C60   S    
C11   O25   S    
C41   C42   S    
C19   C20   A    
C25   H5    S    
C8    C56   S    
C4    Br5   S    
C29   O5    A    
Cu4   O4    S    
C7    C8    S    
O26   C58   S    
C22   C35   S    
C62   H39   S    
C17   H4    S    
C18   C24   A    
C34   O23   A    
C36   C37   A    
C31   C49   S    
C47   H14   S    
Cu2   O23   S    
C58   H27   S    
C5    C6    A    
Cu5   O9    S    
C15   C16   S    
C23   O21   A    
C32   O13   A    
C33   O14   A    
Cu3   O5    S    
C48   H16   S    
Cu2   O12   S    
C57   H23   S    
C7    Br6   S    
C54   C55   D    
C47   C48   A    
C16   C17   S    
C18   C26   S    
C28   O4    A    
C9    C10   A    
C13   Br1   S    
Cu6   O17   S    
C44   C52   S    
C43   H12   S    
C51   Br3   S    
Cu1   O22   S    
C45   C53   D    
Cu3   Cu4   S    
C55   Br4   S    
C13   C14   A    
C43   H13   S    
C36   C41   A    
Cu5   Cu6   S    
C53   O30   S    
C14   C30   S    
C16   O26   S    
C29   O6    A    
C44   C46   A    
C57   H24   S    
Cu4   O8    S    
C1    O1    A    
C62   H40   S    
C33   C40   S    
C51   C52   S    
C34   O22   A    
C61   H37   S    
C24   C25   S    
C12   O19   A    
C30   O8    A    
C58   H28   S    
C39   C40   A    
C54   H15   S    
Cu4   O2    S    
C18   C19   A    
C25   C26   S    
C31   O9    A    
C45   H1    S    
C33   O15   A    
C27   O2    A    
C19   C23   S    
C60   H33   S    
C12   O18   A    
C37   C38   A    
Cu1   O18   S    
Cu6   O13   S    
C23   O20   A    
C28   O3    A    
C42   H10   S    
C50   C51   S    
C20   O27   S    
C10   C34   S    
Cu3   O7    S    
C57   H25   S    
Cu3   O3    S    
O27   C59   S    
C8    H2    S    
C9    C17   S    
C48   C49   A    
C45   C54   S    
Cu6   O10   S    
C22   C24   A    
Cu5   O16   S    
C42   C43   S    
C59   H30   S    
C60   H32   S    
C25   O29   S    
C16   Br2   S    
C44   C50   A    
Cu1   O20   S    
C46   C47   A    
C40   C41   A    
C42   H11   S    
C8    H22   S    
C52   H18   S    
C6    C56   A    
C30   O7    A    
C35   O17   A    
O29   C61   S    
C28   C53   S    
Cu5   O11   S    
C6    C7    S    
Cu4   O6    S    
C31   O10   A    
C62   H38   S    
C17   H3    S    
Cu3   O24   S    
C29   C46   S    
Cu2   O21   S    
C26   H6    S    
C5    C32   S    
C59   H31   S    
C2    C3    A    
C9    C15   A    
C60   H34   S    
C2    C56   A    
C58   H26   S    
C11   C13   A    
Cu5   O14   S    
Cu1   Cu2   S    
C38   C39   A    
C27   O24   A    
C27   C37   S    
C1    O12   A    
C35   O16   A    
C1    C2    S    
Cu1   O1    S    
C61   H35   S    
C52   H19   S    
C51   H17   S    
C12   C55   S    
C10   C11   A    
Cu6   O15   S    
C4    C5    A    
C32   O11   A    
C20   C21   A    
C61   H36   S    
C49   C50   A    
O25   C57   S    
C59   H29   S    
C26   H7    S    
C39   H9    S    
C14   C15   A    
O30   C62   S    
C36   C43   S    
Cu2   O19   S    
C21   O28   S    
C21   C22   A    
C3    C4    A    
