data_mof_unit_67505.cif
_audit_creation_date              2013-03-05T15:41:20-0500
_audit_creation_method            fapswitch 2.2
_symmetry_space_group_name_H-M    P1
_symmetry_Int_Tables_number       1
_space_group_crystal_system       triclinic
_cell_length_a                    10.713406
_cell_length_b                    9.054192
_cell_length_c                    7.65055
_cell_angle_alpha                 104.886885
_cell_angle_beta                  94.620109
_cell_angle_gamma                 98.668077
_cell_volume                      703.465493731

loop_
_atom_site_label
_atom_site_type_symbol
_atom_site_description
_atom_site_fract_x
_atom_site_fract_y
_atom_site_fract_z
_atom_type_partial_charge
O1    O     O_R   0.509190 0.286130 0.619780 -0.530637
O2    O     O_R   0.490810 0.713870 0.380220 -0.530556
O3    O     O_R   0.485310 0.256770 0.308360 -0.515336
O4    O     O_R   0.514690 0.743230 0.691640 -0.515292
C1    C     C_R   0.494903 0.199880 0.452440 0.797030
C2    C     C_R   0.505093 0.800119 0.547558 0.796677
O5    O     O_R   0.328790 0.514640 0.655680 -0.551237
O6    O     O_R   0.671210 0.485360 0.344320 -0.551181
O7    O     O_R   0.304910 0.485280 0.344260 -0.515949
O8    O     O_R   0.695090 0.514720 0.655740 -0.515970
C3    C     C_R   0.259727 0.497607 0.499838 0.854395
C4    C     C_R   0.740275 0.502404 0.500165 0.854578
Cu1   Cu    Cu3+1 0.514140 0.517380 0.684380 1.242094
Cu2   Cu    Cu3+1 0.485860 0.482620 0.315620 1.242084
N1    N     N_2   0.464560 0.456420 0.038510 0.110841
N2    N     N_2   0.535440 0.543580 0.961490 0.110918
C5    C     C_3   0.058881 0.555080 0.670572 -0.198896
C6    C     C_3   0.941126 0.444938 0.329427 -0.198294
C7    C     C_3   0.950955 0.411134 0.603846 -0.210911
C8    C     C_3   0.049053 0.588892 0.396157 -0.212578
H1    H     H_    0.915624 0.337808 0.691176 0.254064
H2    H     H_    0.084382 0.662215 0.308825 0.253871
H3    H     H_    0.100953 0.615878 0.811625 0.247077
H4    H     H_    0.899065 0.384115 0.188373 0.246897
C9    C     C_3   0.877123 0.502352 0.500929 -0.147472
C10   C     C_3   0.122884 0.497673 0.499078 -0.147787
C11   C     C_3   0.983676 0.644042 0.566855 0.372374
C12   C     C_3   0.016334 0.355988 0.433154 0.373883
C13   C     C_2   0.479262 0.030557 0.429878 0.102723
C14   C     C_2   0.520728 0.969441 0.570117 0.102978
S1    S     S_3+6 0.979172 0.840802 0.676017 0.089133
O9    O     O_2   0.849868 0.876530 0.632270 -0.166076
O10   O     O_2   0.008413 0.868339 0.877902 -0.270456
O11   O     O_3   0.091220 0.955971 0.607259 -0.412443
H5    H     H_    0.172608 0.925194 0.641939 0.328170
S2    S     S_3+6 0.020888 0.159228 0.324166 0.088735
O12   O     O_2   0.991617 0.131526 0.122256 -0.271324
O13   O     O_2   0.150202 0.123528 0.367926 -0.166361
O14   O     O_3   0.908878 0.044208 0.393179 -0.412906
H6    H     H_    0.827158 0.072335 0.354453 0.328688
S3    S     S_3+6 0.310457 0.372198 0.942570 0.199592
O15   O     O_2   0.233765 0.498151 0.953885 -0.283000
O16   O     O_2   0.301548 0.272499 0.750736 -0.280260
O17   O     O_3   0.244496 0.257738 0.061998 -0.421136
H7    H     H_    0.178346 0.181315 0.972683 0.412594
S4    S     S_3+6 0.689543 0.627798 0.057432 0.199222
O18   O     O_2   0.698451 0.727491 0.249269 -0.280995
O19   O     O_2   0.766236 0.501845 0.046112 -0.282952
O20   O     O_3   0.755499 0.742266 0.938010 -0.421271
H8    H     H_    0.821608 0.818731 0.027349 0.412035
S5    S     S_3+6 0.390768 0.913829 0.217794 0.071948
O21   O     O_2   0.480680 0.837953 0.099099 -0.242988
O22   O     O_2   0.290374 0.792568 0.250339 -0.292184
O23   O     O_3   0.317789 0.016344 0.102627 -0.416427
H9    H     H_    0.284242 0.942463 0.982282 0.374931
S6    S     S_3+6 0.609231 0.086170 0.782190 0.072194
O24   O     O_2   0.709633 0.207411 0.749619 -0.291659
O25   O     O_2   0.519336 0.162070 0.900894 -0.242960
O26   O     O_3   0.682199 0.983654 0.897362 -0.416710
H10   H     H_    0.715940 0.057610 0.017570 0.374477

loop_
_geom_bond_atom_site_label_1
_geom_bond_atom_site_label_2
_geom_bond_distance
_ccdc_geom_bond_type
O7    Cu2   1.971425 S    
S1    O10   1.498834 D    
C13   C14   1.398949 D    
S5    O21   1.498089 D    
C8    C11   1.537238 S    
O3    Cu2   2.030431 S    
C9    C11   1.528618 S    
S3    O16   1.499554 D    
S3    O15   1.492062 D    
O23   H9    0.991016 S    
C10   C12   1.528564 S    
S1    O9    1.500569 D    
S6    O26   1.666444 S    
C4    C9    1.465719 S    
O6    C4    1.312171 A    
S5    O23   1.666476 S    
S2    O13   1.500573 D    
S1    O11   1.676707 S    
O26   H10   0.990901 S    
C5    H3    1.101066 S    
Cu1   Cu2   2.743619 S    
S6    O24   1.500647 D    
O5    C3    1.312163 A    
C7    C12   1.537203 S    
O7    C3    1.305498 A    
S4    O20   1.666735 S    
N1    S3    1.727327 S    
O2    C2    1.300369 A    
C6    C9    1.537490 S    
C8    C10   1.535740 S    
C6    H4    1.101082 S    
C5    C10   1.537430 S    
O8    C4    1.305500 A    
S2    O12   1.498867 D    
C7    H1    1.106044 S    
C8    H2    1.106042 S    
O11   H5    0.991099 S    
C1    C13   1.479922 S    
O2    Cu2   2.015342 S    
S3    O17   1.666743 S    
O1    C1    1.300377 A    
O1    Cu1   2.015340 S    
C7    C9    1.535728 S    
C11   S1    1.772419 S    
N1    N2    1.294995 D    
C5    C11   1.532520 S    
S4    O19   1.492070 D    
O3    C1    1.334306 A    
O5    Cu1   1.975869 S    
C6    C12   1.532498 S    
O17   H7    0.989536 S    
C12   S2    1.772255 S    
C6    C8    1.550854 S    
O4    C2    1.334313 A    
O20   H8    0.989535 S    
C13   S5    1.793754 S    
Cu1   N2    2.061618 S    
N2    S4    1.727323 S    
O14   H6    0.991623 S    
Cu2   N1    2.061618 S    
C5    C7    1.550798 S    
O6    Cu2   1.975871 S    
C3    C10   1.465695 S    
C2    C14   1.479916 S    
S4    O18   1.499555 D    
C14   S6    1.793736 S    
S2    O14   1.676680 S    
O4    Cu1   2.030431 S    
S6    O25   1.498084 D    
S5    O22   1.500644 D    
O8    Cu1   1.971424 S    
