data_mof_unit_55422.cif
_audit_creation_date              2012-12-11T14:58:36-0500
_audit_creation_method            fapswitch 2.2
_symmetry_space_group_name_H-M    P1
_symmetry_Int_Tables_number       1
_space_group_crystal_system       triclinic
_cell_length_a                    10.96903
_cell_length_b                    11.076623
_cell_length_c                    18.82772
_cell_angle_alpha                 90.67615
_cell_angle_beta                  90.575063
_cell_angle_gamma                 59.363196
_cell_volume                      1968.09585073

loop_
_atom_site_label
_atom_site_type_symbol
_atom_type_description
_atom_site_fract_x
_atom_site_fract_y
_atom_site_fract_z
_atom_type_partial_charge
C1    C     C_R   0.358628 0.772794 0.398392 0.542953
C2    C     C_R   0.259028 0.444109 0.199519 0.277851
C3    C     C_R   0.249606 0.448103 0.273845 0.028771
C4    C     C_R   0.385003 0.353492 0.388101 0.521401
C5    C     C_R   0.886586 0.787374 0.380897 0.293284
C6    C     C_R   0.934872 0.646650 0.397782 -0.169584
C7    C     C_R   0.049144 0.537894 0.361407 -0.139874
C8    C     C_R   0.121817 0.566330 0.309314 0.018055
C9    C     C_R   0.360912 0.337263 0.312911 -0.047150
C10   C     C_R   0.950844 0.306405 0.307494 -0.076275
C11   C     C_R   0.980175 0.302583 0.235840 0.432555
C12   C     C_R   0.609759 0.089117 0.172271 -0.039563
C13   C     C_R   0.872280 0.337837 0.185277 0.116724
C14   C     C_R   0.732134 0.392037 0.206201 -0.104481
C15   C     C_R   0.702180 0.400672 0.278389 -0.066469
C16   C     C_R   0.774805 0.379834 0.402477 0.537825
C17   C     C_R   0.812180 0.356382 0.328629 0.023109
C18   C     C_R   0.474671 0.761487 0.287087 -0.174357
C19   C     C_R   0.469446 0.785683 0.213829 0.171093
C20   C     C_R   0.334012 0.873907 0.183332 0.022981
C21   C     C_R   0.213823 0.943798 0.228125 0.370348
C22   C     C_R   0.224104 0.922814 0.300039 -0.094630
C23   C     C_R   0.364066 0.321555 0.164649 0.021635
C24   C     C_R   0.352383 0.826651 0.328737 -0.094850
C25   C     C_R   0.464136 0.274618 0.716538 -0.185159
C26   C     C_R   0.447210 0.270759 0.788402 -0.158072
C27   C     C_R   0.311246 0.332041 0.816429 -0.029302
C28   C     C_R   0.345272 0.766262 0.605435 0.543691
C29   C     C_R   0.191501 0.407965 0.772770 -0.096112
C30   C     C_R   0.208645 0.414435 0.700048 0.356711
C31   C     C_R   0.345449 0.342979 0.671578 0.041177
C32   C     C_R   0.743141 0.475236 0.732155 -0.125838
C33   C     C_R   0.754895 0.461523 0.804939 -0.191884
C34   C     C_R   0.473788 0.222976 0.277376 -0.108828
C35   C     C_R   0.814457 0.328645 0.835533 0.034626
C36   C     C_R   0.845026 0.211653 0.792329 0.353783
C37   C     C_R   0.829523 0.226620 0.718752 -0.114350
C38   C     C_R   0.784117 0.357627 0.688253 -0.014471
C39   C     C_R   0.214019 0.806253 0.716575 -0.114136
C40   C     C_R   0.372631 0.353023 0.597559 0.574046
C41   C     C_R   0.207884 0.817932 0.789654 -0.093216
C42   C     C_R   0.307750 0.837491 0.826431 0.022771
C43   C     C_R   0.418819 0.837170 0.789523 -0.139134
C44   C     C_R   0.425078 0.825265 0.716293 -0.141307
C45   C     C_R   0.480573 0.213892 0.204357 -0.027537
C46   C     C_R   0.322782 0.809717 0.679368 0.024411
C47   C     C_R   0.910684 0.317130 0.111491 0.589377
C48   C     C_R   0.330124 0.292201 0.093028 0.570344
C49   C     C_R   0.306394 0.902587 0.106937 0.596758
C50   C     C_R   0.879826 0.310050 0.905620 0.547398
C51   C     C_R   0.296228 0.290293 0.886500 0.546976
C52   C     C_R   0.755730 0.381253 0.612357 0.561229
C53   C     C_R   0.277173 0.892431 0.898401 0.546264
C54   C     C_R   0.826013 0.892055 0.083262 0.279337
C55   C     C_R   0.849929 0.979344 0.127617 -0.062767
C56   C     C_R   0.076154 0.707282 0.294483 -0.071678
C57   C     C_R   0.743426 0.075682 0.172857 0.363848
C58   C     C_3   0.656152 0.888091 0.418917 -0.090386
C59   C     C_3   0.715023 0.690477 0.206990 -0.077139
C60   C     C_3   0.686290 0.807665 0.978398 -0.008155
C61   C     C_3   0.226117 0.618861 0.125595 -0.079885
C62   C     C_R   0.960018 0.816141 0.330040 0.419600
C63   C     C_R   0.601052 0.979303 0.141167 -0.112710
C64   C     C_R   0.699026 0.891357 0.089535 0.292760
Cr1   Cr    Cr6+3 0.601770 0.606860 0.505860 0.994353
Cr2   Cr    Cr6+3 0.291380 0.601660 0.495070 1.072660
Cr3   Cr    Cr6+3 0.606880 0.291510 0.499120 1.087099
Cr4   Cr    Cr6+3 0.062440 0.063090 0.008210 1.116090
Cr5   Cr    Cr6+3 0.062880 0.375170 0.998920 1.109618
Cr6   Cr    Cr6+3 0.374700 0.061720 0.992470 1.027891
F1    F     F_    0.115122 0.257784 0.215339 -0.638747
F2    F     F_    0.082521 0.029329 0.202340 -0.584187
F3    F     F_    0.092959 0.485085 0.657625 -0.628073
F4    F     F_    0.898075 0.081960 0.820324 -0.638703
F5    F     F_    0.920120 0.950956 0.316424 -0.562417
F6    F     F_    0.930028 0.801860 0.038859 -0.659233
F7    F     F_    0.776205 0.141396 0.222939 -0.572187
H1    H     H_    0.561365 0.139577 0.306619 0.210770
H2    H     H_    0.540502 0.213276 0.821601 0.167253
H3    H     H_    0.085384 0.454857 0.794098 0.157194
H4    H     H_    0.701735 0.578927 0.710336 0.160905
H5    H     H_    0.727712 0.553846 0.836913 0.130443
H6    H     H_    0.855453 0.135966 0.685727 0.146670
H7    H     H_    0.135365 0.790635 0.689597 0.169061
H8    H     H_    0.121432 0.817797 0.816880 0.194419
H9    H     H_    0.497401 0.852537 0.816774 0.127180
H10   H     H_    0.511133 0.825675 0.688786 0.134580
H11   H     H_    0.951639 0.970577 0.127107 0.236829
H12   H     H_    0.888174 0.620978 0.440910 0.161188
H13   H     H_    0.132995 0.733616 0.257289 0.148280
H14   H     H_    0.508391 0.975423 0.152657 0.198594
H15   H     H_    0.666636 0.809662 0.458392 0.136692
H16   H     H_    0.630452 0.863671 0.365275 0.097773
H17   H     H_    0.565097 0.990702 0.435603 0.158766
H18   H     H_    0.755323 0.603977 0.245231 0.086180
H19   H     H_    0.700216 0.785074 0.235884 0.096358
H20   H     H_    0.801060 0.658085 0.167796 0.212787
H21   H     H_    0.797641 0.738715 0.961289 0.176029
H22   H     H_    0.644737 0.917642 0.960748 0.119426
H23   H     H_    0.087192 0.431283 0.377286 0.128835
H24   H     H_    0.623443 0.768285 0.950830 0.113357
H25   H     H_    0.277769 0.560522 0.076046 0.130595
H26   H     H_    0.304839 0.627558 0.159902 0.063975
H27   H     H_    0.144853 0.726370 0.110608 0.218373
H28   H     H_    0.035483 0.269843 0.346238 0.098096
H29   H     H_    0.648046 0.423240 0.167302 0.125692
H30   H     H_    0.593607 0.442111 0.295129 0.118291
H31   H     H_    0.572421 0.684401 0.311770 0.144582
H32   H     H_    0.130290 0.975109 0.332771 0.212031
H33   H     H_    0.571207 0.224171 0.696279 0.158037
O1    O     O_R   0.748800 0.497470 0.428000 -0.559865
O2    O     O_R   0.417600 0.174890 0.067840 -0.557792
O3    O     O_R   0.375320 0.946260 0.070860 -0.471027
O4    O     O_R   0.476420 0.724060 0.429470 -0.528455
O5    O     O_R   0.160600 0.919630 0.926660 -0.465853
O6    O     O_R   0.933060 0.190520 0.936020 -0.443050
O7    O     O_R   0.908880 0.403460 0.925020 -0.545670
O8    O     O_R   0.179600 0.361450 0.918490 -0.506015
O9    O     O_R   0.391510 0.170860 0.907530 -0.532154
O10   O     O_R   0.351130 0.942530 0.922260 -0.530551
O11   O     O_3   0.166667 0.166667 0.999870 -0.271747
O12   O     O_R   0.300070 0.471040 0.567100 -0.451843
O13   O     O_R   0.264580 0.744340 0.416750 -0.503985
O14   O     O_R   0.309380 0.472470 0.418200 -0.501126
O15   O     O_R   0.501710 0.260430 0.414300 -0.501627
O16   O     O_R   0.728090 0.305600 0.428960 -0.441037
O17   O     O_R   0.738760 0.495930 0.588610 -0.494474
O18   O     O_R   0.467110 0.722640 0.578360 -0.516211
O19   O     O_R   0.254530 0.742800 0.577360 -0.508835
O20   O     O_3   0.778818 0.898921 0.418213 -0.527026
O21   O     O_3   0.589496 0.714306 0.171214 -0.545041
O22   O     O_3   0.673601 0.797380 0.052332 -0.511329
O23   O     O_R   0.491670 0.258900 0.574910 -0.537933
O24   O     O_3   0.158218 0.557443 0.160965 -0.545904
O25   O     O_R   0.718780 0.304180 0.577850 -0.511638
O26   O     O_3   0.500010 0.500010 0.500020 -0.277840
O27   O     O_R   0.186690 0.923650 0.086970 -0.508584
O28   O     O_R   0.957250 0.194250 0.084630 -0.463882
O29   O     O_R   0.934970 0.407490 0.085330 -0.480685
O30   O     O_R   0.203780 0.365190 0.067090 -0.416617

loop_
_geom_bond_atom_site_label_1
_geom_bond_atom_site_label_2
_ccdc_geom_bond_type
C25   C31   A    
C49   O3    A    
Cr5   O29   S    
C23   C45   A    
C49   O27   A    
C27   C29   A    
C50   O7    A    
Cr1   O4    S    
Cr4   O28   S    
C35   C36   A    
C60   H22   S    
C8    C56   A    
C53   O10   A    
C7    C8    A    
C39   C41   A    
C32   H4    S    
C59   O21   S    
C26   C27   A    
C20   C49   S    
C4    O15   A    
C18   C24   A    
Cr1   O17   S    
C36   C37   A    
Cr3   O23   S    
C58   H16   S    
C39   H7    S    
C28   O19   A    
C60   H21   S    
Cr3   O15   S    
C42   C53   S    
C30   C31   A    
C11   F1    S    
C38   C52   S    
C1    O4    A    
C10   C17   A    
Cr5   O8    S    
C51   O8    A    
C31   C40   S    
C4    O14   A    
C15   C17   A    
C18   C19   A    
C41   C42   A    
C15   H30   S    
C55   H11   S    
Cr1   O1    S    
C33   C35   A    
C64   O22   S    
Cr6   O10   S    
C16   C17   S    
C51   O9    A    
Cr2   O12   S    
C32   C38   A    
C29   C30   A    
C33   H5    S    
Cr2   O19   S    
Cr5   O30   S    
C56   H13   S    
C13   C14   A    
C60   O22   S    
Cr4   O27   S    
C59   H18   S    
C52   O17   A    
C44   C46   A    
C61   O24   S    
Cr6   O3    S    
C19   O21   S    
C7    H23   S    
C48   O30   A    
C21   F2    S    
Cr1   O18   S    
C57   F7    S    
C61   H27   S    
C3    C8    S    
Cr3   O16   S    
C13   C47   S    
C12   C63   A    
C25   C26   A    
Cr3   O25   S    
C43   C44   A    
C1    O13   A    
C37   C38   A    
C3    C9    A    
C14   C15   A    
Cr5   O11   S    
Cr6   O9    S    
C22   H32   S    
C28   C46   S    
C35   C50   S    
C34   C45   A    
C2    O24   S    
C56   C62   A    
Cr6   O2    S    
C25   H33   S    
Cr4   O6    S    
C39   C46   A    
Cr2   O26   S    
C12   C57   A    
C5    O20   S    
C48   O2    A    
C55   C57   A    
C9    C34   A    
C59   H20   S    
Cr2   O14   S    
C22   C24   A    
C62   F5    S    
C59   H19   S    
C47   O29   A    
C60   H24   S    
C44   H10   S    
C41   H8    S    
C30   F3    S    
C54   C55   A    
C36   F4    S    
C23   C48   S    
C61   H26   S    
C54   F6    S    
C43   H9    S    
C12   C45   S    
Cr4   O11   S    
C6    C7    A    
C6    H12   S    
C40   O12   A    
C40   O23   A    
C26   H2    S    
C32   C33   A    
C19   C20   A    
Cr3   O26   S    
C58   H17   S    
C34   H1    S    
C11   C13   A    
Cr6   O11   S    
C5    C6    A    
C29   H3    S    
C54   C64   A    
C58   O20   S    
C47   O28   A    
Cr5   O7    S    
C27   C51   S    
C5    C62   A    
C61   H25   S    
C50   O6    A    
C18   H31   S    
C16   O16   A    
Cr1   O26   S    
C10   C11   A    
Cr4   O5    S    
C63   C64   A    
C28   O18   A    
C14   H29   S    
C20   C21   A    
C1    C24   S    
C42   C43   A    
C63   H14   S    
C2    C23   A    
C52   O25   A    
Cr2   O13   S    
C37   H6    S    
C10   H28   S    
C2    C3    A    
C4    C9    S    
C21   C22   A    
C58   H15   S    
C53   O5    A    
C16   O1    A    
